REMARK  Name = ZINC49788134
REMARK  8 active torsions:
REMARK  status: ('A' for Active; 'I' for Inactive)
REMARK    1  A    between atoms: C_1  and  C_2
REMARK    2  A    between atoms: C_4  and  C_26
REMARK    3  A    between atoms: N_5  and  C_7
REMARK    4  A    between atoms: C_7  and  C_8
REMARK    5  A    between atoms: N_10  and  N_11
REMARK    6  A    between atoms: N_14  and  C_15
REMARK    7  A    between atoms: C_15  and  C_17
REMARK    8  A    between atoms: C_15  and  C_18
REMARK                            x       y       z     vdW  Elec       q    Type
REMARK                         _______ _______ _______ _____ _____    ______ ____
ROOT
ATOM      1  N   UNL     1       3.075  -5.110   2.818  0.00  0.00    -0.218 N 
ATOM      2  C   UNL     1       3.339  -6.179   3.595  0.00  0.00    +0.316 C 
ATOM      3  O   UNL     1       4.491  -6.492   3.827  0.00  0.00    -0.251 OA
ATOM      4  N   UNL     1       2.327  -6.902   4.114  0.00  0.00    -0.292 N 
ATOM      5  H   UNL     1       3.803  -4.590   2.444  0.00  0.00    +0.174 HD
ATOM      6  H   UNL     1       1.408  -6.653   3.928  0.00  0.00    +0.151 HD
ENDROOT
BRANCH   1   9
ATOM      7  C   UNL     1       1.482  -3.682   1.773  0.00  0.00    +0.251 C 
ATOM      8  O   UNL     1       2.393  -3.031   1.306  0.00  0.00    -0.272 OA
ATOM      9  N   UNL     1       1.747  -4.751   2.550  0.00  0.00    -0.232 N 
ATOM     10  H   UNL     1       1.019  -5.271   2.923  0.00  0.00    +0.173 HD
BRANCH   7  11
ATOM     11  C   UNL     1       0.055  -3.295   1.485  0.00  0.00    +0.240 C 
BRANCH  11  16
ATOM     12  C   UNL     1      -0.018   1.503   0.010  0.00  0.00    +0.067 C 
ATOM     13  C   UNL     1       0.002  -0.004   0.002  0.00  0.00    +0.060 A 
ATOM     14  C   UNL     1       0.008  -0.818  -1.135  0.00  0.00    +0.047 A 
ATOM     15  C   UNL     1       0.028  -2.107  -0.725  0.00  0.00    +0.037 A 
ATOM     16  N   UNL     1       0.034  -2.109   0.625  0.00  0.00    -0.259 N 
ATOM     17  N   UNL     1       0.023  -0.777   1.058  0.00  0.00    -0.176 NA
ATOM     18  C   UNL     1       0.040  -3.323  -1.615  0.00  0.00    +0.065 C 
ENDBRANCH  11  16
ENDBRANCH   7  11
ENDBRANCH   1   9
BRANCH   4  19
ATOM     19  C   UNL     1       2.615  -8.065   4.958  0.00  0.00    +0.102 C 
ATOM     20  C   UNL     1       2.845  -9.292   4.075  0.00  0.00    +0.033 C 
BRANCH  19  21
ATOM     21  C   UNL     1       1.449  -8.318   5.878  0.00  0.00    -0.026 A 
ATOM     22  C   UNL     1       0.156  -8.185   5.407  0.00  0.00    +0.007 A 
ATOM     23  C   UNL     1      -0.915  -8.418   6.249  0.00  0.00    +0.022 A 
ATOM     24  C   UNL     1      -0.693  -8.784   7.565  0.00  0.00    +0.059 A 
ATOM     25  C   UNL     1       0.602  -8.917   8.036  0.00  0.00    +0.060 A 
ATOM     26  C   UNL     1       1.672  -8.690   7.190  0.00  0.00    +0.027 A 
ATOM     27 CL   UNL     1       0.882  -9.376   9.687  0.00  0.00    -0.082 Cl
ATOM     28 CL   UNL     1      -2.038  -9.075   8.624  0.00  0.00    -0.082 Cl
ENDBRANCH  19  21
ENDBRANCH   4  19
TORSDOF 5
