REMARK  Name = ZINC67380722
REMARK  5 active torsions:
REMARK  status: ('A' for Active; 'I' for Inactive)
REMARK    1  A    between atoms: C_5  and  C_7
REMARK    2  A    between atoms: N_16  and  C_17
REMARK    3  A    between atoms: C_17  and  C_18
REMARK    4  A    between atoms: C_21  and  S_24
REMARK    5  A    between atoms: S_24  and  N_27
REMARK                            x       y       z     vdW  Elec       q    Type
REMARK                         _______ _______ _______ _____ _____    ______ ____
ROOT
ATOM      1  C   UNL     1       1.229  -2.183  -0.018  0.00  0.00    +0.168 C 
ATOM      2  C   UNL     1       1.370  -2.704   1.417  0.00  0.00    +0.145 C 
ATOM      3  N   UNL     1       1.202  -4.166   1.398  0.00  0.00    -0.281 N 
ATOM      4  C   UNL     1       0.024  -4.718   0.709  0.00  0.00    +0.137 C 
ATOM      5  C   UNL     1      -0.052  -4.098  -0.691  0.00  0.00    +0.179 C 
ATOM      6  O   UNL     1       0.010  -2.674  -0.580  0.00  0.00    -0.369 OA
ATOM      7  C   UNL     1       2.100  -4.976   1.993  0.00  0.00    +0.303 C 
ATOM      8  O   UNL     1       3.114  -4.509   2.474  0.00  0.00    -0.253 OA
ATOM      9  N   UNL     1       1.873  -6.303   2.055  0.00  0.00    -0.295 N 
ATOM     10  H   UNL     1       1.101  -6.685   1.609  0.00  0.00    +0.151 HD
ENDROOT
BRANCH   1  15
ATOM     11  C   UNL     1      -0.022   1.379   0.019  0.00  0.00    +0.001 A 
ATOM     12  C   UNL     1       1.164   2.090   0.017  0.00  0.00    +0.003 A 
ATOM     13  C   UNL     1       2.372   1.419   0.003  0.00  0.00    +0.039 A 
ATOM     14  C   UNL     1       2.394   0.035  -0.008  0.00  0.00    +0.129 A 
ATOM     15  C   UNL     1       1.206  -0.676  -0.005  0.00  0.00    +0.018 A 
ATOM     16  C   UNL     1      -0.001  -0.003   0.009  0.00  0.00    +0.009 A 
ATOM     17  F   UNL     1       3.575  -0.622  -0.021  0.00  0.00    -0.205 F 
ENDBRANCH   1  15
BRANCH   9  18
ATOM     18  C   UNL     1       2.793  -7.169   2.796  0.00  0.00    +0.141 C 
BRANCH  18  19
ATOM     19  C   UNL     1       2.318  -8.597   2.711  0.00  0.00    -0.030 A 
ATOM     20  C   UNL     1       1.445  -9.092   3.661  0.00  0.00    +0.007 A 
ATOM     21  C   UNL     1       1.009 -10.402   3.583  0.00  0.00    +0.029 A 
ATOM     22  C   UNL     1       1.446 -11.216   2.554  0.00  0.00    +0.105 A 
ATOM     23  C   UNL     1       2.318 -10.720   1.604  0.00  0.00    +0.029 A 
ATOM     24  C   UNL     1       2.751  -9.409   1.680  0.00  0.00    +0.007 A 
BRANCH  22  25
ATOM     25  S   UNL     1       0.891 -12.885   2.456  0.00  0.00    +0.056 S 
ATOM     26  O   UNL     1       1.871 -13.595   1.712  0.00  0.00    -0.153 OA
ATOM     27  O   UNL     1       0.509 -13.265   3.771  0.00  0.00    -0.153 OA
BRANCH  25  28
ATOM     28  N   UNL     1      -0.491 -12.888   1.543  0.00  0.00    -0.204 NA
ATOM     29  H   UNL     1      -0.835 -12.057   1.181  0.00  0.00    +0.144 HD
ATOM     30  H   UNL     1      -0.956 -13.722   1.369  0.00  0.00    +0.144 HD
ENDBRANCH  25  28
ENDBRANCH  22  25
ENDBRANCH  18  19
ENDBRANCH   9  18
TORSDOF 5
