REMARK  Name = ZINC02187922
REMARK  7 active torsions:
REMARK  status: ('A' for Active; 'I' for Inactive)
REMARK    1  A    between atoms: C_1  and  C_2
REMARK    2  A    between atoms: C_2  and  C_3
REMARK    3  A    between atoms: C_3  and  S_4
REMARK    4  A    between atoms: S_4  and  C_5
REMARK    5  A    between atoms: C_18  and  C_21
REMARK    6  A    between atoms: C_26  and  O_27
REMARK    7  A    between atoms: O_27  and  C_28
REMARK                            x       y       z     vdW  Elec       q    Type
REMARK                         _______ _______ _______ _____ _____    ______ ____
ROOT
ATOM      1  C   UNL     1       0.098   0.341   4.400  0.00  0.00    +0.212 A 
ATOM      2  N   UNL     1      -0.508   0.382   3.216  0.00  0.00    -0.184 NA
ATOM      3  C   UNL     1      -0.192   1.339   2.361  0.00  0.00    +0.248 A 
ATOM      4  C   UNL     1       0.789   2.287   2.733  0.00  0.00    +0.156 A 
ATOM      5  N   UNL     1       1.353   2.190   3.928  0.00  0.00    -0.141 NA
ATOM      6  N   UNL     1       1.013   1.243   4.732  0.00  0.00    -0.122 NA
ATOM      7  C   UNL     1       1.164   3.359   1.788  0.00  0.00    +0.028 A 
ATOM      8  C   UNL     1       1.262   4.684   2.194  0.00  0.00    +0.012 A 
ATOM      9  C   UNL     1       1.647   5.652   1.287  0.00  0.00    +0.001 A 
ATOM     10  C   UNL     1       1.935   5.310  -0.023  0.00  0.00    +0.002 A 
ATOM     11  C   UNL     1       1.835   3.996  -0.442  0.00  0.00    +0.024 A 
ATOM     12  C   UNL     1       1.446   3.016   0.453  0.00  0.00    +0.039 A 
ATOM     13  N   UNL     1       1.319   1.680   0.060  0.00  0.00    -0.305 N 
ATOM     14  C   UNL     1      -0.013   1.086   0.008  0.00  0.00    +0.297 C 
ATOM     15  O   UNL     1      -0.790   1.429   1.150  0.00  0.00    -0.449 OA
ATOM     16  H   UNL     1       2.103   1.158  -0.172  0.00  0.00    +0.150 HD
ENDROOT
BRANCH  14  17
ATOM     17  C   UNL     1      -0.720   1.574  -1.230  0.00  0.00    +0.053 A 
ATOM     18  C   UNL     1      -1.561   2.667  -1.161  0.00  0.00    +0.012 A 
ATOM     19  C   UNL     1      -2.209   3.116  -2.296  0.00  0.00    +0.001 A 
ATOM     20  C   UNL     1      -2.018   2.471  -3.505  0.00  0.00    +0.004 A 
ATOM     21  C   UNL     1      -1.177   1.378  -3.580  0.00  0.00    +0.046 A 
ATOM     22  C   UNL     1      -0.522   0.929  -2.442  0.00  0.00    +0.128 A 
BRANCH  22  23
ATOM     23  O   UNL     1       0.310  -0.144  -2.514  0.00  0.00    -0.495 OA
ATOM     24  C   UNL     1       0.466  -0.759  -3.795  0.00  0.00    +0.277 C 
ENDBRANCH  22  23
ENDBRANCH  14  17
BRANCH   1  25
ATOM     25  S   UNL     1      -0.320  -0.932   5.544  0.00  0.00    -0.084 S 
BRANCH  25  26
ATOM     26  C   UNL     1       0.778  -0.495   6.915  0.00  0.00    +0.077 C 
BRANCH  26  28
ATOM     27  C   UNL     1       1.514  -1.122   9.219  0.00  0.00    +0.004 C 
ATOM     28  C   UNL     1       0.586  -1.491   8.060  0.00  0.00    +0.008 C 
ENDBRANCH  26  28
ENDBRANCH  25  26
ENDBRANCH   1  25
TORSDOF 5
