REMARK  Name = ZINC10088242
REMARK  8 active torsions:
REMARK  status: ('A' for Active; 'I' for Inactive)
REMARK    1  A    between atoms: C_1  and  C_2
REMARK    2  A    between atoms: C_2  and  C_3
REMARK    3  A    between atoms: C_3  and  N_45
REMARK    4  A    between atoms: C_4  and  C_5
REMARK    5  A    between atoms: C_4  and  N_45
REMARK    6  A    between atoms: C_16  and  C_17
REMARK    7  A    between atoms: C_16  and  N_45
REMARK    8  A    between atoms: N_19  and  C_20
REMARK                            x       y       z     vdW  Elec       q    Type
REMARK                         _______ _______ _______ _____ _____    ______ ____
ROOT
ATOM      1  N   UNL     1      -2.381   1.275   1.107  0.00  0.00    +0.390 N 
ATOM      2  H   UNL     1      -2.378   0.333   0.699  0.00  0.00    -0.081 HD
ENDROOT
BRANCH   1   3
ATOM      3  C   UNL     1      -2.175   1.166   2.567  0.00  0.00    -0.078 C 
BRANCH   3   5
ATOM      4  C   UNL     1      -1.900   2.423   4.708  0.00  0.00    +0.002 C 
ATOM      5  C   UNL     1      -2.244   2.547   3.223  0.00  0.00    -0.022 C 
ENDBRANCH   3   5
ENDBRANCH   1   3
BRANCH   1   6
ATOM      6  C   UNL     1      -3.683   1.916   0.827  0.00  0.00    -0.003 C 
BRANCH   6   7
ATOM      7  C   UNL     1      -4.781   0.922   1.104  0.00  0.00    +0.094 A 
ATOM      8  N   UNL     1      -6.061   1.278   0.820  0.00  0.00    -0.311 N 
ATOM      9  H   UNL     1      -6.255   2.153   0.449  0.00  0.00    +0.170 HD
ATOM     10  C   UNL     1      -7.064   0.400   1.061  0.00  0.00    +0.266 A 
ATOM     11  O   UNL     1      -8.223   0.689   0.818  0.00  0.00    -0.267 OA
ATOM     12  C   UNL     1      -6.733  -0.846   1.596  0.00  0.00    +0.102 A 
ATOM     13  C   UNL     1      -5.399  -1.189   1.881  0.00  0.00    +0.085 A 
ATOM     14  N   UNL     1      -4.458  -0.231   1.596  0.00  0.00    -0.235 NA
ATOM     15  C   UNL     1      -5.208  -2.471   2.414  0.00  0.00    +0.036 A 
ATOM     16  C   UNL     1      -6.264  -3.285   2.624  0.00  0.00    +0.048 A 
ATOM     17  S   UNL     1      -7.642  -2.291   2.074  0.00  0.00    -0.090 S 
ENDBRANCH   6   7
ENDBRANCH   1   6
BRANCH   1  18
ATOM     18  C   UNL     1      -1.288   2.064   0.501  0.00  0.00    +0.019 C 
BRANCH  18  19
ATOM     19  C   UNL     1      -0.005   1.281   0.609  0.00  0.00    +0.201 C 
ATOM     20  O   UNL     1      -0.001   0.194   1.148  0.00  0.00    -0.278 OA
ATOM     21  N   UNL     1       1.137   1.786   0.102  0.00  0.00    -0.283 N 
ATOM     22  H   UNL     1       1.120   2.615  -0.400  0.00  0.00    +0.155 HD
BRANCH  21  23
ATOM     23  C   UNL     1       2.350   1.111   0.300  0.00  0.00    +0.105 A 
ATOM     24  C   UNL     1       3.480   1.814   0.703  0.00  0.00    +0.147 A 
ATOM     25  C   UNL     1       4.674   1.144   0.902  0.00  0.00    +0.040 A 
ATOM     26  C   UNL     1       4.747  -0.221   0.692  0.00  0.00    +0.006 A 
ATOM     27  C   UNL     1       3.626  -0.922   0.286  0.00  0.00    +0.040 A 
ATOM     28  C   UNL     1       2.427  -0.260   0.089  0.00  0.00    +0.147 A 
ATOM     29  F   UNL     1       1.333  -0.946  -0.307  0.00  0.00    -0.203 F 
ATOM     30  F   UNL     1       3.411   3.148   0.903  0.00  0.00    -0.203 F 
ENDBRANCH  21  23
ENDBRANCH  18  19
ENDBRANCH   1  18
TORSDOF 7
