REMARK  Name = ZINC58626352
REMARK  2 active torsions:
REMARK  status: ('A' for Active; 'I' for Inactive)
REMARK    1  A    between atoms: C_3  and  C_18
REMARK    2  A    between atoms: C_6  and  N_9
REMARK                            x       y       z     vdW  Elec       q    Type
REMARK                         _______ _______ _______ _____ _____    ______ ____
ROOT
ATOM      1  C   UNL     1      -0.026   1.526   0.011  0.00  0.00    +0.002 C 
ATOM      2  C   UNL     1       1.409   2.056  -0.006  0.00  0.00    +0.012 C 
ATOM      3  C   UNL     1       2.154   1.549   1.231  0.00  0.00    +0.095 C 
ATOM      4  C   UNL     1       2.175   0.019   1.222  0.00  0.00    +0.034 C 
ATOM      5  C   UNL     1       0.740  -0.511   1.238  0.00  0.00    +0.075 C 
ATOM      6  C   UNL     1      -0.005  -0.003   0.002  0.00  0.00    +0.022 C 
ENDROOT
BRANCH   5   7
ATOM      7  N   UNL     1       0.760  -1.975   1.230  0.00  0.00    -0.296 N 
ATOM      8  C   UNL     1      -0.282  -2.667   1.733  0.00  0.00    +0.303 C 
ATOM      9  O   UNL     1      -1.197  -2.078   2.276  0.00  0.00    -0.253 OA
ATOM     10  N   UNL     1      -0.310  -4.011   1.635  0.00  0.00    -0.281 N 
ATOM     11  C   UNL     1       0.838  -4.754   1.091  0.00  0.00    +0.137 C 
ATOM     12  C   UNL     1       1.195  -5.877   2.072  0.00  0.00    +0.179 C 
ATOM     13  O   UNL     1       0.021  -6.642   2.359  0.00  0.00    -0.377 OA
ATOM     14  C   UNL     1      -1.018  -5.900   3.001  0.00  0.00    +0.179 C 
ATOM     15  C   UNL     1      -1.486  -4.778   2.074  0.00  0.00    +0.137 C 
ATOM     16  H   UNL     1       1.523  -2.448   0.861  0.00  0.00    +0.151 HD
ENDBRANCH   5   7
BRANCH   3  17
ATOM     17  C   UNL     1       3.589   2.079   1.214  0.00  0.00    +0.393 C 
ATOM     18  F   UNL     1       3.570   3.478   1.223  0.00  0.00    -0.170 F 
ATOM     19  F   UNL     1       4.271   1.615   2.345  0.00  0.00    -0.170 F 
ATOM     20  F   UNL     1       4.240   1.628   0.060  0.00  0.00    -0.170 F 
ENDBRANCH   3  17
TORSDOF 2
