REMARK  Name = ZINC32096637
REMARK  4 active torsions:
REMARK  status: ('A' for Active; 'I' for Inactive)
REMARK    1  A    between atoms: C_1  and  C_2
REMARK    2  A    between atoms: C_2  and  C_22
REMARK    3  A    between atoms: C_4  and  C_9
REMARK    4  A    between atoms: C_12  and  C_17
REMARK                            x       y       z     vdW  Elec       q    Type
REMARK                         _______ _______ _______ _____ _____    ______ ____
ROOT
ATOM      1  C   UNL     1      -3.301   3.204   0.051  0.00  0.00    +0.106 A 
ATOM      2  N   UNL     1      -2.534   2.156   0.038  0.00  0.00    -0.160 NA
ATOM      3  N   UNL     1      -1.151   2.271   0.019  0.00  0.00    -0.183 N 
ATOM      4  C   UNL     1      -0.018   1.467   0.010  0.00  0.00    +0.221 A 
ATOM      5  N   UNL     1       1.034   2.257   0.004  0.00  0.00    -0.123 NA
ATOM      6  N   UNL     1       0.656   3.488   0.015  0.00  0.00    -0.120 NA
ATOM      7  C   UNL     1      -0.643   3.547   0.027  0.00  0.00    +0.218 A 
ATOM      8  S   UNL     1      -2.115   4.540   0.047  0.00  0.00    -0.031 S 
ENDROOT
BRANCH   1  12
ATOM      9  C   UNL     1      -7.434   2.760   1.308  0.00  0.00    +0.041 C 
ATOM     10  C   UNL     1      -6.796   4.151   1.293  0.00  0.00    +0.065 C 
ATOM     11  C   UNL     1      -5.272   4.014   1.326  0.00  0.00    +0.044 C 
ATOM     12  C   UNL     1      -4.807   3.276   0.067  0.00  0.00    +0.051 C 
ATOM     13  C   UNL     1      -5.296   4.038  -1.169  0.00  0.00    +0.038 C 
ATOM     14  C   UNL     1      -6.819   4.174  -1.105  0.00  0.00    +0.161 C 
ATOM     15  O   UNL     1      -7.186   4.841   0.105  0.00  0.00    -0.374 OA
ATOM     16  C   UNL     1      -7.264   4.939   2.518  0.00  0.00    +0.041 C 
ENDBRANCH   1  12
BRANCH   4  17
ATOM     17  C   UNL     1       0.002  -0.004   0.002  0.00  0.00    +0.173 A 
ATOM     18  C   UNL     1       1.081  -0.791   0.274  0.00  0.00    +0.053 A 
ATOM     19  C   UNL     1       0.649  -2.127   0.150  0.00  0.00    +0.042 A 
ATOM     20  C   UNL     1      -0.655  -2.092  -0.186  0.00  0.00    +0.196 A 
ATOM     21  O   UNL     1      -1.045  -0.808  -0.269  0.00  0.00    -0.460 OA
ENDBRANCH   4  17
TORSDOF 2
