REMARK  Name = ZINC12710411
REMARK  7 active torsions:
REMARK  status: ('A' for Active; 'I' for Inactive)
REMARK    1  A    between atoms: C_1  and  C_2
REMARK    2  A    between atoms: C_5  and  C_8
REMARK    3  A    between atoms: C_8  and  C_10
REMARK    4  A    between atoms: C_8  and  N_15
REMARK    5  A    between atoms: C_16  and  C_18
REMARK    6  A    between atoms: C_19  and  C_20
REMARK    7  A    between atoms: C_22  and  N_30
REMARK                            x       y       z     vdW  Elec       q    Type
REMARK                         _______ _______ _______ _____ _____    ______ ____
ROOT
ATOM      1  N   UNL     1      -0.932   3.422  -0.863  0.00  0.00    -0.300 N 
ATOM      2  C   UNL     1      -1.185   3.325  -2.183  0.00  0.00    +0.238 C 
ATOM      3  O   UNL     1      -1.636   2.291  -2.642  0.00  0.00    -0.271 OA
ATOM      4  H   UNL     1      -0.574   4.246  -0.497  0.00  0.00    +0.150 HD
ENDROOT
BRANCH   2   5
ATOM      5  C   UNL     1      -0.919   4.461  -3.064  0.00  0.00    +0.068 C 
ATOM      6  C   UNL     1      -1.172   4.363  -4.387  0.00  0.00    +0.016 C 
BRANCH   6   7
ATOM      7  C   UNL     1      -0.904   5.505  -5.272  0.00  0.00    +0.019 A 
ATOM      8  C   UNL     1      -0.392   6.697  -4.749  0.00  0.00    +0.044 A 
ATOM      9  C   UNL     1      -0.140   7.761  -5.586  0.00  0.00    +0.127 A 
ATOM     10  C   UNL     1      -0.402   7.660  -6.943  0.00  0.00    +0.042 A 
ATOM     11  C   UNL     1      -0.914   6.491  -7.474  0.00  0.00    +0.023 A 
ATOM     12  C   UNL     1      -1.166   5.408  -6.649  0.00  0.00    +0.136 A 
ATOM     13  O   UNL     1      -1.659   4.250  -7.158  0.00  0.00    -0.465 OA
ATOM     14  C   UNL     1      -2.242   4.314  -8.463  0.00  0.00    +0.395 C 
ATOM     15  O   UNL     1      -1.353   5.034  -9.326  0.00  0.00    -0.339 OA
ATOM     16  C   UNL     1      -1.200   6.406  -8.952  0.00  0.00    +0.202 C 
BRANCH   9  17
ATOM     17  N   UNL     1       0.409   9.019  -5.034  0.00  0.00    +0.056 N 
ATOM     18  O   UNL     1       0.629   9.963  -5.771  0.00  0.00    -0.126 OA
ATOM     19  O   UNL     1       0.641   9.111  -3.841  0.00  0.00    -0.126 OA
ENDBRANCH   9  17
ENDBRANCH   6   7
ENDBRANCH   2   5
BRANCH   1  20
ATOM     20  C   UNL     1      -1.200   2.284   0.020  0.00  0.00    +0.140 C 
BRANCH  20  25
ATOM     21  C   UNL     1      -2.100   4.190   5.401  0.00  0.00    +0.044 C 
ATOM     22  C   UNL     1      -1.865   3.693   3.998  0.00  0.00    -0.050 A 
ATOM     23  C   UNL     1      -2.637   2.665   3.491  0.00  0.00    +0.004 A 
ATOM     24  C   UNL     1      -2.422   2.209   2.204  0.00  0.00    +0.006 A 
ATOM     25  C   UNL     1      -1.434   2.781   1.424  0.00  0.00    -0.022 A 
ATOM     26  C   UNL     1      -0.659   3.806   1.933  0.00  0.00    +0.006 A 
ATOM     27  C   UNL     1      -0.877   4.266   3.218  0.00  0.00    +0.004 A 
ENDBRANCH  20  25
BRANCH  20  28
ATOM     28  C   UNL     1      -0.016   1.351   0.009  0.00  0.00    +0.014 A 
ATOM     29  C   UNL     1       0.002  -0.004   0.002  0.00  0.00    +0.013 A 
ATOM     30  C   UNL     1       1.220  -0.658  -0.013  0.00  0.00    +0.008 A 
ATOM     31  C   UNL     1       2.360   0.076  -0.020  0.00  0.00    +0.045 A 
ATOM     32  S   UNL     1       1.725   1.744  -0.005  0.00  0.00    -0.099 S 
ENDBRANCH  20  28
ENDBRANCH   1  20
TORSDOF 6
