REMARK  Name = ZINC67049849
REMARK  4 active torsions:
REMARK  status: ('A' for Active; 'I' for Inactive)
REMARK    1  A    between atoms: C_6  and  C_7
REMARK    2  A    between atoms: C_10  and  C_12
REMARK    3  A    between atoms: N_14  and  C_15
REMARK    4  A    between atoms: N_18  and  C_21
REMARK                            x       y       z     vdW  Elec       q    Type
REMARK                         _______ _______ _______ _____ _____    ______ ____
ROOT
ATOM      1  C   UNL     1      -4.610  -2.815   3.188  0.00  0.00    +0.076 C 
ATOM      2  C   UNL     1      -4.935  -1.698   4.183  0.00  0.00    +0.041 C 
ATOM      3  C   UNL     1      -6.385  -1.845   4.654  0.00  0.00    +0.108 C 
ATOM      4  N   UNL     1      -6.574  -3.201   5.187  0.00  0.00    -0.313 N 
ATOM      5  C   UNL     1      -6.207  -4.348   4.345  0.00  0.00    +0.108 C 
ATOM      6  C   UNL     1      -4.759  -4.173   3.878  0.00  0.00    +0.041 C 
ENDROOT
BRANCH   4   7
ATOM      7  C   UNL     1      -7.088  -3.394   6.457  0.00  0.00    +0.152 A 
ATOM      8  C   UNL     1      -7.387  -4.685   6.923  0.00  0.00    +0.147 A 
ATOM      9  N   UNL     1      -7.296  -5.931   6.400  0.00  0.00    -0.231 NA
ATOM     10  C   UNL     1      -7.716  -6.799   7.274  0.00  0.00    +0.198 A 
ATOM     11  N   UNL     1      -8.104  -6.162   8.415  0.00  0.00    -0.329 N 
ATOM     12  C   UNL     1      -7.906  -4.818   8.222  0.00  0.00    +0.163 A 
ATOM     13  N   UNL     1      -8.095  -3.727   8.957  0.00  0.00    -0.216 NA
ATOM     14  C   UNL     1      -7.800  -2.536   8.479  0.00  0.00    +0.225 A 
ATOM     15  N   UNL     1      -7.305  -2.362   7.267  0.00  0.00    -0.218 NA
ATOM     16  H   UNL     1      -8.455  -6.581   9.216  0.00  0.00    +0.168 HD
ENDBRANCH   4   7
BRANCH   1  19
ATOM     17  C   UNL     1      -2.970  -1.835   1.676  0.00  0.00    +0.217 C 
ATOM     18  O   UNL     1      -3.870  -1.224   1.141  0.00  0.00    -0.275 OA
ATOM     19  N   UNL     1      -3.234  -2.658   2.710  0.00  0.00    -0.312 N 
ATOM     20  H   UNL     1      -2.514  -3.147   3.138  0.00  0.00    +0.149 HD
BRANCH  17  23
ATOM     21  C   UNL     1      -1.319  -0.725   0.008  0.00  0.00    +0.032 C 
ATOM     22  C   UNL     1      -1.218  -2.238  -0.198  0.00  0.00    +0.022 C 
ATOM     23  C   UNL     1      -1.554  -1.674   1.185  0.00  0.00    +0.083 C 
BRANCH  21  29
ATOM     24  C   UNL     1      -0.076   1.447  -0.004  0.00  0.00    +0.005 A 
ATOM     25  C   UNL     1       1.100   2.173  -0.013  0.00  0.00    +0.020 A 
ATOM     26  C   UNL     1       2.317   1.517  -0.021  0.00  0.00    +0.041 A 
ATOM     27  C   UNL     1       2.357   0.134  -0.020  0.00  0.00    +0.020 A 
ATOM     28  C   UNL     1       1.180  -0.591  -0.011  0.00  0.00    +0.005 A 
ATOM     29  C   UNL     1      -0.036   0.066  -0.003  0.00  0.00    -0.043 A 
ATOM     30 CL   UNL     1       3.795   2.428  -0.034  0.00  0.00    -0.084 Cl
ENDBRANCH  21  29
ENDBRANCH  17  23
ENDBRANCH   1  19
TORSDOF 4
