REMARK  Name = ZINC06430031
REMARK  8 active torsions:
REMARK  status: ('A' for Active; 'I' for Inactive)
REMARK    1  A    between atoms: C_1  and  C_2
REMARK    2  A    between atoms: C_2  and  C_3
REMARK    3  A    between atoms: C_3  and  C_4
REMARK    4  A    between atoms: C_4  and  N_5
REMARK    5  A    between atoms: C_14  and  C_16
REMARK    6  A    between atoms: N_18  and  C_19
REMARK    7  A    between atoms: C_24  and  C_25
REMARK    8  A    between atoms: C_25  and  C_26
REMARK                            x       y       z     vdW  Elec       q    Type
REMARK                         _______ _______ _______ _____ _____    ______ ____
ROOT
ATOM      1  C   UNL     1      -3.209  -1.050   1.673  0.00  0.00    +0.269 C 
ATOM      2  O   UNL     1      -3.779  -0.660   2.674  0.00  0.00    -0.268 OA
ATOM      3  N   UNL     1      -2.229  -0.307   1.122  0.00  0.00    -0.280 N 
ATOM      4  H   UNL     1      -1.830  -0.578   0.281  0.00  0.00    +0.155 HD
ENDROOT
BRANCH   1  14
ATOM      5  N   UNL     1      -3.252  -3.870  -0.606  0.00  0.00    -0.228 N 
ATOM      6  C   UNL     1      -4.203  -4.727  -0.183  0.00  0.00    +0.275 A 
ATOM      7  O   UNL     1      -4.419  -5.764  -0.783  0.00  0.00    -0.266 OA
ATOM      8  C   UNL     1      -4.973  -4.381   1.020  0.00  0.00    +0.050 A 
ATOM      9  C   UNL     1      -5.974  -5.196   1.538  0.00  0.00    +0.014 A 
ATOM     10  C   UNL     1      -6.650  -4.799   2.671  0.00  0.00    +0.001 A 
ATOM     11  C   UNL     1      -6.342  -3.598   3.297  0.00  0.00    +0.001 A 
ATOM     12  C   UNL     1      -5.353  -2.776   2.800  0.00  0.00    +0.011 A 
ATOM     13  C   UNL     1      -4.655  -3.160   1.660  0.00  0.00    +0.020 A 
ATOM     14  C   UNL     1      -3.591  -2.339   1.062  0.00  0.00    +0.154 A 
ATOM     15  N   UNL     1      -2.982  -2.767  -0.017  0.00  0.00    -0.163 NA
BRANCH   5  16
ATOM     16  C   UNL     1      -2.487  -4.220  -1.806  0.00  0.00    +0.147 C 
BRANCH  16  17
ATOM     17  C   UNL     1      -3.195  -3.665  -3.043  0.00  0.00    +0.023 C 
BRANCH  17  19
ATOM     18  C   UNL     1      -3.104  -3.476  -5.532  0.00  0.00    +0.004 C 
ATOM     19  C   UNL     1      -2.396  -4.031  -4.295  0.00  0.00    -0.002 C 
ENDBRANCH  17  19
ENDBRANCH  16  17
ENDBRANCH   5  16
ENDBRANCH   1  14
BRANCH   3  20
ATOM     20  C   UNL     1      -1.789   0.855   1.764  0.00  0.00    +0.037 A 
ATOM     21  C   UNL     1      -1.941   0.992   3.138  0.00  0.00    +0.023 A 
ATOM     22  C   UNL     1      -1.509   2.143   3.767  0.00  0.00    +0.002 A 
ATOM     23  C   UNL     1      -0.922   3.156   3.032  0.00  0.00    +0.000 A 
ATOM     24  C   UNL     1      -0.766   3.021   1.665  0.00  0.00    +0.006 A 
ATOM     25  C   UNL     1      -1.194   1.872   1.029  0.00  0.00    -0.022 A 
BRANCH  25  26
ATOM     26  C   UNL     1      -1.023   1.726  -0.461  0.00  0.00    +0.072 C 
BRANCH  26  27
ATOM     27  C   UNL     1      -2.290   2.152  -1.157  0.00  0.00    -0.043 A 
ATOM     28  C   UNL     1      -3.281   1.225  -1.418  0.00  0.00    +0.004 A 
ATOM     29  C   UNL     1      -4.445   1.617  -2.052  0.00  0.00    +0.000 A 
ATOM     30  C   UNL     1      -4.614   2.935  -2.434  0.00  0.00    +0.000 A 
ATOM     31  C   UNL     1      -3.620   3.861  -2.178  0.00  0.00    +0.000 A 
ATOM     32  C   UNL     1      -2.458   3.470  -1.539  0.00  0.00    +0.004 A 
ENDBRANCH  26  27
ENDBRANCH  25  26
ENDBRANCH   3  20
TORSDOF 7
