REMARK  Name = ZINC02313351
REMARK  7 active torsions:
REMARK  status: ('A' for Active; 'I' for Inactive)
REMARK    1  A    between atoms: C_1  and  N_2
REMARK    2  A    between atoms: C_6  and  C_7
REMARK    3  A    between atoms: N_9  and  C_16
REMARK    4  A    between atoms: C_16  and  C_17
REMARK    5  A    between atoms: C_17  and  O_18
REMARK    6  A    between atoms: O_18  and  C_19
REMARK    7  A    between atoms: N_28  and  C_31
REMARK                            x       y       z     vdW  Elec       q    Type
REMARK                         _______ _______ _______ _____ _____    ______ ____
ROOT
ATOM      1  C   UNL     1      -2.807   3.532   0.298  0.00  0.00    +0.001 A 
ATOM      2  C   UNL     1      -3.641   2.521   0.745  0.00  0.00    +0.095 A 
ATOM      3  N   UNL     1      -2.942   1.377   0.854  0.00  0.00    -0.343 N 
ATOM      4  C   UNL     1      -1.627   1.567   0.479  0.00  0.00    +0.050 A 
ATOM      5  C   UNL     1      -1.478   2.914   0.113  0.00  0.00    +0.007 A 
ATOM      6  C   UNL     1      -0.243   3.389  -0.318  0.00  0.00    +0.010 A 
ATOM      7  C   UNL     1       0.834   2.531  -0.380  0.00  0.00    +0.001 A 
ATOM      8  C   UNL     1       0.691   1.201  -0.015  0.00  0.00    +0.002 A 
ATOM      9  C   UNL     1      -0.527   0.718   0.414  0.00  0.00    +0.026 A 
ENDROOT
BRANCH   1  15
ATOM     10  C   UNL     1      -6.486   8.136  -1.539  0.00  0.00    +0.143 C 
ATOM     11  N   UNL     1      -5.967   6.771  -1.424  0.00  0.00    -0.225 N 
ATOM     12  C   UNL     1      -4.826   6.555  -0.737  0.00  0.00    +0.259 C 
ATOM     13  O   UNL     1      -4.228   7.477  -0.215  0.00  0.00    -0.269 OA
ATOM     14  C   UNL     1      -4.325   5.174  -0.636  0.00  0.00    +0.100 C 
ATOM     15  C   UNL     1      -3.158   4.875   0.055  0.00  0.00    +0.028 C 
ATOM     16  C   UNL     1      -5.112   4.123  -1.305  0.00  0.00    +0.259 C 
ATOM     17  O   UNL     1      -4.758   2.960  -1.270  0.00  0.00    -0.269 OA
ATOM     18  N   UNL     1      -6.238   4.486  -1.952  0.00  0.00    -0.225 N 
ATOM     19  C   UNL     1      -6.636   5.765  -2.004  0.00  0.00    +0.317 C 
ATOM     20  O   UNL     1      -7.657   6.026  -2.609  0.00  0.00    -0.252 OA
ATOM     21  C   UNL     1      -7.042   3.459  -2.621  0.00  0.00    +0.143 C 
ENDBRANCH   1  15
BRANCH   3  22
ATOM     22  C   UNL     1      -3.502   0.101   1.309  0.00  0.00    +0.163 C 
BRANCH  22  23
ATOM     23  C   UNL     1      -3.246  -0.062   2.808  0.00  0.00    +0.250 C 
BRANCH  23  24
ATOM     24  O   UNL     1      -3.791  -1.306   3.252  0.00  0.00    -0.489 OA
BRANCH  24  25
ATOM     25  C   UNL     1      -3.648  -1.608   4.570  0.00  0.00    +0.139 A 
ATOM     26  C   UNL     1      -2.992  -0.727   5.417  0.00  0.00    +0.047 A 
ATOM     27  C   UNL     1      -2.853  -1.033   6.757  0.00  0.00    +0.004 A 
ATOM     28  C   UNL     1      -3.358  -2.222   7.252  0.00  0.00    +0.002 A 
ATOM     29  C   UNL     1      -4.008  -3.104   6.410  0.00  0.00    +0.023 A 
ATOM     30  C   UNL     1      -4.154  -2.800   5.069  0.00  0.00    +0.083 A 
ATOM     31 CL   UNL     1      -4.970  -3.909   4.011  0.00  0.00    -0.080 Cl
ENDBRANCH  24  25
ENDBRANCH  23  24
ENDBRANCH  22  23
ENDBRANCH   3  22
TORSDOF 5
