REMARK  Name = ZINC65396752
REMARK  0 active torsions:
REMARK  status: ('A' for Active; 'I' for Inactive)
REMARK                            x       y       z     vdW  Elec       q    Type
REMARK                         _______ _______ _______ _____ _____    ______ ____
ROOT
ATOM      1  C   UNL     1      -0.017   1.377   0.010  0.00  0.00    +0.001 A 
ATOM      2  C   UNL     1       1.169   2.092   0.002  0.00  0.00    +0.004 A 
ATOM      3  C   UNL     1       2.386   1.435  -0.013  0.00  0.00    +0.046 A 
ATOM      4  C   UNL     1       2.421   0.053  -0.021  0.00  0.00    +0.129 A 
ATOM      5  C   UNL     1       1.221  -0.672  -0.014  0.00  0.00    +0.017 A 
ATOM      6  C   UNL     1       0.002  -0.004   0.002  0.00  0.00    +0.011 A 
ATOM      7  C   UNL     1       1.295  -2.149  -0.027  0.00  0.00    +0.011 C 
ATOM      8  C   UNL     1       2.452  -2.722   0.294  0.00  0.00    +0.021 C 
ATOM      9  C   UNL     1       3.639  -1.870   0.674  0.00  0.00    +0.131 C 
ATOM     10  O   UNL     1       3.595  -0.626  -0.035  0.00  0.00    -0.481 OA
ATOM     11  C   UNL     1       4.923  -2.605   0.297  0.00  0.00    +0.054 C 
ATOM     12  C   UNL     1       6.079  -1.729   0.059  0.00  0.00    +0.023 C 
ATOM     13  C   UNL     1       6.448  -0.962   1.354  0.00  0.00    +0.106 C 
ATOM     14  N   UNL     1       5.438   0.035   1.630  0.00  0.00    -0.315 N 
ATOM     15  C   UNL     1       4.254  -0.239   2.467  0.00  0.00    +0.111 C 
ATOM     16  C   UNL     1       3.635  -1.614   2.162  0.00  0.00    +0.071 C 
ATOM     17  C   UNL     1       5.588   1.301   1.088  0.00  0.00    +0.126 A 
ATOM     18  C   UNL     1       6.634   1.573   0.203  0.00  0.00    +0.063 A 
ATOM     19  C   UNL     1       6.745   2.849  -0.314  0.00  0.00    +0.118 A 
ATOM     20  N   UNL     1       5.864   3.771   0.042  0.00  0.00    -0.223 NA
ATOM     21  C   UNL     1       4.881   3.486   0.884  0.00  0.00    +0.214 A 
ATOM     22  N   UNL     1       4.737   2.273   1.398  0.00  0.00    -0.200 NA
ATOM     23  N   UNL     1       3.980   4.477   1.231  0.00  0.00    -0.327 N 
ATOM     24  H   UNL     1       4.073   5.368   0.859  0.00  0.00    +0.145 HD
ATOM     25  H   UNL     1       3.257   4.281   1.847  0.00  0.00    +0.145 HD
ENDROOT
TORSDOF 0
