REMARK  Name = ZINC04638323
REMARK  6 active torsions:
REMARK  status: ('A' for Active; 'I' for Inactive)
REMARK    1  A    between atoms: C_1  and  O_2
REMARK    2  A    between atoms: O_2  and  C_3
REMARK    3  A    between atoms: C_7  and  C_9
REMARK    4  A    between atoms: C_18  and  C_27
REMARK    5  A    between atoms: C_22  and  C_23
REMARK    6  A    between atoms: C_22  and  C_25
REMARK                            x       y       z     vdW  Elec       q    Type
REMARK                         _______ _______ _______ _____ _____    ______ ____
ROOT
ATOM      1  C   UNL     1       1.389  -4.130   2.211  0.00  0.00    +0.066 C 
ATOM      2  C   UNL     1       0.695  -4.622   3.485  0.00  0.00    +0.027 C 
ATOM      3  C   UNL     1      -0.775  -4.240   3.447  0.00  0.00    +0.009 C 
ATOM      4  C   UNL     1      -1.368  -4.202   4.855  0.00  0.00    +0.005 C 
ATOM      5  C   UNL     1      -0.638  -3.118   5.655  0.00  0.00    +0.027 C 
ATOM      6  C   UNL     1       0.833  -3.423   5.648  0.00  0.00    -0.026 C 
ATOM      7  C   UNL     1       1.402  -4.075   4.691  0.00  0.00    -0.047 C 
ATOM      8  C   UNL     1       2.898  -4.324   4.809  0.00  0.00    +0.164 C 
ATOM      9  C   UNL     1       3.519  -4.004   3.465  0.00  0.00    +0.065 C 
ATOM     10  N   UNL     1       4.572  -3.283   3.382  0.00  0.00    -0.304 NA
ATOM     11  C   UNL     1       2.853  -4.575   2.218  0.00  0.00    +0.188 C 
ATOM     12  H   UNL     1       4.985  -2.933   4.187  0.00  0.00    +0.186 HD
ENDROOT
BRANCH   1  17
ATOM     13  C   UNL     1       0.626  -0.618   1.042  0.00  0.00    +0.120 A 
ATOM     14  C   UNL     1       1.202   0.139   2.051  0.00  0.00    +0.045 A 
ATOM     15  C   UNL     1       1.835  -0.488   3.107  0.00  0.00    +0.004 A 
ATOM     16  C   UNL     1       1.895  -1.869   3.158  0.00  0.00    +0.004 A 
ATOM     17  C   UNL     1       1.321  -2.625   2.153  0.00  0.00    -0.037 A 
ATOM     18  C   UNL     1       0.682  -2.003   1.097  0.00  0.00    +0.049 A 
BRANCH  13  20
ATOM     19  C   UNL     1      -0.017   1.425   0.010  0.00  0.00    +0.277 C 
ATOM     20  O   UNL     1       0.002  -0.004   0.002  0.00  0.00    -0.495 OA
ENDBRANCH  13  20
ENDBRANCH   1  17
BRANCH  11  21
ATOM     21  C   UNL     1       3.533  -4.053   1.022  0.00  0.00    +0.091 C 
ATOM     22  N   UNL     1       4.058  -3.650   0.098  0.00  0.00    -0.195 NA
ENDBRANCH  11  21
BRANCH  11  23
ATOM     23  C   UNL     1       2.922  -6.045   2.226  0.00  0.00    +0.091 C 
ATOM     24  N   UNL     1       2.975  -7.180   2.232  0.00  0.00    -0.195 NA
ENDBRANCH  11  23
BRANCH   8  25
ATOM     25  C   UNL     1       3.470  -3.449   5.846  0.00  0.00    +0.076 C 
ATOM     26  N   UNL     1       3.911  -2.775   6.647  0.00  0.00    -0.196 NA
ENDBRANCH   8  25
TORSDOF 5
