REMARK  Name = ZINC39030032
REMARK  6 active torsions:
REMARK  status: ('A' for Active; 'I' for Inactive)
REMARK    1  A    between atoms: C_1  and  C_2
REMARK    2  A    between atoms: C_2  and  C_3
REMARK    3  A    between atoms: C_3  and  O_4
REMARK    4  A    between atoms: O_4  and  C_5
REMARK    5  A    between atoms: C_8  and  C_11
REMARK    6  A    between atoms: N_19  and  C_20
REMARK                            x       y       z     vdW  Elec       q    Type
REMARK                         _______ _______ _______ _____ _____    ______ ____
ROOT
ATOM      1  C   UNL     1      -6.400  -4.588   0.039  0.00  0.00    +0.223 C 
ATOM      2  N   UNL     1      -6.441  -5.639   1.082  0.00  0.00    -0.166 NA
ATOM      3  N   UNL     1      -6.591  -6.789   0.735  0.00  0.00    -0.130 NA
ATOM      4  C   UNL     1      -6.727  -7.201  -0.573  0.00  0.00    +0.185 C 
ATOM      5  N   UNL     1      -6.894  -8.421  -1.050  0.00  0.00    -0.247 N 
ATOM      6  C   UNL     1      -7.008  -8.614  -2.374  0.00  0.00    +0.310 C 
ATOM      7  O   UNL     1      -6.958  -7.665  -3.135  0.00  0.00    -0.252 OA
ATOM      8  N   UNL     1      -7.179  -9.860  -2.861  0.00  0.00    -0.269 N 
ATOM      9  S   UNL     1      -6.621  -5.644  -1.457  0.00  0.00    -0.055 S 
ATOM     10  H   UNL     1      -7.152 -10.622  -2.263  0.00  0.00    +0.156 HD
ATOM     11  H   UNL     1      -6.934  -9.177  -0.444  0.00  0.00    +0.158 HD
ENDROOT
BRANCH   8  12
ATOM     12  C   UNL     1      -7.394 -10.052  -4.230  0.00  0.00    +0.036 A 
ATOM     13  C   UNL     1      -8.244 -11.061  -4.665  0.00  0.00    +0.025 A 
ATOM     14  C   UNL     1      -8.455 -11.249  -6.017  0.00  0.00    +0.023 A 
ATOM     15  C   UNL     1      -7.822 -10.434  -6.938  0.00  0.00    +0.059 A 
ATOM     16  C   UNL     1      -6.974  -9.428  -6.508  0.00  0.00    +0.061 A 
ATOM     17  C   UNL     1      -6.764  -9.231  -5.156  0.00  0.00    +0.044 A 
ATOM     18 CL   UNL     1      -6.180  -8.407  -7.666  0.00  0.00    -0.082 Cl
ATOM     19 CL   UNL     1      -8.089 -10.674  -8.637  0.00  0.00    -0.082 Cl
ENDBRANCH   8  12
BRANCH   1  23
ATOM     20  C   UNL     1      -2.628  -2.580  -0.008  0.00  0.00    +0.121 A 
ATOM     21  C   UNL     1      -3.805  -1.847   0.010  0.00  0.00    +0.046 A 
ATOM     22  C   UNL     1      -5.023  -2.498   0.025  0.00  0.00    +0.010 A 
ATOM     23  C   UNL     1      -5.070  -3.880   0.022  0.00  0.00    -0.011 A 
ATOM     24  C   UNL     1      -3.898  -4.613   0.005  0.00  0.00    +0.010 A 
ATOM     25  C   UNL     1      -2.677  -3.967  -0.016  0.00  0.00    +0.046 A 
BRANCH  20  26
ATOM     26  O   UNL     1      -1.428  -1.942  -0.023  0.00  0.00    -0.492 OA
BRANCH  26  27
ATOM     27  C   UNL     1      -1.453  -0.513  -0.014  0.00  0.00    +0.229 C 
BRANCH  27  29
ATOM     28  C   UNL     1      -0.047   1.552  -0.023  0.00  0.00    +0.007 C 
ATOM     29  C   UNL     1      -0.020   0.022  -0.033  0.00  0.00    +0.038 C 
ENDBRANCH  27  29
ENDBRANCH  26  27
ENDBRANCH  20  26
ENDBRANCH   1  23
TORSDOF 5
