REMARK  Name = ZINC23311057
REMARK  4 active torsions:
REMARK  status: ('A' for Active; 'I' for Inactive)
REMARK    1  A    between atoms: C_1  and  C_2
REMARK    2  A    between atoms: C_2  and  C_3
REMARK    3  A    between atoms: C_5  and  N_14
REMARK    4  A    between atoms: C_19  and  C_23
REMARK                            x       y       z     vdW  Elec       q    Type
REMARK                         _______ _______ _______ _____ _____    ______ ____
ROOT
ATOM      1  C   UNL     1       0.768  -0.307  -1.293  0.00  0.00    +0.022 A 
ATOM      2  C   UNL     1       0.081  -0.432  -2.484  0.00  0.00    +0.065 A 
ATOM      3  C   UNL     1       0.710  -1.075  -3.552  0.00  0.00    +0.127 A 
ATOM      4  N   UNL     1       1.942  -1.544  -3.387  0.00  0.00    -0.201 NA
ATOM      5  C   UNL     1       2.567  -1.404  -2.228  0.00  0.00    +0.197 A 
ATOM      6  N   UNL     1       1.997  -0.794  -1.200  0.00  0.00    -0.331 N 
ATOM      7  N   UNL     1       3.850  -1.904  -2.088  0.00  0.00    -0.301 N 
ATOM      8  C   UNL     1       4.670  -1.834  -0.870  0.00  0.00    +0.108 C 
ATOM      9  C   UNL     1       6.027  -2.494  -1.191  0.00  0.00    +0.020 C 
ATOM     10  C   UNL     1       6.105  -2.393  -2.738  0.00  0.00    +0.020 C 
ATOM     11  C   UNL     1       4.620  -2.600  -3.136  0.00  0.00    +0.108 C 
ATOM     12  H   UNL     1       2.484  -0.705  -0.365  0.00  0.00    +0.168 HD
ENDROOT
BRANCH   3  13
ATOM     13  N   UNL     1       0.058  -1.224  -4.766  0.00  0.00    -0.310 N 
ATOM     14  C   UNL     1       0.781  -1.706  -5.951  0.00  0.00    +0.113 C 
ATOM     15  C   UNL     1       0.230  -3.077  -6.362  0.00  0.00    +0.076 C 
ATOM     16  C   UNL     1      -1.278  -3.018  -6.343  0.00  0.00    +0.069 A 
ATOM     17  C   UNL     1      -2.014  -2.026  -5.673  0.00  0.00    +0.014 A 
ATOM     18  C   UNL     1      -3.322  -2.277  -5.860  0.00  0.00    +0.044 A 
ATOM     19  N   UNL     1      -3.420  -3.387  -6.625  0.00  0.00    -0.281 N 
ATOM     20  N   UNL     1      -2.120  -3.830  -6.913  0.00  0.00    -0.178 NA
ATOM     21  H   UNL     1      -4.244  -3.804  -6.921  0.00  0.00    +0.189 HD
ATOM     22  C   UNL     1      -1.376  -0.906  -4.893  0.00  0.00    +0.145 C 
BRANCH  18  23
ATOM     23  C   UNL     1      -4.470  -1.467  -5.315  0.00  0.00    +0.038 C 
ATOM     24  C   UNL     1      -5.671  -2.320  -4.875  0.00  0.00    +0.010 C 
ATOM     25  C   UNL     1      -6.569  -1.232  -5.489  0.00  0.00    +0.001 C 
ATOM     26  C   UNL     1      -5.384  -0.883  -6.406  0.00  0.00    +0.010 C 
ENDBRANCH  18  23
ENDBRANCH   3  13
BRANCH   1  28
ATOM     27  C   UNL     1       0.342   1.891  -0.228  0.00  0.00    +0.010 C 
ATOM     28  C   UNL     1       0.130   0.381  -0.114  0.00  0.00    +0.050 C 
ENDBRANCH   1  28
TORSDOF 3
