REMARK  Name = ZINC05718762
REMARK  2 active torsions:
REMARK  status: ('A' for Active; 'I' for Inactive)
REMARK    1  A    between atoms: C_1  and  N_2
REMARK    2  A    between atoms: C_5  and  C_10
REMARK                            x       y       z     vdW  Elec       q    Type
REMARK                         _______ _______ _______ _____ _____    ______ ____
ROOT
ATOM      1  C   UNL     1      -0.717  -2.454   1.155  0.00  0.00    +0.139 C 
ATOM      2  N   UNL     1       0.397  -1.710   1.748  0.00  0.00    -0.262 N 
ATOM      3  C   UNL     1       0.767  -0.509   1.202  0.00  0.00    +0.023 C 
ATOM      4  C   UNL     1       1.785   0.203   1.725  0.00  0.00    +0.037 C 
ATOM      5  C   UNL     1       2.553  -0.298   2.921  0.00  0.00    +0.140 C 
ATOM      6  N   UNL     1       2.055  -1.580   3.392  0.00  0.00    -0.288 N 
ATOM      7  C   UNL     1       1.032  -2.219   2.813  0.00  0.00    +0.307 C 
ATOM      8  O   UNL     1       0.668  -3.287   3.264  0.00  0.00    -0.252 OA
ATOM      9  C   UNL     1       2.162   1.442   1.173  0.00  0.00    +0.163 C 
ATOM     10  O   UNL     1       3.095   2.051   1.659  0.00  0.00    -0.292 OA
ATOM     11  C   UNL     1       1.433   2.026  -0.005  0.00  0.00    +0.080 C 
ATOM     12  C   UNL     1      -0.014   1.524   0.005  0.00  0.00    +0.014 C 
ATOM     13  C   UNL     1       0.005  -0.006  -0.001  0.00  0.00    +0.052 C 
ATOM     14  H   UNL     1       2.483  -1.990   4.160  0.00  0.00    +0.151 HD
ENDROOT
BRANCH   5  15
ATOM     15  C   UNL     1       2.437   0.710   4.035  0.00  0.00    -0.023 A 
ATOM     16  C   UNL     1       1.296   0.751   4.814  0.00  0.00    +0.007 A 
ATOM     17  C   UNL     1       1.191   1.672   5.839  0.00  0.00    +0.020 A 
ATOM     18  C   UNL     1       2.224   2.560   6.079  0.00  0.00    +0.041 A 
ATOM     19  C   UNL     1       3.364   2.522   5.296  0.00  0.00    +0.020 A 
ATOM     20  C   UNL     1       3.470   1.597   4.274  0.00  0.00    +0.007 A 
ATOM     21 CL   UNL     1       2.091   3.721   7.363  0.00  0.00    -0.084 Cl
ENDBRANCH   5  15
TORSDOF 1
