REMARK  Name = ZINC36846011
REMARK  4 active torsions:
REMARK  status: ('A' for Active; 'I' for Inactive)
REMARK    1  A    between atoms: C_3  and  N_28
REMARK    2  A    between atoms: C_4  and  N_8
REMARK    3  A    between atoms: C_9  and  C_11
REMARK    4  A    between atoms: C_11  and  N_12
REMARK                            x       y       z     vdW  Elec       q    Type
REMARK                         _______ _______ _______ _____ _____    ______ ____
ROOT
ATOM      1  N   UNL     1       3.596  -0.641  -0.038  0.00  0.00    -0.282 N 
ATOM      2  C   UNL     1       3.605  -1.985  -0.138  0.00  0.00    +0.235 C 
ATOM      3  O   UNL     1       2.566  -2.588  -0.304  0.00  0.00    -0.274 OA
ATOM      4  H   UNL     1       4.433  -0.154   0.017  0.00  0.00    +0.155 HD
ENDROOT
BRANCH   1   8
ATOM      5  C   UNL     1      -0.029   1.421   0.034  0.00  0.00    +0.022 A 
ATOM      6  C   UNL     1       1.069   1.986  -0.586  0.00  0.00    +0.031 A 
ATOM      7  C   UNL     1       2.277   1.306  -0.613  0.00  0.00    +0.088 A 
ATOM      8  C   UNL     1       2.380   0.051  -0.013  0.00  0.00    +0.061 A 
ATOM      9  C   UNL     1       1.274  -0.510   0.608  0.00  0.00    +0.045 A 
ATOM     10  C   UNL     1       0.072   0.176   0.630  0.00  0.00    +0.043 A 
ATOM     11 CL   UNL     1      -1.311  -0.527   1.407  0.00  0.00    -0.083 Cl
BRANCH   7  12
ATOM     12  N   UNL     1       3.393   1.877  -1.243  0.00  0.00    -0.218 N 
ATOM     13  C   UNL     1       3.425   3.032  -1.936  0.00  0.00    +0.225 A 
ATOM     14  N   UNL     1       4.649   3.214  -2.363  0.00  0.00    -0.222 NA
ATOM     15  C   UNL     1       5.421   2.205  -1.965  0.00  0.00    +0.245 A 
ATOM     16  N   UNL     1       4.699   1.363  -1.271  0.00  0.00    -0.153 NA
ENDBRANCH   7  12
ENDBRANCH   1   8
BRANCH   2  17
ATOM     17  C   UNL     1       4.906  -2.740  -0.044  0.00  0.00    +0.212 C 
BRANCH  17  18
ATOM     18  N   UNL     1       4.650  -4.175  -0.182  0.00  0.00    -0.233 N 
ATOM     19  C   UNL     1       4.388  -4.967   0.864  0.00  0.00    +0.227 C 
ATOM     20  O   UNL     1       4.333  -4.604   2.020  0.00  0.00    -0.275 OA
ATOM     21  C   UNL     1       4.172  -6.383   0.383  0.00  0.00    +0.095 C 
ATOM     22  C   UNL     1       5.382  -7.250   0.852  0.00  0.00    +0.025 C 
ATOM     23  C   UNL     1       5.507  -8.246  -0.359  0.00  0.00    +0.016 C 
ATOM     24  C   UNL     1       5.685  -7.090  -1.409  0.00  0.00    +0.025 C 
ATOM     25  C   UNL     1       4.356  -6.269  -1.160  0.00  0.00    +0.095 C 
ATOM     26  C   UNL     1       4.652  -4.800  -1.365  0.00  0.00    +0.227 C 
ATOM     27  O   UNL     1       4.861  -4.271  -2.435  0.00  0.00    -0.275 OA
ATOM     28  C   UNL     1       6.779  -6.270  -0.714  0.00  0.00    -0.027 C 
ATOM     29  C   UNL     1       6.602  -6.354   0.610  0.00  0.00    -0.027 C 
ENDBRANCH  17  18
ENDBRANCH   2  17
TORSDOF 4
