REMARK  Name = ZINC28717895
REMARK  6 active torsions:
REMARK  status: ('A' for Active; 'I' for Inactive)
REMARK    1  A    between atoms: C_1  and  C_2
REMARK    2  A    between atoms: N_4  and  C_5
REMARK    3  A    between atoms: C_5  and  C_13
REMARK    4  A    between atoms: C_6  and  C_7
REMARK    5  A    between atoms: N_15  and  N_16
REMARK    6  A    between atoms: C_17  and  C_19
REMARK                            x       y       z     vdW  Elec       q    Type
REMARK                         _______ _______ _______ _____ _____    ______ ____
ROOT
ATOM      1  C   UNL     1      -4.765  -0.873  -0.456  0.00  0.00    +0.274 C 
ATOM      2  O   UNL     1      -3.845  -0.688   0.318  0.00  0.00    -0.267 OA
ATOM      3  N   UNL     1      -4.663  -0.462  -1.735  0.00  0.00    -0.229 N 
ATOM      4  H   UNL     1      -5.459  -0.702  -2.455  0.00  0.00    +0.173 HD
ENDROOT
BRANCH   3   5
ATOM      5  N   UNL     1      -3.543   0.271  -2.148  0.00  0.00    -0.229 N 
ATOM      6  C   UNL     1      -3.441   0.682  -3.428  0.00  0.00    +0.276 C 
ATOM      7  O   UNL     1      -4.321   0.416  -4.224  0.00  0.00    -0.267 OA
ATOM      8  H   UNL     1      -2.747   0.511  -1.428  0.00  0.00    +0.173 HD
BRANCH   6   9
ATOM      9  C   UNL     1      -2.268   1.449  -3.860  0.00  0.00    +0.104 A 
ATOM     10  C   UNL     1      -2.032   1.931  -5.130  0.00  0.00    +0.047 A 
ATOM     11  C   UNL     1      -0.803   2.599  -5.095  0.00  0.00    +0.036 A 
ATOM     12  C   UNL     1      -0.321   2.516  -3.831  0.00  0.00    +0.098 A 
ATOM     13  N   UNL     1      -1.202   1.819  -3.071  0.00  0.00    -0.356 N 
ATOM     14  H   UNL     1      -1.180   1.537  -2.008  0.00  0.00    +0.166 HD
ATOM     15 BR   UNL     1       0.035   3.465  -6.552  0.00  0.00    -0.049 Br
ENDBRANCH   6   9
ENDBRANCH   3   5
BRANCH   1  16
ATOM     16  C   UNL     1      -5.989  -1.546   0.005  0.00  0.00    +0.098 C 
ATOM     17  C   UNL     1      -7.148  -0.854   0.095  0.00  0.00    +0.036 C 
BRANCH  17  18
ATOM     18  C   UNL     1      -7.151   0.604  -0.101  0.00  0.00    -0.023 A 
ATOM     19  C   UNL     1      -6.034   1.365   0.258  0.00  0.00    +0.008 A 
ATOM     20  C   UNL     1      -6.042   2.730   0.065  0.00  0.00    +0.001 A 
ATOM     21  C   UNL     1      -7.157   3.350  -0.472  0.00  0.00    +0.000 A 
ATOM     22  C   UNL     1      -8.270   2.605  -0.824  0.00  0.00    +0.001 A 
ATOM     23  C   UNL     1      -8.274   1.238  -0.643  0.00  0.00    +0.008 A 
ENDBRANCH  17  18
BRANCH  16  27
ATOM     24  C   UNL     1      -4.824  -5.099   0.431  0.00  0.00    +0.109 C 
ATOM     25  C   UNL     1      -4.830  -3.617   0.156  0.00  0.00    +0.214 C 
ATOM     26  O   UNL     1      -3.823  -3.069  -0.240  0.00  0.00    -0.276 OA
ATOM     27  N   UNL     1      -5.955  -2.901   0.349  0.00  0.00    -0.282 N 
ATOM     28  H   UNL     1      -6.847  -3.382   0.778  0.00  0.00    +0.155 HD
ENDBRANCH  16  27
ENDBRANCH   1  16
TORSDOF 5
