REMARK  Name = ZINC02766483
REMARK  3 active torsions:
REMARK  status: ('A' for Active; 'I' for Inactive)
REMARK    1  A    between atoms: C_3  and  C_6
REMARK    2  A    between atoms: C_9  and  C_19
REMARK    3  A    between atoms: C_13  and  C_16
REMARK                            x       y       z     vdW  Elec       q    Type
REMARK                         _______ _______ _______ _____ _____    ______ ____
ROOT
ATOM      1  C   UNL     1       3.599   0.625  -0.029  0.00  0.00    +0.140 C 
ATOM      2  C   UNL     1       4.122   0.345   1.384  0.00  0.00    +0.066 C 
ATOM      3  C   UNL     1       3.534  -0.972   1.904  0.00  0.00    +0.215 C 
ATOM      4  N   UNL     1       3.723  -2.010   0.886  0.00  0.00    -0.238 N 
ATOM      5  C   UNL     1       3.969  -1.744  -0.420  0.00  0.00    +0.136 A 
ATOM      6  C   UNL     1       4.091  -2.954  -1.077  0.00  0.00    +0.111 A 
ATOM      7  C   UNL     1       3.906  -3.968  -0.104  0.00  0.00    +0.155 A 
ATOM      8  N   UNL     1       3.689  -3.394   1.050  0.00  0.00    -0.176 NA
ATOM      9  N   UNL     1       4.061  -0.453  -0.926  0.00  0.00    -0.318 N 
ATOM     10  H   UNL     1       4.410  -0.269  -1.812  0.00  0.00    +0.148 HD
ENDROOT
BRANCH   1  13
ATOM     11  C   UNL     1      -0.016   1.341   0.009  0.00  0.00    +0.041 A 
ATOM     12  C   UNL     1       1.331   1.769  -0.001  0.00  0.00    +0.046 A 
ATOM     13  C   UNL     1       2.092   0.660  -0.014  0.00  0.00    +0.125 A 
ATOM     14  O   UNL     1       1.282  -0.411  -0.012  0.00  0.00    -0.466 OA
ATOM     15  C   UNL     1       0.002  -0.004   0.002  0.00  0.00    +0.195 A 
ENDBRANCH   1  13
BRANCH   3  16
ATOM     16  C   UNL     1       4.251  -1.379   3.193  0.00  0.00    +0.412 C 
ATOM     17  F   UNL     1       4.079  -0.380   4.158  0.00  0.00    -0.168 F 
ATOM     18  F   UNL     1       3.713  -2.581   3.666  0.00  0.00    -0.168 F 
ATOM     19  F   UNL     1       5.615  -1.548   2.935  0.00  0.00    -0.168 F 
ENDBRANCH   3  16
BRANCH   6  20
ATOM     20  C   UNL     1       4.354  -3.146  -2.471  0.00  0.00    +0.104 C 
ATOM     21  N   UNL     1       4.563  -3.299  -3.577  0.00  0.00    -0.191 NA
ENDBRANCH   6  20
TORSDOF 3
