REMARK  Name = ZINC62222419
REMARK  6 active torsions:
REMARK  status: ('A' for Active; 'I' for Inactive)
REMARK    1  A    between atoms: C_1  and  C_2
REMARK    2  A    between atoms: C_4  and  C_27
REMARK    3  A    between atoms: C_7  and  C_14
REMARK    4  A    between atoms: C_14  and  C_15
REMARK    5  A    between atoms: C_15  and  N_16
REMARK    6  A    between atoms: C_17  and  C_19
REMARK                            x       y       z     vdW  Elec       q    Type
REMARK                         _______ _______ _______ _____ _____    ______ ____
ROOT
ATOM      1  C   UNL     1      -0.018   1.503   0.010  0.00  0.00    +0.044 C 
ATOM      2  C   UNL     1       0.002  -0.004   0.002  0.00  0.00    -0.048 A 
ATOM      3  C   UNL     1       0.006  -0.684  -1.208  0.00  0.00    +0.007 A 
ATOM      4  C   UNL     1       0.024  -2.050  -1.238  0.00  0.00    -0.041 A 
ATOM      5  C   UNL     1       0.040  -2.769  -0.039  0.00  0.00    +0.002 A 
ATOM      6  C   UNL     1       0.060  -4.233  -0.034  0.00  0.00    +0.019 A 
ATOM      7  C   UNL     1       0.075  -4.877   1.159  0.00  0.00    +0.019 A 
ATOM      8  C   UNL     1       0.070  -4.142   2.364  0.00  0.00    +0.252 A 
ATOM      9  O   UNL     1       0.084  -4.740   3.426  0.00  0.00    -0.268 OA
ATOM     10  N   UNL     1       0.052  -2.797   2.370  0.00  0.00    -0.322 N 
ATOM     11  H   UNL     1       0.050  -2.323   3.216  0.00  0.00    +0.169 HD
ATOM     12  C   UNL     1       0.036  -2.083   1.190  0.00  0.00    +0.050 A 
ATOM     13  C   UNL     1       0.023  -0.692   1.196  0.00  0.00    +0.029 A 
ATOM     14  C   UNL     1       0.027  -2.778  -2.558  0.00  0.00    +0.044 C 
ENDROOT
BRANCH   7  15
ATOM     15  C   UNL     1       0.096  -6.383   1.200  0.00  0.00    +0.059 C 
BRANCH  15  16
ATOM     16  C   UNL     1       1.540  -6.870   1.332  0.00  0.00    +0.109 C 
BRANCH  16  17
ATOM     17  N   UNL     1       1.560  -8.335   1.371  0.00  0.00    -0.311 N 
ATOM     18  C   UNL     1       2.733  -8.990   1.484  0.00  0.00    +0.245 C 
ATOM     19  O   UNL     1       3.774  -8.365   1.555  0.00  0.00    -0.270 OA
ATOM     20  H   UNL     1       0.730  -8.833   1.315  0.00  0.00    +0.149 HD
BRANCH  18  21
ATOM     21  C   UNL     1       2.753 -10.464   1.524  0.00  0.00    +0.053 A 
ATOM     22  C   UNL     1       1.544 -11.196   1.437  0.00  0.00    +0.020 A 
ATOM     23  C   UNL     1       1.593 -12.555   1.476  0.00  0.00    +0.071 A 
ATOM     24  C   UNL     1       2.837 -13.201   1.601  0.00  0.00    +0.249 A 
ATOM     25  O   UNL     1       2.885 -14.419   1.637  0.00  0.00    -0.268 OA
ATOM     26  N   UNL     1       3.973 -12.485   1.682  0.00  0.00    -0.328 N 
ATOM     27  H   UNL     1       4.822 -12.945   1.768  0.00  0.00    +0.168 HD
ATOM     28  C   UNL     1       3.950 -11.140   1.640  0.00  0.00    +0.099 A 
ENDBRANCH  18  21
ENDBRANCH  16  17
ENDBRANCH  15  16
ENDBRANCH   7  15
TORSDOF 4
