REMARK  Name = ZINC04720669
REMARK  4 active torsions:
REMARK  status: ('A' for Active; 'I' for Inactive)
REMARK    1  A    between atoms: C_6  and  C_8
REMARK    2  A    between atoms: C_8  and  S_9
REMARK    3  A    between atoms: S_9  and  C_10
REMARK    4  A    between atoms: C_16  and  N_53
REMARK                            x       y       z     vdW  Elec       q    Type
REMARK                         _______ _______ _______ _____ _____    ______ ____
ROOT
ATOM      1  C   UNL     1      -0.013   1.086   0.008  0.00  0.00    +0.089 C 
ATOM      2  C   UNL     1      -0.738   1.584   1.263  0.00  0.00    -0.059 C 
ATOM      3  C   UNL     1      -1.732   3.434   0.044  0.00  0.00    -0.059 C 
ATOM      4  C   UNL     1      -1.043   3.012  -1.258  0.00  0.00    +0.089 C 
ATOM      5  N   UNL     1      -0.732   1.577  -1.178  0.00  0.00    -0.304 N 
ATOM      6  C   UNL     1      -1.095   0.734  -2.164  0.00  0.00    +0.226 C 
ATOM      7  O   UNL     1      -0.829  -0.447  -2.082  0.00  0.00    -0.275 OA
ATOM      8  N   UNL     1      -0.866   3.056   1.184  0.00  0.00    +0.385 N 
ATOM      9  H   UNL     1       0.066   3.464   1.043  0.00  0.00    -0.081 HD
ENDROOT
BRANCH   8  10
ATOM     10  C   UNL     1      -1.434   3.580   2.443  0.00  0.00    -0.065 C 
ATOM     11  C   UNL     1      -1.478   5.108   2.367  0.00  0.00    -0.009 C 
ATOM     12  C   UNL     1      -2.040   5.667   3.676  0.00  0.00    -0.012 C 
ATOM     13  C   UNL     1      -1.143   5.240   4.840  0.00  0.00    +0.007 C 
ATOM     14  C   UNL     1      -1.099   3.712   4.915  0.00  0.00    -0.012 C 
ATOM     15  C   UNL     1      -0.538   3.153   3.607  0.00  0.00    -0.009 C 
ATOM     16  C   UNL     1      -2.514   3.172   5.136  0.00  0.00    +0.007 C 
ATOM     17  C   UNL     1      -3.410   3.599   3.972  0.00  0.00    -0.012 C 
ATOM     18  C   UNL     1      -3.454   5.127   3.896  0.00  0.00    +0.007 C 
ATOM     19  C   UNL     1      -2.848   3.040   2.663  0.00  0.00    -0.009 C 
ENDBRANCH   8  10
BRANCH   6  20
ATOM     20  C   UNL     1      -1.831   1.258  -3.371  0.00  0.00    +0.172 C 
BRANCH  20  21
ATOM     21  S   UNL     1      -2.176  -0.110  -4.510  0.00  0.00    -0.088 S 
BRANCH  21  22
ATOM     22  C   UNL     1      -3.027   0.655  -5.850  0.00  0.00    +0.160 A 
ATOM     23  N   UNL     1      -3.354   1.923  -6.018  0.00  0.00    -0.133 NA
ATOM     24  N   UNL     1      -4.026   2.311  -7.153  0.00  0.00    -0.125 NA
ATOM     25  C   UNL     1      -4.341   1.415  -8.068  0.00  0.00    +0.180 A 
ATOM     26  S   UNL     1      -3.673  -0.075  -7.346  0.00  0.00    -0.025 S 
ATOM     27  N   UNL     1      -5.010   1.587  -9.275  0.00  0.00    -0.336 N 
ATOM     28  H   UNL     1      -5.316   2.468  -9.539  0.00  0.00    +0.144 HD
ATOM     29  H   UNL     1      -5.172   0.824  -9.852  0.00  0.00    +0.144 HD
ENDBRANCH  21  22
ENDBRANCH  20  21
ENDBRANCH   6  20
TORSDOF 4
