REMARK  Name = ZINC09014032
REMARK  9 active torsions:
REMARK  status: ('A' for Active; 'I' for Inactive)
REMARK    1  A    between atoms: C_1  and  C_2
REMARK    2  A    between atoms: C_9  and  N_30
REMARK    3  A    between atoms: C_10  and  C_13
REMARK    4  A    between atoms: N_17  and  C_21
REMARK    5  A    between atoms: C_21  and  C_22
REMARK    6  A    between atoms: C_25  and  O_28
REMARK    7  A    between atoms: O_28  and  C_29
REMARK    8  A    between atoms: N_30  and  C_31
REMARK    9  A    between atoms: C_31  and  C_32
REMARK                            x       y       z     vdW  Elec       q    Type
REMARK                         _______ _______ _______ _____ _____    ______ ____
ROOT
ATOM      1  C   UNL     1      -5.247  -2.537  -1.864  0.00  0.00    +0.047 C 
ATOM      2  C   UNL     1      -5.439  -2.260  -3.333  0.00  0.00    -0.007 A 
ATOM      3  C   UNL     1      -6.308  -3.014  -4.066  0.00  0.00    +0.008 A 
ATOM      4  C   UNL     1      -6.476  -2.744  -5.431  0.00  0.00    +0.019 A 
ATOM      5  C   UNL     1      -5.780  -1.743  -6.015  0.00  0.00    +0.096 A 
ATOM      6  N   UNL     1      -4.909  -0.984  -5.291  0.00  0.00    -0.267 N 
ATOM      7  C   UNL     1      -4.724  -1.223  -3.958  0.00  0.00    +0.145 A 
ATOM      8  N   UNL     1      -3.873  -0.495  -3.234  0.00  0.00    -0.214 NA
ATOM      9  C   UNL     1      -3.178   0.498  -3.770  0.00  0.00    +0.134 A 
ATOM     10  C   UNL     1      -3.328   0.792  -5.146  0.00  0.00    +0.081 A 
ATOM     11  C   UNL     1      -4.230   0.009  -5.905  0.00  0.00    +0.267 A 
ATOM     12  O   UNL     1      -4.391   0.227  -7.094  0.00  0.00    -0.267 OA
ENDROOT
BRANCH  10  13
ATOM     13  C   UNL     1      -2.595   1.842  -5.747  0.00  0.00    +0.037 C 
ATOM     14  C   UNL     1      -2.684   3.109  -5.247  0.00  0.00    +0.077 C 
ATOM     15  C   UNL     1      -1.955   4.278  -5.608  0.00  0.00    +0.259 C 
ATOM     16  O   UNL     1      -1.105   4.242  -6.480  0.00  0.00    -0.269 OA
ATOM     17  N   UNL     1      -2.230   5.404  -4.973  0.00  0.00    -0.251 N 
ATOM     18  C   UNL     1      -3.167   5.442  -4.000  0.00  0.00    +0.121 C 
ATOM     19  S   UNL     1      -3.676   6.773  -3.051  0.00  0.00    -0.027 S 
ATOM     20  S   UNL     1      -3.742   3.751  -3.957  0.00  0.00    -0.061 S 
BRANCH  17  21
ATOM     21  C   UNL     1      -1.502   6.626  -5.323  0.00  0.00    +0.150 C 
BRANCH  21  22
ATOM     22  C   UNL     1      -0.262   6.733  -4.474  0.00  0.00    -0.029 A 
ATOM     23  C   UNL     1      -0.310   7.392  -3.260  0.00  0.00    +0.009 A 
ATOM     24  C   UNL     1       0.824   7.486  -2.478  0.00  0.00    +0.046 A 
ATOM     25  C   UNL     1       2.016   6.929  -2.917  0.00  0.00    +0.120 A 
ATOM     26  C   UNL     1       2.064   6.273  -4.138  0.00  0.00    +0.046 A 
ATOM     27  C   UNL     1       0.925   6.176  -4.914  0.00  0.00    +0.009 A 
BRANCH  25  28
ATOM     28  O   UNL     1       3.135   7.025  -2.151  0.00  0.00    -0.495 OA
ATOM     29  C   UNL     1       3.012   7.714  -0.905  0.00  0.00    +0.277 C 
ENDBRANCH  25  28
ENDBRANCH  21  22
ENDBRANCH  17  21
ENDBRANCH  10  13
BRANCH   9  30
ATOM     30  N   UNL     1      -2.310   1.235  -2.994  0.00  0.00    -0.326 N 
ATOM     31  H   UNL     1      -1.800   1.959  -3.390  0.00  0.00    +0.148 HD
BRANCH  30  32
ATOM     32  C   UNL     1      -2.159   0.926  -1.570  0.00  0.00    +0.134 C 
BRANCH  32  33
ATOM     33  C   UNL     1      -1.144   1.886  -0.945  0.00  0.00    +0.135 C 
ATOM     34  C   UNL     1      -0.970   1.561   0.554  0.00  0.00    +0.035 C 
ATOM     35  C   UNL     1       0.560   1.757   0.760  0.00  0.00    +0.031 C 
ATOM     36  C   UNL     1       1.101   1.278  -0.611  0.00  0.00    +0.160 C 
ATOM     37  O   UNL     1       0.132   1.720  -1.575  0.00  0.00    -0.375 OA
ENDBRANCH  32  33
ENDBRANCH  30  32
ENDBRANCH   9  30
TORSDOF 7
