REMARK  Name = ZINC04697557
REMARK  3 active torsions:
REMARK  status: ('A' for Active; 'I' for Inactive)
REMARK    1  A    between atoms: N_9  and  O_10
REMARK    2  A    between atoms: O_10  and  C_11
REMARK    3  A    between atoms: C_11  and  C_13
REMARK                            x       y       z     vdW  Elec       q    Type
REMARK                         _______ _______ _______ _____ _____    ______ ____
ROOT
ATOM      1  C   UNL     1       0.692  -4.713  -0.034  0.00  0.00    +0.000 A 
ATOM      2  C   UNL     1      -0.693  -4.708  -0.020  0.00  0.00    +0.001 A 
ATOM      3  C   UNL     1      -1.380  -3.514  -0.006  0.00  0.00    +0.012 A 
ATOM      4  C   UNL     1      -0.678  -2.301  -0.005  0.00  0.00    +0.027 A 
ATOM      5  C   UNL     1       0.716  -2.317  -0.018  0.00  0.00    -0.031 A 
ATOM      6  C   UNL     1       1.392  -3.521  -0.033  0.00  0.00    +0.005 A 
ATOM      7  C   UNL     1       1.222  -0.895  -0.021  0.00  0.00    +0.098 C 
ATOM      8  C   UNL     1       0.002  -0.004   0.002  0.00  0.00    +0.132 C 
ATOM      9  N   UNL     1      -0.015   1.290   0.009  0.00  0.00    -0.075 NA
ATOM     10  C   UNL     1      -1.166  -0.907   0.008  0.00  0.00    +0.211 C 
ATOM     11  O   UNL     1      -2.331  -0.562   0.021  0.00  0.00    -0.285 OA
ENDROOT
BRANCH   9  12
ATOM     12  O   UNL     1       1.201   2.014   0.001  0.00  0.00    -0.311 OA
BRANCH  12  13
ATOM     13  C   UNL     1       1.042   3.354   0.010  0.00  0.00    +0.373 C 
ATOM     14  O   UNL     1      -0.076   3.834   0.023  0.00  0.00    -0.242 OA
BRANCH  13  15
ATOM     15  C   UNL     1       2.214   4.230   0.004  0.00  0.00    +0.098 A 
ATOM     16  C   UNL     1       2.270   5.617   0.011  0.00  0.00    +0.023 A 
ATOM     17  C   UNL     1       3.515   6.192   0.002  0.00  0.00    +0.008 A 
ATOM     18  C   UNL     1       4.615   5.393  -0.013  0.00  0.00    +0.046 A 
ATOM     19  S   UNL     1       3.944   3.794  -0.007  0.00  0.00    -0.090 S 
ENDBRANCH  13  15
ENDBRANCH  12  13
ENDBRANCH   9  12
TORSDOF 3
