REMARK  Name = ZINC22851862
REMARK  7 active torsions:
REMARK  status: ('A' for Active; 'I' for Inactive)
REMARK    1  A    between atoms: C_1  and  C_2
REMARK    2  A    between atoms: N_5  and  C_11
REMARK    3  A    between atoms: C_7  and  C_10
REMARK    4  A    between atoms: C_11  and  C_13
REMARK    5  A    between atoms: C_11  and  C_20
REMARK    6  A    between atoms: C_21  and  O_33
REMARK    7  A    between atoms: C_26  and  C_28
REMARK                            x       y       z     vdW  Elec       q    Type
REMARK                         _______ _______ _______ _____ _____    ______ ____
ROOT
ATOM      1  C   UNL     1      -2.767  -2.557   0.049  0.00  0.00    +0.131 C 
ENDROOT
BRANCH   1   5
ATOM      2  C   UNL     1      -0.019   1.526   0.010  0.00  0.00    +0.039 C 
ATOM      3  C   UNL     1       0.002  -0.004   0.002  0.00  0.00    +0.130 C 
ATOM      4  C   UNL     1      -1.434  -0.535   0.018  0.00  0.00    +0.116 C 
ATOM      5  N   UNL     1      -1.407  -2.003   0.088  0.00  0.00    -0.286 NA
ATOM      6  C   UNL     1      -0.689  -2.455   1.289  0.00  0.00    +0.116 C 
ATOM      7  C   UNL     1       0.739  -1.905   1.260  0.00  0.00    +0.130 C 
ATOM      8  O   UNL     1       0.694  -0.479   1.160  0.00  0.00    -0.371 OA
ATOM      9  C   UNL     1       1.483  -2.477   0.051  0.00  0.00    +0.039 C 
ENDBRANCH   1   5
BRANCH   1  10
ATOM     10  C   UNL     1      -2.697  -4.062   0.032  0.00  0.00    +0.076 A 
ATOM     11  C   UNL     1      -3.404  -4.948   0.743  0.00  0.00    +0.228 A 
ATOM     12  N   UNL     1      -3.199  -6.297   0.586  0.00  0.00    -0.173 N 
ATOM     13  C   UNL     1      -2.241  -6.681  -0.312  0.00  0.00    +0.200 A 
ATOM     14  S   UNL     1      -1.641  -5.130  -0.936  0.00  0.00    -0.047 S 
ATOM     15  N   UNL     1      -2.163  -7.982  -0.343  0.00  0.00    -0.197 NA
ATOM     16  C   UNL     1      -3.050  -8.499   0.518  0.00  0.00    +0.218 A 
ATOM     17  N   UNL     1      -3.701  -7.518   1.105  0.00  0.00    -0.138 NA
BRANCH  16  18
ATOM     18  C   UNL     1      -3.262  -9.940   0.769  0.00  0.00    +0.173 A 
ATOM     19  C   UNL     1      -2.595 -10.961   0.169  0.00  0.00    +0.053 A 
ATOM     20  C   UNL     1      -3.115 -12.157   0.704  0.00  0.00    +0.042 A 
ATOM     21  C   UNL     1      -4.064 -11.810   1.595  0.00  0.00    +0.196 A 
ATOM     22  O   UNL     1      -4.147 -10.470   1.635  0.00  0.00    -0.460 OA
ENDBRANCH  16  18
BRANCH  11  23
ATOM     23  O   UNL     1      -4.340  -4.508   1.627  0.00  0.00    -0.492 OA
ATOM     24  H   UNL     1      -4.925  -5.231   2.214  0.00  0.00    +0.294 HD
ENDBRANCH  11  23
ENDBRANCH   1  10
BRANCH   1  25
ATOM     25  C   UNL     1      -3.471  -2.073  -1.193  0.00  0.00    -0.007 A 
ATOM     26  C   UNL     1      -2.736  -1.697  -2.302  0.00  0.00    +0.007 A 
ATOM     27  C   UNL     1      -3.381  -1.254  -3.441  0.00  0.00    +0.000 A 
ATOM     28  C   UNL     1      -4.761  -1.186  -3.473  0.00  0.00    +0.001 A 
ATOM     29  C   UNL     1      -5.497  -1.561  -2.365  0.00  0.00    +0.020 A 
ATOM     30  C   UNL     1      -4.852  -2.011  -1.226  0.00  0.00    +0.046 A 
ATOM     31 CL   UNL     1      -5.776  -2.490   0.163  0.00  0.00    -0.083 Cl
ENDBRANCH   1  25
TORSDOF 5
