REMARK  Name = ZINC12554571
REMARK  7 active torsions:
REMARK  status: ('A' for Active; 'I' for Inactive)
REMARK    1  A    between atoms: C_1  and  C_2
REMARK    2  A    between atoms: C_5  and  N_8
REMARK    3  A    between atoms: N_8  and  C_9
REMARK    4  A    between atoms: C_9  and  C_11
REMARK    5  A    between atoms: C_9  and  C_12
REMARK    6  A    between atoms: C_18  and  C_24
REMARK    7  A    between atoms: C_19  and  C_23
REMARK                            x       y       z     vdW  Elec       q    Type
REMARK                         _______ _______ _______ _____ _____    ______ ____
ROOT
ATOM      1  C   UNL     1       1.137   3.272   0.009  0.00  0.00    +0.131 A 
ATOM      2  N   UNL     1       1.136   1.914   0.002  0.00  0.00    -0.309 N 
ATOM      3  H   UNL     1       1.981   1.438  -0.009  0.00  0.00    +0.170 HD
ATOM      4  C   UNL     1      -0.015   1.215   0.009  0.00  0.00    +0.260 A 
ATOM      5  O   UNL     1       0.002  -0.004   0.002  0.00  0.00    -0.267 OA
ATOM      6  C   UNL     1      -1.259   1.926   0.018  0.00  0.00    +0.075 A 
ATOM      7  C   UNL     1      -2.614   1.409   0.035  0.00  0.00    -0.026 A 
ATOM      8  C   UNL     1      -3.644   2.270   0.050  0.00  0.00    -0.008 A 
ATOM      9  S   UNL     1      -2.848   3.865   0.051  0.00  0.00    -0.073 S 
ATOM     10  C   UNL     1      -1.157   3.329   0.031  0.00  0.00    +0.116 A 
ATOM     11  N   UNL     1       0.019   3.949   0.023  0.00  0.00    -0.225 NA
ATOM     12  C   UNL     1      -5.119   1.962   0.062  0.00  0.00    +0.052 C 
ATOM     13  C   UNL     1      -2.863  -0.078   0.030  0.00  0.00    +0.045 C 
ENDROOT
BRANCH   1  14
ATOM     14  C   UNL     1       2.450   4.011  -0.000  0.00  0.00    +0.133 C 
ATOM     15  C   UNL     1       3.312   3.534   1.170  0.00  0.00    +0.036 C 
BRANCH  14  16
ATOM     16  N   UNL     1       2.201   5.449   0.130  0.00  0.00    -0.334 N 
ATOM     17  H   UNL     1       1.389   5.764   0.556  0.00  0.00    +0.147 HD
BRANCH  16  22
ATOM     18  C   UNL     1       5.992   9.172  -1.850  0.00  0.00    +0.044 C 
ATOM     19  C   UNL     1       4.985   8.183  -1.324  0.00  0.00    -0.050 A 
ATOM     20  C   UNL     1       3.827   8.634  -0.718  0.00  0.00    +0.005 A 
ATOM     21  C   UNL     1       2.901   7.730  -0.235  0.00  0.00    +0.023 A 
ATOM     22  C   UNL     1       3.135   6.366  -0.358  0.00  0.00    +0.028 A 
ATOM     23  C   UNL     1       4.302   5.917  -0.962  0.00  0.00    +0.023 A 
ATOM     24  C   UNL     1       5.221   6.826  -1.448  0.00  0.00    +0.005 A 
ENDBRANCH  16  22
ENDBRANCH  14  16
ENDBRANCH   1  14
TORSDOF 3
