REMARK  Name = ZINC11498482
REMARK  8 active torsions:
REMARK  status: ('A' for Active; 'I' for Inactive)
REMARK    1  A    between atoms: C_1  and  C_2
REMARK    2  A    between atoms: C_2  and  C_4
REMARK    3  A    between atoms: C_2  and  N_11
REMARK    4  A    between atoms: N_11  and  C_12
REMARK    5  A    between atoms: C_13  and  C_15
REMARK    6  A    between atoms: C_15  and  N_58
REMARK    7  A    between atoms: N_19  and  S_22
REMARK    8  A    between atoms: S_22  and  C_25
REMARK                            x       y       z     vdW  Elec       q    Type
REMARK                         _______ _______ _______ _____ _____    ______ ____
ROOT
ATOM      1  C   UNL     1      -0.009   1.595  -0.303  0.00  0.00    -0.077 C 
ATOM      2  C   UNL     1       0.017   0.125  -0.425  0.00  0.00    -0.001 C 
ATOM      3  C   UNL     1       0.622  -0.496   0.859  0.00  0.00    +0.107 C 
ATOM      4  N   UNL     1       2.034  -0.189   0.925  0.00  0.00    -0.178 NA
ATOM      5  C   UNL     1       2.561   1.032   1.569  0.00  0.00    +0.091 C 
ATOM      6  C   UNL     1       1.706   2.267   1.225  0.00  0.00    -0.061 C 
ATOM      7  N   UNL     1       1.328   2.199  -0.179  0.00  0.00    +0.386 N 
ATOM      8  H   UNL     1       2.008   1.615  -0.680  0.00  0.00    -0.081 HD
ENDROOT
BRANCH   4   9
ATOM      9  S   UNL     1       3.108  -1.253   0.249  0.00  0.00    +0.061 S 
ATOM     10  O   UNL     1       4.352  -1.046   0.904  0.00  0.00    -0.153 OA
ATOM     11  O   UNL     1       2.463  -2.519   0.221  0.00  0.00    -0.153 OA
BRANCH   9  12
ATOM     12  C   UNL     1       3.336  -0.767  -1.429  0.00  0.00    +0.106 A 
ATOM     13  C   UNL     1       2.521  -1.289  -2.416  0.00  0.00    +0.031 A 
ATOM     14  C   UNL     1       2.696  -0.905  -3.732  0.00  0.00    +0.040 A 
ATOM     15  C   UNL     1       3.695  -0.006  -4.064  0.00  0.00    +0.124 A 
ATOM     16  C   UNL     1       4.514   0.512  -3.075  0.00  0.00    +0.040 A 
ATOM     17  C   UNL     1       4.334   0.131  -1.759  0.00  0.00    +0.031 A 
ATOM     18  F   UNL     1       3.870   0.367  -5.350  0.00  0.00    -0.205 F 
ENDBRANCH   9  12
ENDBRANCH   4   9
BRANCH   7  19
ATOM     19  C   UNL     1       1.329   3.551  -0.772  0.00  0.00    +0.019 C 
BRANCH  19  22
ATOM     20  N   UNL     1       0.281   5.755  -0.368  0.00  0.00    -0.299 N 
ATOM     21  C   UNL     1       1.010   6.262  -1.533  0.00  0.00    +0.132 C 
ATOM     22  C   UNL     1       0.422   4.468   0.007  0.00  0.00    +0.199 C 
ATOM     23  O   UNL     1      -0.182   4.048   0.971  0.00  0.00    -0.278 OA
BRANCH  20  25
ATOM     24  C   UNL     1      -1.613   7.290  -0.561  0.00  0.00    +0.033 C 
ATOM     25  C   UNL     1      -0.601   6.646   0.389  0.00  0.00    +0.103 C 
BRANCH  25  26
ATOM     26  C   UNL     1       0.220   7.722   1.052  0.00  0.00    -0.027 A 
ATOM     27  C   UNL     1       1.511   7.449   1.465  0.00  0.00    +0.008 A 
ATOM     28  C   UNL     1       2.267   8.437   2.068  0.00  0.00    +0.038 A 
ATOM     29  C   UNL     1       1.727   9.696   2.269  0.00  0.00    +0.123 A 
ATOM     30  C   UNL     1       0.432   9.966   1.859  0.00  0.00    +0.038 A 
ATOM     31  C   UNL     1      -0.320   8.979   1.251  0.00  0.00    +0.008 A 
ATOM     32  F   UNL     1       2.463  10.660   2.864  0.00  0.00    -0.205 F 
ENDBRANCH  25  26
ENDBRANCH  20  25
ENDBRANCH  19  22
ENDBRANCH   7  19
TORSDOF 6
