REMARK  Name = ZINC11638036
REMARK  4 active torsions:
REMARK  status: ('A' for Active; 'I' for Inactive)
REMARK    1  A    between atoms: C_1  and  C_2
REMARK    2  A    between atoms: C_2  and  C_3
REMARK    3  A    between atoms: N_9  and  C_10
REMARK    4  A    between atoms: C_14  and  O_16
REMARK                            x       y       z     vdW  Elec       q    Type
REMARK                         _______ _______ _______ _____ _____    ______ ____
ROOT
ATOM      1  C   UNL     1      -1.119   3.106   0.029  0.00  0.00    +0.140 C 
ATOM      2  C   UNL     1      -1.178   1.587   0.016  0.00  0.00    +0.232 C 
ATOM      3  O   UNL     1      -2.229   0.984   0.018  0.00  0.00    -0.274 OA
ATOM      4  N   UNL     1      -0.011   0.966   0.007  0.00  0.00    -0.264 N 
ATOM      5  C   UNL     1       1.188   1.647  -0.000  0.00  0.00    +0.161 C 
ATOM      6  N   UNL     1       2.402   1.150  -0.015  0.00  0.00    -0.226 NA
ATOM      7  S   UNL     1       0.700   3.365   0.013  0.00  0.00    -0.077 S 
ATOM      8  H   UNL     1       0.002  -0.004   0.002  0.00  0.00    +0.157 HD
ENDROOT
BRANCH   6   9
ATOM      9  C   UNL     1       3.485   1.988  -0.021  0.00  0.00    +0.070 A 
ATOM     10  C   UNL     1       3.509   3.097  -0.870  0.00  0.00    +0.028 A 
ATOM     11  C   UNL     1       4.601   3.939  -0.874  0.00  0.00    +0.006 A 
ATOM     12  C   UNL     1       5.675   3.689  -0.039  0.00  0.00    +0.045 A 
ATOM     13  C   UNL     1       5.661   2.589   0.808  0.00  0.00    +0.119 A 
ATOM     14  C   UNL     1       4.567   1.741   0.825  0.00  0.00    +0.073 A 
BRANCH  13  15
ATOM     15  O   UNL     1       6.720   2.349   1.626  0.00  0.00    -0.507 OA
ATOM     16  H   UNL     1       6.649   2.770   2.494  0.00  0.00    +0.292 HD
ENDBRANCH  13  15
ENDBRANCH   6   9
BRANCH   1  18
ATOM     17  C   UNL     1      -1.634   5.217  -1.204  0.00  0.00    +0.005 C 
ATOM     18  C   UNL     1      -1.773   3.694  -1.222  0.00  0.00    +0.020 C 
ENDBRANCH   1  18
TORSDOF 3
