REMARK  Name = ZINC21536563
REMARK  5 active torsions:
REMARK  status: ('A' for Active; 'I' for Inactive)
REMARK    1  A    between atoms: C_11  and  C_25
REMARK    2  A    between atoms: C_14  and  C_16
REMARK    3  A    between atoms: C_16  and  O_17
REMARK    4  A    between atoms: O_17  and  C_18
REMARK    5  A    between atoms: C_18  and  C_20
REMARK                            x       y       z     vdW  Elec       q    Type
REMARK                         _______ _______ _______ _____ _____    ______ ____
ROOT
ATOM      1  C   UNL     1      -0.013   1.076   0.008  0.00  0.00    +0.002 A 
ATOM      2  C   UNL     1      -1.221   1.748   0.017  0.00  0.00    +0.002 A 
ATOM      3  C   UNL     1      -1.249   3.131   0.020  0.00  0.00    +0.025 A 
ATOM      4  C   UNL     1      -0.062   3.845  -0.002  0.00  0.00    +0.058 A 
ATOM      5  C   UNL     1       1.157   3.166  -0.000  0.00  0.00    +0.055 A 
ATOM      6  C   UNL     1       1.177   1.781   0.000  0.00  0.00    +0.025 A 
ATOM      7  N   UNL     1       2.347   3.902   0.025  0.00  0.00    -0.284 N 
ATOM      8  C   UNL     1       2.540   4.924  -0.837  0.00  0.00    +0.219 C 
ATOM      9  O   UNL     1       3.540   5.605  -0.750  0.00  0.00    -0.275 OA
ATOM     10  C   UNL     1       1.521   5.225  -1.904  0.00  0.00    +0.128 C 
ATOM     11  C   UNL     1       0.303   5.916  -1.289  0.00  0.00    +0.194 C 
ATOM     12  N   UNL     1      -0.072   5.245  -0.043  0.00  0.00    -0.255 N 
ATOM     13  C   UNL     1      -0.420   5.961   1.044  0.00  0.00    +0.258 C 
ATOM     14  O   UNL     1      -0.425   7.173   0.996  0.00  0.00    -0.271 OA
ATOM     15  H   UNL     1       3.134   3.649   0.751  0.00  0.00    +0.155 HD
ENDROOT
BRANCH  11  16
ATOM     16  C   UNL     1      -0.868   5.851  -2.272  0.00  0.00    +0.409 C 
ATOM     17  F   UNL     1      -1.176   4.513  -2.542  0.00  0.00    -0.169 F 
ATOM     18  F   UNL     1      -1.984   6.481  -1.710  0.00  0.00    -0.169 F 
ATOM     19  F   UNL     1      -0.515   6.498  -3.461  0.00  0.00    -0.169 F 
ENDBRANCH  11  16
BRANCH  13  20
ATOM     20  C   UNL     1      -0.803   5.256   2.320  0.00  0.00    +0.328 C 
BRANCH  20  21
ATOM     21  O   UNL     1      -1.134   6.240   3.336  0.00  0.00    -0.452 OA
BRANCH  21  22
ATOM     22  C   UNL     1      -1.501   5.771   4.545  0.00  0.00    +0.343 C 
ATOM     23  O   UNL     1      -1.543   4.573   4.745  0.00  0.00    -0.245 OA
BRANCH  22  24
ATOM     24  C   UNL     1      -1.850   6.710   5.624  0.00  0.00    +0.097 A 
ATOM     25  C   UNL     1      -2.268   6.375   6.993  0.00  0.00    +0.056 A 
ATOM     26  C   UNL     1      -2.478   7.547   7.611  0.00  0.00    +0.195 A 
ATOM     27  O   UNL     1      -2.229   8.548   6.753  0.00  0.00    -0.470 OA
ATOM     28  C   UNL     1      -1.847   8.073   5.564  0.00  0.00    +0.209 A 
ENDBRANCH  22  24
ENDBRANCH  21  22
ENDBRANCH  20  21
ENDBRANCH  13  20
TORSDOF 5
