REMARK  Name = ZINC15382336
REMARK  4 active torsions:
REMARK  status: ('A' for Active; 'I' for Inactive)
REMARK    1  A    between atoms: C_4  and  N_23
REMARK    2  A    between atoms: C_5  and  N_7
REMARK    3  A    between atoms: C_13  and  C_15
REMARK    4  A    between atoms: C_15  and  C_16
REMARK                            x       y       z     vdW  Elec       q    Type
REMARK                         _______ _______ _______ _____ _____    ______ ____
ROOT
ATOM      1  N   UNL     1       3.397   3.212   0.981  0.00  0.00    -0.325 N 
ATOM      2  C   UNL     1       3.228   1.769   1.202  0.00  0.00    +0.124 C 
ATOM      3  C   UNL     1       2.366   1.181   0.080  0.00  0.00    +0.126 C 
ATOM      4  N   UNL     1       1.114   1.949   0.002  0.00  0.00    -0.298 N 
ATOM      5  C   UNL     1       1.201   3.414  -0.089  0.00  0.00    +0.126 C 
ATOM      6  C   UNL     1       2.108   3.914   1.046  0.00  0.00    +0.124 C 
ATOM      7  C   UNL     1      -0.081   1.325   0.008  0.00  0.00    +0.220 C 
ATOM      8  O   UNL     1      -0.134   0.116   0.078  0.00  0.00    -0.275 OA
ENDROOT
BRANCH   1  13
ATOM      9  C   UNL     1       4.926   4.289   4.144  0.00  0.00    +0.002 A 
ATOM     10  C   UNL     1       6.116   4.828   3.688  0.00  0.00    +0.002 A 
ATOM     11  C   UNL     1       6.404   4.831   2.336  0.00  0.00    +0.034 A 
ATOM     12  C   UNL     1       5.505   4.295   1.435  0.00  0.00    +0.147 A 
ATOM     13  C   UNL     1       4.309   3.754   1.889  0.00  0.00    +0.060 A 
ATOM     14  C   UNL     1       4.020   3.758   3.248  0.00  0.00    +0.025 A 
BRANCH  12  15
ATOM     15  N   UNL     1       5.814   4.299  -0.012  0.00  0.00    +0.058 N 
ATOM     16  O   UNL     1       6.902   4.684  -0.401  0.00  0.00    -0.126 OA
ATOM     17  O   UNL     1       4.980   3.918  -0.814  0.00  0.00    -0.126 OA
ENDBRANCH  12  15
ENDBRANCH   1  13
BRANCH   7  18
ATOM     18  C   UNL     1      -1.352   2.131  -0.079  0.00  0.00    +0.131 C 
BRANCH  18  19
ATOM     19  C   UNL     1      -2.538   1.202  -0.061  0.00  0.00    -0.039 A 
ATOM     20  C   UNL     1      -3.049   0.710  -1.247  0.00  0.00    +0.005 A 
ATOM     21  C   UNL     1      -4.134  -0.146  -1.230  0.00  0.00    +0.015 A 
ATOM     22  C   UNL     1      -4.715  -0.502  -0.026  0.00  0.00    +0.018 A 
ATOM     23  C   UNL     1      -4.207  -0.004   1.160  0.00  0.00    +0.015 A 
ATOM     24  C   UNL     1      -3.119   0.847   1.143  0.00  0.00    +0.005 A 
ATOM     25 BR   UNL     1      -6.204  -1.668  -0.003  0.00  0.00    -0.050 Br
ENDBRANCH  18  19
ENDBRANCH   7  18
TORSDOF 4
