REMARK  Name = ZINC19624398
REMARK  2 active torsions:
REMARK  status: ('A' for Active; 'I' for Inactive)
REMARK    1  A    between atoms: C_1  and  C_2
REMARK    2  A    between atoms: C_11  and  C_13
REMARK                            x       y       z     vdW  Elec       q    Type
REMARK                         _______ _______ _______ _____ _____    ______ ____
ROOT
ATOM      1  C   UNL     1      -2.864   1.576  -2.391  0.00  0.00    +0.024 C 
ATOM      2  C   UNL     1      -2.178   1.316  -1.048  0.00  0.00    +0.057 C 
ATOM      3  C   UNL     1      -2.788   2.228   0.018  0.00  0.00    +0.074 C 
ATOM      4  C   UNL     1      -1.960   2.093   1.295  0.00  0.00    +0.058 A 
ATOM      5  C   UNL     1      -0.724   1.573   1.228  0.00  0.00    +0.028 A 
ATOM      6  S   UNL     1      -0.160   1.611   2.908  0.00  0.00    -0.051 S 
ATOM      7  C   UNL     1      -1.624   2.329   3.616  0.00  0.00    +0.196 A 
ATOM      8  N   UNL     1      -2.435   2.488   2.534  0.00  0.00    -0.210 N 
ATOM      9  N   UNL     1      -3.615   3.063   3.071  0.00  0.00    -0.149 NA
ATOM     10  C   UNL     1      -3.443   3.201   4.359  0.00  0.00    +0.156 A 
ATOM     11  N   UNL     1      -2.233   2.754   4.689  0.00  0.00    -0.205 NA
ATOM     12  C   UNL     1      -0.013   1.086   0.008  0.00  0.00    +0.125 C 
ATOM     13  N   UNL     1      -0.738   1.580  -1.178  0.00  0.00    -0.309 NA
ATOM     14  H   UNL     1      -0.350   1.070  -2.072  0.00  0.00    +0.123 HD
ENDROOT
BRANCH  10  15
ATOM     15  C   UNL     1      -4.454   3.773   5.318  0.00  0.00    +0.059 C 
ATOM     16  C   UNL     1      -3.865   5.008   6.004  0.00  0.00    +0.011 C 
ATOM     17  C   UNL     1      -4.891   5.589   6.978  0.00  0.00    +0.001 C 
ATOM     18  C   UNL     1      -5.244   4.539   8.034  0.00  0.00    +0.000 C 
ATOM     19  C   UNL     1      -5.833   3.304   7.348  0.00  0.00    +0.001 C 
ATOM     20  C   UNL     1      -4.807   2.723   6.374  0.00  0.00    +0.011 C 
ENDBRANCH  10  15
TORSDOF 1
