REMARK  Name = ZINC53474769
REMARK  8 active torsions:
REMARK  status: ('A' for Active; 'I' for Inactive)
REMARK    1  A    between atoms: C_1  and  C_2
REMARK    2  A    between atoms: C_2  and  C_3
REMARK    3  A    between atoms: C_2  and  C_4
REMARK    4  A    between atoms: C_2  and  C_5
REMARK    5  A    between atoms: C_5  and  C_6
REMARK    6  A    between atoms: N_8  and  C_9
REMARK    7  A    between atoms: C_9  and  C_10
REMARK    8  A    between atoms: N_12  and  C_13
REMARK                            x       y       z     vdW  Elec       q    Type
REMARK                         _______ _______ _______ _____ _____    ______ ____
ROOT
ATOM      1  C   UNL     1       5.037  -0.266  -3.536  0.00  0.00    +0.234 C 
ATOM      2  O   UNL     1       4.447  -0.962  -4.336  0.00  0.00    -0.274 OA
ATOM      3  N   UNL     1       6.320   0.081  -3.762  0.00  0.00    -0.283 N 
ATOM      4  H   UNL     1       6.767   0.701  -3.165  0.00  0.00    +0.155 HD
ENDROOT
BRANCH   3   5
ATOM      5  C   UNL     1       7.008  -0.455  -4.859  0.00  0.00    +0.056 A 
ATOM      6  C   UNL     1       6.613  -1.673  -5.398  0.00  0.00    +0.072 A 
ATOM      7  C   UNL     1       7.293  -2.199  -6.481  0.00  0.00    +0.144 A 
ATOM      8  C   UNL     1       8.374  -1.507  -7.027  0.00  0.00    +0.077 A 
ATOM      9  C   UNL     1       8.766  -0.293  -6.488  0.00  0.00    +0.048 A 
ATOM     10  C   UNL     1       8.081   0.235  -5.409  0.00  0.00    +0.064 A 
ATOM     11 CL   UNL     1       8.567   1.760  -4.736  0.00  0.00    -0.082 Cl
ATOM     12  N   UNL     1       9.054  -2.056  -8.126  0.00  0.00    -0.280 N 
ATOM     13  C   UNL     1       8.474  -3.058  -8.821  0.00  0.00    +0.255 C 
ATOM     14  O   UNL     1       9.056  -3.568  -9.755  0.00  0.00    -0.272 OA
ATOM     15  C   UNL     1       7.099  -3.540  -8.432  0.00  0.00    +0.325 C 
ATOM     16  O   UNL     1       6.919  -3.389  -7.021  0.00  0.00    -0.481 OA
ATOM     17  H   UNL     1       9.928  -1.721  -8.381  0.00  0.00    +0.155 HD
ENDBRANCH   3   5
BRANCH   1  18
ATOM     18  C   UNL     1       4.336   0.210  -2.291  0.00  0.00    +0.200 C 
BRANCH  18  21
ATOM     19  C   UNL     1       2.141   0.003  -1.254  0.00  0.00    +0.214 C 
ATOM     20  O   UNL     1       2.539   0.694  -0.340  0.00  0.00    -0.276 OA
ATOM     21  N   UNL     1       2.962  -0.298  -2.279  0.00  0.00    -0.307 N 
ATOM     22  H   UNL     1       2.643  -0.851  -3.010  0.00  0.00    +0.149 HD
BRANCH  19  23
ATOM     23  C   UNL     1       0.727  -0.520  -1.242  0.00  0.00    +0.102 C 
BRANCH  23  25
ATOM     24  C   UNL     1      -0.007   1.494   0.043  0.00  0.00    +0.011 C 
ATOM     25  C   UNL     1       0.015  -0.036   0.023  0.00  0.00    -0.029 C 
ATOM     26  C   UNL     1       0.760  -0.551   1.256  0.00  0.00    +0.011 C 
ATOM     27  C   UNL     1      -1.420  -0.567   0.035  0.00  0.00    +0.011 C 
ENDBRANCH  23  25
ENDBRANCH  19  23
ENDBRANCH  18  21
ENDBRANCH   1  18
TORSDOF 5
