REMARK  Name = ZINC09345514
REMARK  6 active torsions:
REMARK  status: ('A' for Active; 'I' for Inactive)
REMARK    1  A    between atoms: C_1  and  O_2
REMARK    2  A    between atoms: O_2  and  C_3
REMARK    3  A    between atoms: C_6  and  C_11
REMARK    4  A    between atoms: C_8  and  O_9
REMARK    5  A    between atoms: O_9  and  C_10
REMARK    6  A    between atoms: C_22  and  C_24
REMARK                            x       y       z     vdW  Elec       q    Type
REMARK                         _______ _______ _______ _____ _____    ______ ____
ROOT
ATOM      1  C   UNL     1      -4.987  -2.627   0.035  0.00  0.00    +0.159 C 
ATOM      2  C   UNL     1      -5.475  -2.694   1.465  0.00  0.00    +0.027 C 
ATOM      3  C   UNL     1      -6.662  -2.125   1.758  0.00  0.00    +0.083 C 
ATOM      4  C   UNL     1      -7.124  -2.190   3.168  0.00  0.00    +0.042 A 
ATOM      5  C   UNL     1      -8.443  -1.929   3.511  0.00  0.00    +0.013 A 
ATOM      6  C   UNL     1      -8.831  -2.003   4.836  0.00  0.00    +0.001 A 
ATOM      7  C   UNL     1      -7.909  -2.336   5.814  0.00  0.00    +0.004 A 
ATOM      8  C   UNL     1      -6.593  -2.597   5.479  0.00  0.00    +0.046 A 
ATOM      9  C   UNL     1      -6.191  -2.525   4.157  0.00  0.00    +0.131 A 
ATOM     10  O   UNL     1      -4.904  -2.769   3.802  0.00  0.00    -0.479 OA
ATOM     11  C   UNL     1      -4.673  -3.381   2.531  0.00  0.00    +0.234 C 
ATOM     12  N   UNL     1      -7.409  -1.513   0.806  0.00  0.00    -0.213 NA
ATOM     13  C   UNL     1      -7.061  -1.411  -0.455  0.00  0.00    +0.237 C 
ATOM     14  N   UNL     1      -5.872  -1.936  -0.910  0.00  0.00    -0.208 N 
ATOM     15  N   UNL     1      -5.809  -1.652  -2.276  0.00  0.00    -0.251 N 
ATOM     16  C   UNL     1      -6.951  -0.976  -2.583  0.00  0.00    +0.203 C 
ATOM     17  N   UNL     1      -7.675  -0.844  -1.517  0.00  0.00    -0.205 NA
ATOM     18  H   UNL     1      -5.093  -1.890  -2.886  0.00  0.00    +0.171 HD
ENDROOT
BRANCH  11  19
ATOM     19  C   UNL     1      -5.071  -4.833   2.598  0.00  0.00    -0.000 A 
ATOM     20  C   UNL     1      -6.224  -5.203   3.265  0.00  0.00    +0.008 A 
ATOM     21  C   UNL     1      -6.591  -6.534   3.327  0.00  0.00    +0.003 A 
ATOM     22  C   UNL     1      -5.806  -7.497   2.722  0.00  0.00    +0.038 A 
ATOM     23  C   UNL     1      -4.651  -7.127   2.054  0.00  0.00    +0.124 A 
ATOM     24  C   UNL     1      -4.287  -5.793   1.987  0.00  0.00    +0.046 A 
ATOM     25  F   UNL     1      -3.882  -8.068   1.462  0.00  0.00    -0.205 F 
ENDBRANCH  11  19
BRANCH   1  29
ATOM     26  C   UNL     1      -1.201  -0.638   0.010  0.00  0.00    +0.162 A 
ATOM     27  C   UNL     1      -2.374   0.099   0.019  0.00  0.00    +0.050 A 
ATOM     28  C   UNL     1      -3.596  -0.546   0.027  0.00  0.00    +0.009 A 
ATOM     29  C   UNL     1      -3.652  -1.928   0.026  0.00  0.00    -0.017 A 
ATOM     30  C   UNL     1      -2.485  -2.669   0.017  0.00  0.00    +0.055 A 
ATOM     31  C   UNL     1      -1.257  -2.028   0.003  0.00  0.00    +0.162 A 
BRANCH  26  33
ATOM     32  C   UNL     1      -0.017   1.425   0.010  0.00  0.00    +0.277 C 
ATOM     33  O   UNL     1       0.002  -0.004   0.002  0.00  0.00    -0.491 OA
ENDBRANCH  26  33
BRANCH  31  34
ATOM     34  O   UNL     1      -0.108  -2.756  -0.012  0.00  0.00    -0.491 OA
ATOM     35  C   UNL     1      -0.242  -4.179  -0.018  0.00  0.00    +0.277 C 
ENDBRANCH  31  34
ENDBRANCH   1  29
TORSDOF 4
