REMARK  Name = ZINC15733204
REMARK  6 active torsions:
REMARK  status: ('A' for Active; 'I' for Inactive)
REMARK    1  A    between atoms: C_1  and  C_2
REMARK    2  A    between atoms: C_5  and  O_24
REMARK    3  A    between atoms: C_6  and  N_8
REMARK    4  A    between atoms: N_8  and  C_9
REMARK    5  A    between atoms: C_10  and  C_12
REMARK    6  A    between atoms: O_24  and  C_25
REMARK                            x       y       z     vdW  Elec       q    Type
REMARK                         _______ _______ _______ _____ _____    ______ ____
ROOT
ATOM      1  N   UNL     1      -2.079   2.340   3.425  0.00  0.00    -0.266 N 
ATOM      2  C   UNL     1      -1.369   1.753   4.564  0.00  0.00    +0.139 C 
ATOM      3  C   UNL     1      -2.154   3.679   3.295  0.00  0.00    +0.273 C 
ATOM      4  O   UNL     1      -1.555   4.399   4.069  0.00  0.00    -0.268 OA
ENDROOT
BRANCH   3   5
ATOM      5  C   UNL     1      -2.967   4.274   2.207  0.00  0.00    +0.172 A 
ATOM      6  C   UNL     1      -3.067   5.634   1.875  0.00  0.00    +0.032 A 
ATOM      7  C   UNL     1      -3.918   5.644   0.792  0.00  0.00    +0.172 A 
ATOM      8  O   UNL     1      -4.282   4.393   0.570  0.00  0.00    -0.354 OA
ATOM      9  N   UNL     1      -3.738   3.632   1.351  0.00  0.00    -0.073 NA
ATOM     10  C   UNL     1      -4.215   6.933   0.117  0.00  0.00    +0.030 A 
ATOM     11  C   UNL     1      -5.204   7.188  -0.833  0.00  0.00    +0.019 A 
ATOM     12  C   UNL     1      -5.325   8.447  -1.311  0.00  0.00    +0.046 A 
ATOM     13  S   UNL     1      -4.036   9.316  -0.434  0.00  0.00    -0.101 S 
ATOM     14  C   UNL     1      -3.417   8.003   0.484  0.00  0.00    +0.001 A 
ATOM     15  C   UNL     1      -2.274   7.958   1.443  0.00  0.00    +0.048 C 
ATOM     16  C   UNL     1      -2.472   6.860   2.495  0.00  0.00    +0.046 C 
ENDBRANCH   3   5
BRANCH   1  22
ATOM     17  C   UNL     1      -6.018  -0.162   1.873  0.00  0.00    +0.044 C 
ATOM     18  C   UNL     1      -4.588   0.281   1.694  0.00  0.00    -0.048 A 
ATOM     19  C   UNL     1      -3.869  -0.140   0.590  0.00  0.00    +0.007 A 
ATOM     20  C   UNL     1      -2.558   0.262   0.419  0.00  0.00    +0.048 A 
ATOM     21  C   UNL     1      -1.959   1.089   1.356  0.00  0.00    +0.141 A 
ATOM     22  C   UNL     1      -2.681   1.509   2.472  0.00  0.00    +0.078 A 
ATOM     23  C   UNL     1      -3.999   1.106   2.632  0.00  0.00    +0.030 A 
BRANCH  21  24
ATOM     24  O   UNL     1      -0.669   1.485   1.190  0.00  0.00    -0.493 OA
ATOM     25  C   UNL     1       0.010   1.011   0.026  0.00  0.00    +0.277 C 
ENDBRANCH  21  24
ENDBRANCH   1  22
TORSDOF 3
