REMARK  Name = ZINC46088882
REMARK  1 active torsions:
REMARK  status: ('A' for Active; 'I' for Inactive)
REMARK    1  A    between atoms: N_13  and  C_16
REMARK                            x       y       z     vdW  Elec       q    Type
REMARK                         _______ _______ _______ _____ _____    ______ ____
ROOT
ATOM      1  C   UNL     1      -0.016   1.317   0.009  0.00  0.00    +0.129 A 
ATOM      2  C   UNL     1       1.202   2.006   0.001  0.00  0.00    +0.078 A 
ATOM      3  C   UNL     1       2.386   1.258  -0.014  0.00  0.00    +0.076 A 
ATOM      4  N   UNL     1       2.323  -0.055  -0.021  0.00  0.00    -0.217 NA
ATOM      5  C   UNL     1       1.147  -0.674  -0.014  0.00  0.00    +0.218 A 
ATOM      6  N   UNL     1       0.002  -0.004   0.002  0.00  0.00    -0.222 NA
ATOM      7  N   UNL     1       1.117  -2.053  -0.022  0.00  0.00    -0.300 N 
ATOM      8  C   UNL     1       2.292  -2.936  -0.032  0.00  0.00    +0.108 C 
ATOM      9  C   UNL     1       1.773  -4.389  -0.065  0.00  0.00    +0.020 C 
ATOM     10  C   UNL     1       0.342  -4.234  -0.643  0.00  0.00    +0.020 C 
ATOM     11  C   UNL     1      -0.100  -2.885  -0.016  0.00  0.00    +0.108 C 
ATOM     12  C   UNL     1       3.515   2.255  -0.019  0.00  0.00    +0.164 C 
ATOM     13  N   UNL     1       2.890   3.583  -0.006  0.00  0.00    -0.289 N 
ATOM     14  C   UNL     1       1.554   3.433   0.006  0.00  0.00    +0.250 C 
ATOM     15  O   UNL     1       0.752   4.346   0.018  0.00  0.00    -0.270 OA
ENDROOT
BRANCH  13  16
ATOM     16  C   UNL     1       3.604   4.862  -0.006  0.00  0.00    +0.077 C 
ATOM     17  C   UNL     1       3.235   5.652   1.251  0.00  0.00    +0.022 C 
ATOM     18  C   UNL     1       3.981   6.988   1.252  0.00  0.00    +0.002 C 
ATOM     19  C   UNL     1       3.588   7.792   0.011  0.00  0.00    +0.000 C 
ATOM     20  C   UNL     1       3.958   7.002  -1.247  0.00  0.00    +0.002 C 
ATOM     21  C   UNL     1       3.212   5.666  -1.247  0.00  0.00    +0.022 C 
ENDBRANCH  13  16
TORSDOF 1
