REMARK  Name = ZINC00795130
REMARK  5 active torsions:
REMARK  status: ('A' for Active; 'I' for Inactive)
REMARK    1  A    between atoms: C_1  and  N_2
REMARK    2  A    between atoms: C_3  and  N_11
REMARK    3  A    between atoms: N_7  and  C_10
REMARK    4  A    between atoms: N_11  and  C_12
REMARK    5  A    between atoms: N_17  and  C_20
REMARK                            x       y       z     vdW  Elec       q    Type
REMARK                         _______ _______ _______ _____ _____    ______ ____
ROOT
ATOM      1  C   UNL     1      -2.394   1.407  -0.406  0.00  0.00    +0.167 C 
ATOM      2  C   UNL     1      -3.776   1.863  -0.916  0.00  0.00    +0.128 C 
ATOM      3  C   UNL     1      -4.259   2.806   0.165  0.00  0.00    +0.229 C 
ATOM      4  O   UNL     1      -5.319   3.395   0.160  0.00  0.00    -0.275 OA
ATOM      5  N   UNL     1      -3.332   2.885   1.127  0.00  0.00    -0.207 N 
ATOM      6  C   UNL     1      -2.237   2.140   0.909  0.00  0.00    +0.247 C 
ATOM      7  O   UNL     1      -1.278   2.063   1.646  0.00  0.00    -0.273 OA
ENDROOT
BRANCH   5   8
ATOM      8  C   UNL     1      -3.490   3.684   2.269  0.00  0.00    +0.062 A 
ATOM      9  C   UNL     1      -4.079   3.156   3.410  0.00  0.00    +0.027 A 
ATOM     10  C   UNL     1      -4.233   3.944   4.534  0.00  0.00    +0.022 A 
ATOM     11  C   UNL     1      -3.801   5.259   4.524  0.00  0.00    +0.042 A 
ATOM     12  C   UNL     1      -3.214   5.788   3.388  0.00  0.00    +0.042 A 
ATOM     13  C   UNL     1      -3.053   5.002   2.262  0.00  0.00    +0.064 A 
ATOM     14 CL   UNL     1      -2.310   5.664   0.840  0.00  0.00    -0.082 Cl
ATOM     15 CL   UNL     1      -3.997   6.247   5.938  0.00  0.00    -0.083 Cl
ENDBRANCH   5   8
BRANCH   1  16
ATOM     16  N   UNL     1      -2.375  -0.042  -0.194  0.00  0.00    -0.319 N 
ATOM     17  H   UNL     1      -3.206  -0.523  -0.058  0.00  0.00    +0.148 HD
BRANCH  16  20
ATOM     18  C   UNL     1      -2.424  -2.831  -0.007  0.00  0.00    +0.155 C 
ATOM     19  N   UNL     1      -1.164  -2.090  -0.097  0.00  0.00    -0.285 N 
ATOM     20  C   UNL     1      -1.182  -0.719  -0.187  0.00  0.00    +0.108 A 
ATOM     21  C   UNL     1      -0.001  -0.036  -0.270  0.00  0.00    +0.112 A 
ATOM     22  C   UNL     1       1.205  -0.755  -0.261  0.00  0.00    +0.258 A 
ATOM     23  O   UNL     1       2.270  -0.166  -0.334  0.00  0.00    -0.267 OA
ATOM     24  N   UNL     1       1.177  -2.099  -0.172  0.00  0.00    -0.264 N 
ATOM     25  C   UNL     1       0.006  -2.755  -0.085  0.00  0.00    +0.333 A 
ATOM     26  O   UNL     1       0.004  -3.968   0.001  0.00  0.00    -0.246 OA
ATOM     27  C   UNL     1       2.434  -2.852  -0.163  0.00  0.00    +0.157 C 
ENDBRANCH  16  20
ENDBRANCH   1  16
TORSDOF 3
