REMARK  Name = ZINC39543038
REMARK  9 active torsions:
REMARK  status: ('A' for Active; 'I' for Inactive)
REMARK    1  A    between atoms: C_1  and  C_2
REMARK    2  A    between atoms: C_5  and  C_30
REMARK    3  A    between atoms: C_6  and  C_8
REMARK    4  A    between atoms: C_12  and  C_14
REMARK    5  A    between atoms: C_14  and  N_15
REMARK    6  A    between atoms: N_18  and  C_25
REMARK    7  A    between atoms: C_19  and  C_22
REMARK    8  A    between atoms: C_22  and  C_23
REMARK    9  A    between atoms: C_23  and  O_24
REMARK                            x       y       z     vdW  Elec       q    Type
REMARK                         _______ _______ _______ _____ _____    ______ ____
ROOT
ATOM      1  N   UNL     1      -0.983  -0.604   5.321  0.00  0.00    -0.305 NA
ATOM      2  C   UNL     1      -0.911  -1.748   6.240  0.00  0.00    +0.066 C 
ATOM      3  C   UNL     1      -0.723  -1.238   7.671  0.00  0.00    -0.062 C 
ATOM      4  N   UNL     1      -1.850  -0.368   8.032  0.00  0.00    +0.385 N 
ATOM      5  C   UNL     1      -1.895   0.783   7.121  0.00  0.00    -0.052 C 
ATOM      6  C   UNL     1      -2.092   0.290   5.686  0.00  0.00    +0.069 C 
ATOM      7  H   UNL     1      -2.712  -0.887   7.961  0.00  0.00    -0.081 HD
ENDROOT
BRANCH   4   8
ATOM      8  C   UNL     1      -1.679   0.107   9.412  0.00  0.00    -0.068 C 
ATOM      9  C   UNL     1      -0.353   0.885   9.542  0.00  0.00    -0.015 C 
ATOM     10  C   UNL     1       0.177   0.500  10.946  0.00  0.00    -0.002 C 
ATOM     11  C   UNL     1      -0.201  -0.998  11.055  0.00  0.00    -0.002 C 
ATOM     12  C   UNL     1      -1.582  -1.090  10.373  0.00  0.00    -0.015 C 
ENDBRANCH   4   8
BRANCH   1  13
ATOM     13  C   UNL     1      -1.107  -1.054   3.928  0.00  0.00    +0.099 C 
BRANCH  13  18
ATOM     14  C   UNL     1      -0.885  -0.332   1.540  0.00  0.00    +0.080 C 
ATOM     15  N   UNL     1       0.300  -0.283   0.998  0.00  0.00    -0.153 NA
ATOM     16  N   UNL     1       1.278   0.108   1.906  0.00  0.00    -0.161 NA
ATOM     17  C   UNL     1       0.796   0.335   3.085  0.00  0.00    +0.118 C 
ATOM     18  C   UNL     1      -0.694   0.079   2.987  0.00  0.00    +0.097 C 
BRANCH  14  24
ATOM     19  C   UNL     1      -5.814  -1.051   1.761  0.00  0.00    +0.044 C 
ATOM     20  C   UNL     1      -4.524  -1.052   0.983  0.00  0.00    -0.050 A 
ATOM     21  C   UNL     1      -4.525  -1.404  -0.356  0.00  0.00    +0.003 A 
ATOM     22  C   UNL     1      -3.345  -1.408  -1.079  0.00  0.00    +0.004 A 
ATOM     23  C   UNL     1      -2.158  -1.061  -0.470  0.00  0.00    -0.042 A 
ATOM     24  C   UNL     1      -2.148  -0.703   0.882  0.00  0.00    +0.002 A 
ATOM     25  C   UNL     1      -3.346  -0.696   1.605  0.00  0.00    +0.013 A 
ATOM     26  C   UNL     1      -0.874  -1.067  -1.258  0.00  0.00    +0.044 C 
ENDBRANCH  14  24
ENDBRANCH  13  18
ENDBRANCH   1  13
BRANCH   5  27
ATOM     27  C   UNL     1      -3.058   1.698   7.510  0.00  0.00    +0.014 C 
BRANCH  27  28
ATOM     28  C   UNL     1      -3.057   2.935   6.611  0.00  0.00    +0.154 C 
BRANCH  28  29
ATOM     29  O   UNL     1      -4.065   3.846   7.053  0.00  0.00    -0.395 OA
ATOM     30  H   UNL     1      -4.121   4.656   6.527  0.00  0.00    +0.209 HD
ENDBRANCH  28  29
ENDBRANCH  27  28
ENDBRANCH   5  27
TORSDOF 7
