REMARK  Name = ZINC39663735
REMARK  10 active torsions:
REMARK  status: ('A' for Active; 'I' for Inactive)
REMARK    1  A    between atoms: C_1  and  N_2
REMARK    2  A    between atoms: N_2  and  C_3
REMARK    3  A    between atoms: N_2  and  C_4
REMARK    4  A    between atoms: C_4  and  C_6
REMARK    5  A    between atoms: C_4  and  C_31
REMARK    6  A    between atoms: C_6  and  N_7
REMARK    7  A    between atoms: C_8  and  C_10
REMARK    8  A    between atoms: C_21  and  C_23
REMARK    9  A    between atoms: C_34  and  O_37
REMARK   10  A    between atoms: O_37  and  C_38
REMARK                            x       y       z     vdW  Elec       q    Type
REMARK                         _______ _______ _______ _____ _____    ______ ____
ROOT
ATOM      1  C   UNL     1      -2.957   3.491  -2.602  0.00  0.00    +0.100 C 
ATOM      2  C   UNL     1      -3.269   4.486  -1.462  0.00  0.00    +0.121 C 
ATOM      3  N   UNL     1      -3.954   5.618  -2.130  0.00  0.00    -0.296 N 
ATOM      4  C   UNL     1      -4.829   4.975  -3.140  0.00  0.00    +0.115 C 
ATOM      5  C   UNL     1      -3.983   3.815  -3.701  0.00  0.00    -0.004 C 
ATOM      6  C   UNL     1      -4.868   2.601  -3.972  0.00  0.00    -0.010 C 
ATOM      7  C   UNL     1      -5.841   2.928  -5.109  0.00  0.00    -0.082 C 
ATOM      8  N   UNL     1      -5.085   3.287  -6.315  0.00  0.00    +0.379 N 
ATOM      9  C   UNL     1      -4.309   4.510  -6.073  0.00  0.00    -0.082 C 
ATOM     10  C   UNL     1      -3.271   4.250  -4.978  0.00  0.00    -0.010 C 
ATOM     11  C   UNL     1      -3.813   6.934  -1.877  0.00  0.00    +0.247 C 
ATOM     12  O   UNL     1      -2.974   7.314  -1.084  0.00  0.00    -0.270 OA
ATOM     13  H   UNL     1      -4.458   2.534  -6.554  0.00  0.00    -0.086 HD
ATOM     14  H   UNL     1      -5.726   3.443  -7.078  0.00  0.00    -0.086 HD
ENDROOT
BRANCH  11  15
ATOM     15  C   UNL     1      -4.680   7.916  -2.564  0.00  0.00    +0.040 A 
ATOM     16  C   UNL     1      -5.902   7.514  -3.106  0.00  0.00    +0.033 A 
ATOM     17  C   UNL     1      -6.706   8.435  -3.746  0.00  0.00    +0.043 A 
ATOM     18  C   UNL     1      -6.303   9.756  -3.852  0.00  0.00    +0.040 A 
ATOM     19  C   UNL     1      -5.092  10.160  -3.317  0.00  0.00    +0.043 A 
ATOM     20  C   UNL     1      -4.281   9.249  -2.669  0.00  0.00    +0.033 A 
ATOM     21 CL   UNL     1      -4.594  11.818  -3.455  0.00  0.00    -0.083 Cl
ATOM     22 CL   UNL     1      -8.226   7.937  -4.420  0.00  0.00    -0.083 Cl
ENDBRANCH  11  15
BRANCH   1  24
ATOM     23  N   UNL     1      -2.407   1.081  -2.678  0.00  0.00    -0.316 N 
ATOM     24  C   UNL     1      -3.131   2.073  -2.123  0.00  0.00    +0.218 C 
ATOM     25  O   UNL     1      -3.923   1.824  -1.239  0.00  0.00    -0.275 OA
ATOM     26  H   UNL     1      -1.774   1.279  -3.385  0.00  0.00    +0.149 HD
BRANCH  23  27
ATOM     27  C   UNL     1      -2.576  -0.298  -2.212  0.00  0.00    +0.093 C 
BRANCH  27  28
ATOM     28  C   UNL     1      -1.721  -1.234  -3.068  0.00  0.00    -0.021 C 
BRANCH  28  29
ATOM     29  C   UNL     1      -0.270  -0.848  -2.938  0.00  0.00    -0.059 A 
ATOM     30  C   UNL     1       0.457  -1.257  -1.835  0.00  0.00    +0.005 A 
ATOM     31  C   UNL     1       1.787  -0.904  -1.714  0.00  0.00    +0.046 A 
ATOM     32  C   UNL     1       2.394  -0.140  -2.700  0.00  0.00    +0.120 A 
ATOM     33  C   UNL     1       1.663   0.269  -3.805  0.00  0.00    +0.046 A 
ATOM     34  C   UNL     1       0.334  -0.091  -3.925  0.00  0.00    +0.005 A 
BRANCH  32  35
ATOM     35  O   UNL     1       3.702   0.209  -2.582  0.00  0.00    -0.495 OA
ATOM     36  C   UNL     1       4.261   0.997  -3.635  0.00  0.00    +0.277 C 
ENDBRANCH  32  35
ENDBRANCH  28  29
BRANCH  28  38
ATOM     37  C   UNL     1      -3.321  -2.986  -2.712  0.00  0.00    -0.096 C 
ATOM     38  N   UNL     1      -1.902  -2.618  -2.611  0.00  0.00    +0.382 N 
ATOM     39  C   UNL     1      -1.102  -3.520  -3.450  0.00  0.00    -0.096 C 
ATOM     40  H   UNL     1      -1.602  -2.698  -1.651  0.00  0.00    -0.082 HD
ENDBRANCH  28  38
ENDBRANCH  27  28
ENDBRANCH  23  27
ENDBRANCH   1  24
TORSDOF 7
