REMARK  Name = ZINC11917896
REMARK  4 active torsions:
REMARK  status: ('A' for Active; 'I' for Inactive)
REMARK    1  A    between atoms: C_1  and  C_2
REMARK    2  A    between atoms: C_5  and  C_9
REMARK    3  A    between atoms: C_6  and  C_8
REMARK    4  A    between atoms: N_11  and  C_12
REMARK                            x       y       z     vdW  Elec       q    Type
REMARK                         _______ _______ _______ _____ _____    ______ ____
ROOT
ATOM      1  C   UNL     1       2.925   2.510   0.553  0.00  0.00    +0.037 A 
ATOM      2  C   UNL     1       3.328   1.191   0.715  0.00  0.00    +0.027 A 
ATOM      3  C   UNL     1       4.673   0.872   0.725  0.00  0.00    +0.051 A 
ATOM      4  C   UNL     1       5.621   1.867   0.572  0.00  0.00    +0.167 A 
ATOM      5  C   UNL     1       5.221   3.194   0.409  0.00  0.00    +0.169 A 
ATOM      6  C   UNL     1       3.875   3.511   0.394  0.00  0.00    +0.073 A 
ATOM      7  O   UNL     1       6.343   3.970   0.281  0.00  0.00    -0.447 OA
ATOM      8  C   UNL     1       7.381   3.170   0.865  0.00  0.00    +0.254 C 
ATOM      9  O   UNL     1       6.992   1.827   0.545  0.00  0.00    -0.448 OA
ATOM     10  C   UNL     1       8.750   3.510   0.265  0.00  0.00    +0.093 C 
ATOM     11  C   UNL     1       9.395   4.451   1.316  0.00  0.00    +0.008 C 
ATOM     12  C   UNL     1       8.916   3.846   2.661  0.00  0.00    +0.008 C 
ATOM     13  C   UNL     1       7.470   3.383   2.376  0.00  0.00    +0.093 C 
ENDROOT
BRANCH   1  16
ATOM     14  C   UNL     1       1.142   4.002   1.059  0.00  0.00    +0.249 C 
ATOM     15  O   UNL     1       1.932   4.740   1.616  0.00  0.00    -0.270 OA
ATOM     16  N   UNL     1       1.562   2.830   0.544  0.00  0.00    -0.281 N 
ATOM     17  H   UNL     1       0.921   2.208   0.167  0.00  0.00    +0.155 HD
BRANCH  14  22
ATOM     18  C   UNL     1      -4.397   5.506   0.646  0.00  0.00    +0.044 C 
ATOM     19  C   UNL     1      -2.946   5.112   0.754  0.00  0.00    -0.050 A 
ATOM     20  C   UNL     1      -2.490   3.978   0.105  0.00  0.00    +0.004 A 
ATOM     21  C   UNL     1      -1.164   3.612   0.200  0.00  0.00    +0.013 A 
ATOM     22  C   UNL     1      -0.281   4.389   0.953  0.00  0.00    +0.040 A 
ATOM     23  C   UNL     1      -0.749   5.528   1.609  0.00  0.00    -0.038 A 
ATOM     24  C   UNL     1      -2.077   5.886   1.502  0.00  0.00    +0.007 A 
ATOM     25  C   UNL     1       0.196   6.369   2.429  0.00  0.00    +0.044 C 
ENDBRANCH  14  22
ENDBRANCH   1  16
TORSDOF 2
