REMARK  Name = ZINC66118763
REMARK  9 active torsions:
REMARK  status: ('A' for Active; 'I' for Inactive)
REMARK    1  A    between atoms: C_1  and  C_2
REMARK    2  A    between atoms: C_2  and  C_3
REMARK    3  A    between atoms: C_2  and  C_4
REMARK    4  A    between atoms: C_4  and  C_5
REMARK    5  A    between atoms: C_5  and  O_6
REMARK    6  A    between atoms: O_6  and  C_7
REMARK    7  A    between atoms: C_16  and  C_17
REMARK    8  A    between atoms: N_28  and  C_29
REMARK    9  A    between atoms: C_29  and  C_30
REMARK                            x       y       z     vdW  Elec       q    Type
REMARK                         _______ _______ _______ _____ _____    ______ ____
ROOT
ATOM      1  C   UNL     1      -6.272  -1.211  -0.652  0.00  0.00    +0.197 C 
ATOM      2  N   UNL     1      -6.805  -0.132   0.187  0.00  0.00    -0.321 N 
ATOM      3  C   UNL     1      -5.911   0.661   0.898  0.00  0.00    +0.041 A 
ATOM      4  C   UNL     1      -6.185   1.983   1.202  0.00  0.00    +0.024 A 
ATOM      5  C   UNL     1      -5.259   2.728   1.907  0.00  0.00    +0.002 A 
ATOM      6  C   UNL     1      -4.061   2.162   2.313  0.00  0.00    +0.001 A 
ATOM      7  C   UNL     1      -3.773   0.845   2.019  0.00  0.00    +0.015 A 
ATOM      8  C   UNL     1      -4.697   0.082   1.310  0.00  0.00    +0.058 A 
ATOM      9  C   UNL     1      -4.444  -1.331   0.976  0.00  0.00    +0.250 C 
ATOM     10  O   UNL     1      -3.539  -1.938   1.516  0.00  0.00    -0.270 OA
ATOM     11  N   UNL     1      -5.228  -1.941   0.068  0.00  0.00    -0.267 N 
ATOM     12  H   UNL     1      -7.761   0.025   0.245  0.00  0.00    +0.148 HD
ENDROOT
BRANCH   1  22
ATOM     13  C   UNL     1      -4.341  -0.442  -2.026  0.00  0.00    +0.128 A 
ATOM     14  C   UNL     1      -3.786   0.098  -3.191  0.00  0.00    +0.046 A 
ATOM     15  C   UNL     1      -4.574   0.461  -4.238  0.00  0.00    +0.012 A 
ATOM     16  C   UNL     1      -5.968   0.293  -4.152  0.00  0.00    -0.017 A 
ATOM     17  C   UNL     1      -6.812   0.658  -5.215  0.00  0.00    +0.008 A 
ATOM     18  C   UNL     1      -8.156   0.481  -5.099  0.00  0.00    +0.001 A 
ATOM     19  C   UNL     1      -8.712  -0.056  -3.940  0.00  0.00    +0.001 A 
ATOM     20  C   UNL     1      -7.926  -0.421  -2.890  0.00  0.00    +0.009 A 
ATOM     21  C   UNL     1      -6.533  -0.253  -2.973  0.00  0.00    -0.008 A 
ATOM     22  C   UNL     1      -5.690  -0.623  -1.912  0.00  0.00    +0.040 A 
BRANCH  13  23
ATOM     23  O   UNL     1      -3.528  -0.795  -0.997  0.00  0.00    -0.492 OA
BRANCH  23  24
ATOM     24  C   UNL     1      -2.135  -0.515  -1.146  0.00  0.00    +0.229 C 
BRANCH  24  25
ATOM     25  C   UNL     1      -1.395  -0.910   0.134  0.00  0.00    +0.044 C 
BRANCH  25  27
ATOM     26  C   UNL     1       0.231   0.975  -0.078  0.00  0.00    +0.007 C 
ATOM     27  C   UNL     1       0.085  -0.546   0.002  0.00  0.00    -0.014 C 
ATOM     28  C   UNL     1       0.850  -1.069   1.219  0.00  0.00    +0.007 C 
ENDBRANCH  25  27
ENDBRANCH  24  25
ENDBRANCH  23  24
ENDBRANCH  13  23
ENDBRANCH   1  22
BRANCH  11  29
ATOM     29  C   UNL     1      -5.029  -3.367  -0.204  0.00  0.00    +0.184 C 
BRANCH  29  30
ATOM     30  C   UNL     1      -3.997  -3.531  -1.290  0.00  0.00    +0.122 A 
ATOM     31  C   UNL     1      -2.689  -3.780  -1.100  0.00  0.00    +0.046 A 
ATOM     32  C   UNL     1      -2.097  -3.857  -2.382  0.00  0.00    +0.041 A 
ATOM     33  C   UNL     1      -3.079  -3.652  -3.278  0.00  0.00    +0.195 A 
ATOM     34  O   UNL     1      -4.229  -3.461  -2.611  0.00  0.00    -0.466 OA
ENDBRANCH  29  30
ENDBRANCH  11  29
TORSDOF 7
