REMARK  Name = ZINC14598308
REMARK  4 active torsions:
REMARK  status: ('A' for Active; 'I' for Inactive)
REMARK    1  A    between atoms: C_1  and  C_2
REMARK    2  A    between atoms: C_5  and  S_22
REMARK    3  A    between atoms: C_7  and  C_8
REMARK    4  A    between atoms: S_22  and  N_25
REMARK                            x       y       z     vdW  Elec       q    Type
REMARK                         _______ _______ _______ _____ _____    ______ ____
ROOT
ATOM      1  C   UNL     1      -1.347   2.046  -0.003  0.00  0.00    +0.044 C 
ATOM      2  C   UNL     1       0.001   1.371   0.012  0.00  0.00    -0.038 A 
ATOM      3  C   UNL     1       0.084  -0.006   0.016  0.00  0.00    +0.006 A 
ATOM      4  C   UNL     1       1.320  -0.627   0.024  0.00  0.00    +0.029 A 
ATOM      5  C   UNL     1       2.480   0.127   0.028  0.00  0.00    +0.106 A 
ATOM      6  C   UNL     1       2.411   1.504   0.023  0.00  0.00    +0.041 A 
ATOM      7  C   UNL     1       1.167   2.138   0.015  0.00  0.00    +0.042 A 
ENDROOT
BRANCH   7   8
ATOM      8  C   UNL     1       1.085   3.614   0.012  0.00  0.00    +0.247 C 
ATOM      9  O   UNL     1       0.456   4.185  -0.857  0.00  0.00    -0.270 OA
ATOM     10  N   UNL     1       1.708   4.326   0.972  0.00  0.00    -0.294 N 
ATOM     11  C   UNL     1       2.549   3.662   1.979  0.00  0.00    +0.108 C 
ATOM     12  C   UNL     1       2.087   4.073   3.375  0.00  0.00    +0.019 C 
ATOM     13  C   UNL     1       2.056   5.601   3.481  0.00  0.00    +0.007 C 
ATOM     14  C   UNL     1       1.075   6.155   2.449  0.00  0.00    +0.010 C 
ATOM     15  C   UNL     1       1.561   5.783   1.044  0.00  0.00    +0.079 C 
ATOM     16  C   UNL     1       0.540   6.272   0.017  0.00  0.00    +0.023 C 
ATOM     17  C   UNL     1       0.419   7.795   0.119  0.00  0.00    +0.002 C 
ATOM     18  C   UNL     1      -0.031   8.188   1.526  0.00  0.00    +0.000 C 
ATOM     19  C   UNL     1       0.979   7.676   2.558  0.00  0.00    +0.005 C 
ENDBRANCH   7   8
BRANCH   5  20
ATOM     20  S   UNL     1       4.049  -0.674   0.038  0.00  0.00    +0.061 S 
ATOM     21  O   UNL     1       4.975   0.252   0.591  0.00  0.00    -0.153 OA
ATOM     22  O   UNL     1       3.842  -1.967   0.591  0.00  0.00    -0.153 OA
BRANCH  20  23
ATOM     23  N   UNL     1       4.494  -0.901  -1.542  0.00  0.00    -0.177 NA
ATOM     24  C   UNL     1       4.125  -2.132  -2.253  0.00  0.00    +0.109 C 
ATOM     25  C   UNL     1       3.401  -1.747  -3.553  0.00  0.00    +0.017 C 
ATOM     26  C   UNL     1       4.287  -0.796  -4.360  0.00  0.00    +0.003 C 
ATOM     27  C   UNL     1       4.537   0.480  -3.553  0.00  0.00    +0.017 C 
ATOM     28  C   UNL     1       5.269   0.122  -2.255  0.00  0.00    +0.109 C 
ENDBRANCH  20  23
ENDBRANCH   5  20
TORSDOF 3
