REMARK  Name = ZINC01109944
REMARK  4 active torsions:
REMARK  status: ('A' for Active; 'I' for Inactive)
REMARK    1  A    between atoms: C_4  and  C_7
REMARK    2  A    between atoms: C_13  and  C_15
REMARK    3  A    between atoms: C_15  and  S_16
REMARK    4  A    between atoms: S_16  and  C_17
REMARK                            x       y       z     vdW  Elec       q    Type
REMARK                         _______ _______ _______ _____ _____    ______ ____
ROOT
ATOM      1  C   UNL     1       0.436  -2.890  -0.017  0.00  0.00    +0.175 C 
ENDROOT
BRANCH   1   7
ATOM      2  C   UNL     1       2.271   0.523  -0.017  0.00  0.00    +0.136 C 
ATOM      3  C   UNL     1       1.401   1.796  -0.002  0.00  0.00    +0.078 C 
ATOM      4  C   UNL     1      -0.015   1.266   0.009  0.00  0.00    +0.105 C 
ATOM      5  N   UNL     1       0.002  -0.004   0.002  0.00  0.00    -0.189 NA
ATOM      6  N   UNL     1       1.278  -0.564  -0.013  0.00  0.00    -0.185 N 
ATOM      7  C   UNL     1       1.557  -1.883  -0.023  0.00  0.00    +0.246 C 
ATOM      8  O   UNL     1       2.710  -2.259  -0.036  0.00  0.00    -0.273 OA
BRANCH   2  12
ATOM      9  C   UNL     1       4.726   0.334   3.474  0.00  0.00    +0.000 A 
ATOM     10  C   UNL     1       5.282   0.678   2.256  0.00  0.00    +0.000 A 
ATOM     11  C   UNL     1       4.487   0.739   1.126  0.00  0.00    +0.005 A 
ATOM     12  C   UNL     1       3.137   0.456   1.214  0.00  0.00    -0.025 A 
ATOM     13  C   UNL     1       2.580   0.117   2.433  0.00  0.00    +0.005 A 
ATOM     14  C   UNL     1       3.376   0.051   3.562  0.00  0.00    +0.000 A 
ENDBRANCH   2  12
ENDBRANCH   1   7
BRANCH   1  15
ATOM     15  S   UNL     1       1.129  -4.566  -0.033  0.00  0.00    -0.076 S 
BRANCH  15  16
ATOM     16  C   UNL     1      -0.288  -5.614  -0.024  0.00  0.00    +0.197 A 
ATOM     17  N   UNL     1      -1.532  -5.212  -0.010  0.00  0.00    -0.121 NA
ATOM     18  N   UNL     1      -2.354  -6.348  -0.008  0.00  0.00    -0.121 NA
ATOM     19  C   UNL     1      -1.580  -7.391  -0.020  0.00  0.00    +0.202 A 
ATOM     20  N   UNL     1      -0.268  -7.000  -0.037  0.00  0.00    -0.264 N 
ATOM     21  C   UNL     1       0.719  -7.998  -0.046  0.00  0.00    +0.065 A 
ATOM     22  C   UNL     1       2.108  -7.799  -0.059  0.00  0.00    +0.027 A 
ATOM     23  C   UNL     1       2.973  -8.868  -0.072  0.00  0.00    +0.002 A 
ATOM     24  C   UNL     1       2.503 -10.171  -0.075  0.00  0.00    +0.001 A 
ATOM     25  C   UNL     1       1.137 -10.395  -0.063  0.00  0.00    +0.017 A 
ATOM     26  C   UNL     1       0.274  -9.324  -0.049  0.00  0.00    +0.040 A 
ATOM     27  S   UNL     1      -1.495  -9.166  -0.030  0.00  0.00    -0.048 S 
ENDBRANCH  15  16
ENDBRANCH   1  15
TORSDOF 4
