REMARK  Name = ZINC67189452
REMARK  5 active torsions:
REMARK  status: ('A' for Active; 'I' for Inactive)
REMARK    1  A    between atoms: C_1  and  N_2
REMARK    2  A    between atoms: N_2  and  C_3
REMARK    3  A    between atoms: N_2  and  C_11
REMARK    4  A    between atoms: C_3  and  C_4
REMARK    5  A    between atoms: C_11  and  N_12
REMARK                            x       y       z     vdW  Elec       q    Type
REMARK                         _______ _______ _______ _____ _____    ______ ____
ROOT
ATOM      1  N   UNL     1      -1.811  -0.521  -1.476  0.00  0.00    -0.211 N 
ATOM      2  C   UNL     1      -2.458   0.518  -2.043  0.00  0.00    +0.248 C 
ATOM      3  O   UNL     1      -2.766   1.567  -1.518  0.00  0.00    -0.273 OA
ATOM      4  C   UNL     1      -2.719   0.099  -3.471  0.00  0.00    +0.117 C 
ATOM      5  C   UNL     1      -2.022   1.048  -4.443  0.00  0.00    +0.040 C 
ATOM      6  C   UNL     1      -2.077   0.436  -5.842  0.00  0.00    +0.038 C 
ATOM      7  C   UNL     1      -3.482   0.015  -6.184  0.00  0.00    -0.044 A 
ATOM      8  C   UNL     1      -3.783  -0.197  -7.524  0.00  0.00    +0.004 A 
ATOM      9  C   UNL     1      -5.049  -0.589  -7.905  0.00  0.00    +0.000 A 
ATOM     10  C   UNL     1      -6.029  -0.774  -6.947  0.00  0.00    +0.000 A 
ATOM     11  C   UNL     1      -5.733  -0.561  -5.616  0.00  0.00    +0.004 A 
ATOM     12  C   UNL     1      -4.460  -0.163  -5.231  0.00  0.00    -0.042 A 
ATOM     13  C   UNL     1      -4.211   0.068  -3.762  0.00  0.00    +0.070 C 
ATOM     14  N   UNL     1      -2.140  -1.247  -3.561  0.00  0.00    -0.285 N 
ATOM     15  C   UNL     1      -1.627  -1.522  -2.346  0.00  0.00    +0.310 C 
ATOM     16  O   UNL     1      -1.063  -2.563  -2.070  0.00  0.00    -0.252 OA
ATOM     17  H   UNL     1      -2.127  -1.823  -4.342  0.00  0.00    +0.151 HD
ENDROOT
BRANCH   1  18
ATOM     18  C   UNL     1      -1.360  -0.549  -0.083  0.00  0.00    +0.205 C 
BRANCH  18  20
ATOM     19  C   UNL     1      -0.018   1.465   0.010  0.00  0.00    +0.106 C 
ATOM     20  N   UNL     1       0.002  -0.004   0.002  0.00  0.00    -0.285 NA
BRANCH  20  21
ATOM     21  C   UNL     1       0.706  -0.527   1.180  0.00  0.00    +0.120 C 
BRANCH  21  22
ATOM     22  C   UNL     1       2.163  -0.149   1.104  0.00  0.00    -0.033 A 
ATOM     23  C   UNL     1       3.063  -0.988   0.474  0.00  0.00    +0.006 A 
ATOM     24  C   UNL     1       4.399  -0.641   0.404  0.00  0.00    +0.020 A 
ATOM     25  C   UNL     1       4.836   0.546   0.965  0.00  0.00    +0.041 A 
ATOM     26  C   UNL     1       3.934   1.385   1.595  0.00  0.00    +0.020 A 
ATOM     27  C   UNL     1       2.598   1.040   1.660  0.00  0.00    +0.006 A 
ATOM     28 CL   UNL     1       6.514   0.982   0.878  0.00  0.00    -0.084 Cl
ENDBRANCH  21  22
ENDBRANCH  20  21
ENDBRANCH  18  20
ENDBRANCH   1  18
TORSDOF 4
