REMARK  Name = ZINC58175754
REMARK  6 active torsions:
REMARK  status: ('A' for Active; 'I' for Inactive)
REMARK    1  A    between atoms: C_1  and  C_2
REMARK    2  A    between atoms: C_5  and  C_24
REMARK    3  A    between atoms: C_6  and  N_8
REMARK    4  A    between atoms: C_9  and  C_11
REMARK    5  A    between atoms: C_12  and  C_13
REMARK    6  A    between atoms: N_22  and  C_23
REMARK                            x       y       z     vdW  Elec       q    Type
REMARK                         _______ _______ _______ _____ _____    ______ ____
ROOT
ATOM      1  C   UNL     1       0.275  -2.877   4.814  0.00  0.00    +0.068 C 
ATOM      2  C   UNL     1       0.373  -2.213   5.986  0.00  0.00    +0.013 C 
ENDROOT
BRANCH   2   3
ATOM      3  C   UNL     1       0.500  -2.959   7.245  0.00  0.00    -0.025 A 
ATOM      4  C   UNL     1       0.525  -4.359   7.231  0.00  0.00    +0.010 A 
ATOM      5  C   UNL     1       0.642  -5.048   8.404  0.00  0.00    +0.024 A 
ATOM      6  C   UNL     1       0.738  -4.366   9.616  0.00  0.00    +0.033 A 
ATOM      7  C   UNL     1       0.718  -2.976   9.642  0.00  0.00    -0.026 A 
ATOM      8  C   UNL     1       0.603  -2.274   8.460  0.00  0.00    +0.013 A 
ATOM      9  C   UNL     1       0.830  -2.211  10.934  0.00  0.00    +0.038 C 
ATOM     10  C   UNL     1       0.454  -3.102  12.117  0.00  0.00    +0.024 C 
ATOM     11  C   UNL     1       1.254  -4.408  12.028  0.00  0.00    +0.105 C 
ATOM     12  N   UNL     1       0.852  -5.099  10.796  0.00  0.00    -0.333 N 
ATOM     13  C   UNL     1       0.573  -6.537  10.808  0.00  0.00    +0.129 C 
ENDBRANCH   2   3
BRANCH   1  15
ATOM     14  N   UNL     1       0.050  -2.797   2.392  0.00  0.00    -0.282 N 
ATOM     15  C   UNL     1       0.148  -2.134   3.561  0.00  0.00    +0.241 C 
ATOM     16  O   UNL     1       0.132  -0.917   3.574  0.00  0.00    -0.270 OA
ATOM     17  H   UNL     1      -0.018  -3.764   2.387  0.00  0.00    +0.155 HD
BRANCH  14  23
ATOM     18  C   UNL     1       1.261   1.228  -0.158  0.00  0.00    +0.044 C 
ATOM     19  C   UNL     1       0.625  -0.136  -0.079  0.00  0.00    -0.049 A 
ATOM     20  C   UNL     1       0.036  -0.690  -1.201  0.00  0.00    +0.004 A 
ATOM     21  C   UNL     1      -0.548  -1.941  -1.133  0.00  0.00    +0.005 A 
ATOM     22  C   UNL     1      -0.545  -2.643   0.057  0.00  0.00    -0.029 A 
ATOM     23  C   UNL     1       0.045  -2.090   1.186  0.00  0.00    +0.037 A 
ATOM     24  C   UNL     1       0.637  -0.835   1.112  0.00  0.00    +0.027 A 
ATOM     25  C   UNL     1      -1.183  -4.006   0.130  0.00  0.00    +0.045 C 
ENDBRANCH  14  23
ENDBRANCH   1  15
TORSDOF 3
