REMARK  Name = ZINC35099356
REMARK  10 active torsions:
REMARK  status: ('A' for Active; 'I' for Inactive)
REMARK    1  A    between atoms: C_1  and  O_2
REMARK    2  A    between atoms: O_2  and  C_3
REMARK    3  A    between atoms: C_6  and  C_9
REMARK    4  A    between atoms: C_9  and  O_33
REMARK    5  A    between atoms: C_10  and  C_27
REMARK    6  A    between atoms: C_12  and  C_18
REMARK    7  A    between atoms: C_21  and  O_26
REMARK    8  A    between atoms: C_22  and  O_24
REMARK    9  A    between atoms: O_24  and  C_25
REMARK   10  A    between atoms: C_27  and  C_29
REMARK                            x       y       z     vdW  Elec       q    Type
REMARK                         _______ _______ _______ _____ _____    ______ ____
ROOT
ATOM      1  C   UNL     1       2.436  -2.764  -4.455  0.00  0.00    +0.172 C 
ATOM      2  C   UNL     1       3.849  -3.068  -3.947  0.00  0.00    +0.144 C 
ATOM      3  C   UNL     1       4.726  -3.450  -5.145  0.00  0.00    +0.120 C 
ATOM      4  N   UNL     1       4.675  -2.377  -6.139  0.00  0.00    -0.292 N 
ATOM      5  C   UNL     1       3.594  -1.591  -6.263  0.00  0.00    +0.302 C 
ATOM      6  O   UNL     1       3.599  -0.721  -7.112  0.00  0.00    -0.253 OA
ATOM      7  N   UNL     1       2.508  -1.728  -5.487  0.00  0.00    -0.267 N 
ATOM      8  H   UNL     1       5.437  -2.231  -6.720  0.00  0.00    +0.151 HD
ATOM      9  H   UNL     1       1.756  -1.129  -5.613  0.00  0.00    +0.153 HD
ENDROOT
BRANCH   1  13
ATOM     10  C   UNL     1       0.019  -1.381  -1.213  0.00  0.00    +0.120 A 
ATOM     11  C   UNL     1       0.663  -0.470  -2.038  0.00  0.00    +0.046 A 
ATOM     12  C   UNL     1       1.444  -0.920  -3.085  0.00  0.00    +0.012 A 
ATOM     13  C   UNL     1       1.583  -2.276  -3.312  0.00  0.00    +0.003 A 
ATOM     14  C   UNL     1       0.942  -3.187  -2.492  0.00  0.00    +0.012 A 
ATOM     15  C   UNL     1       0.165  -2.742  -1.440  0.00  0.00    +0.046 A 
BRANCH  10  17
ATOM     16  C   UNL     1      -0.855   0.473  -0.009  0.00  0.00    +0.277 C 
ATOM     17  O   UNL     1      -0.750  -0.942  -0.182  0.00  0.00    -0.495 OA
ENDBRANCH  10  17
ENDBRANCH   1  13
BRANCH   3  18
ATOM     18  C   UNL     1       6.148  -3.645  -4.685  0.00  0.00    -0.023 A 
ATOM     19  C   UNL     1       6.998  -2.558  -4.591  0.00  0.00    +0.009 A 
ATOM     20  C   UNL     1       8.303  -2.732  -4.171  0.00  0.00    +0.049 A 
ATOM     21  C   UNL     1       8.762  -3.997  -3.841  0.00  0.00    +0.158 A 
ATOM     22  C   UNL     1       7.907  -5.091  -3.936  0.00  0.00    +0.162 A 
ATOM     23  C   UNL     1       6.598  -4.909  -4.353  0.00  0.00    +0.055 A 
BRANCH  22  24
ATOM     24  O   UNL     1       8.353  -6.335  -3.614  0.00  0.00    -0.491 OA
ATOM     25  C   UNL     1       7.419  -7.410  -3.734  0.00  0.00    +0.277 C 
ENDBRANCH  22  24
BRANCH  21  26
ATOM     26  O   UNL     1      10.046  -4.170  -3.428  0.00  0.00    -0.503 OA
ATOM     27  H   UNL     1      10.165  -4.094  -2.471  0.00  0.00    +0.292 HD
ENDBRANCH  21  26
ENDBRANCH   3  18
BRANCH   2  28
ATOM     28  C   UNL     1       4.416  -1.848  -3.268  0.00  0.00    +0.245 C 
ATOM     29  O   UNL     1       4.535  -0.815  -3.883  0.00  0.00    -0.287 OA
BRANCH  28  30
ATOM     30  C   UNL     1       4.834  -1.916  -1.822  0.00  0.00    +0.451 C 
ATOM     31  F   UNL     1       5.223  -0.644  -1.389  0.00  0.00    -0.163 F 
ATOM     32  F   UNL     1       3.760  -2.365  -1.047  0.00  0.00    -0.163 F 
ATOM     33  F   UNL     1       5.908  -2.803  -1.689  0.00  0.00    -0.163 F 
ENDBRANCH  28  30
ENDBRANCH   2  28
BRANCH   1  34
ATOM     34  O   UNL     1       1.860  -3.949  -5.008  0.00  0.00    -0.367 OA
ATOM     35  H   UNL     1       0.964  -3.828  -5.352  0.00  0.00    +0.212 HD
ENDBRANCH   1  34
TORSDOF 8
