REMARK  Name = ZINC62129397
REMARK  4 active torsions:
REMARK  status: ('A' for Active; 'I' for Inactive)
REMARK    1  A    between atoms: C_1  and  C_2
REMARK    2  A    between atoms: N_6  and  C_7
REMARK    3  A    between atoms: C_7  and  C_8
REMARK    4  A    between atoms: C_14  and  C_16
REMARK                            x       y       z     vdW  Elec       q    Type
REMARK                         _______ _______ _______ _____ _____    ______ ____
ROOT
ATOM      1  C   UNL     1      -0.528   1.316   2.917  0.00  0.00    +0.012 C 
ATOM      2  C   UNL     1      -1.598   2.063   2.118  0.00  0.00    +0.024 C 
ATOM      3  C   UNL     1      -2.986   1.635   2.607  0.00  0.00    +0.108 C 
ATOM      4  N   UNL     1      -3.061   1.843   4.059  0.00  0.00    -0.301 N 
ATOM      5  C   UNL     1      -2.027   1.244   4.913  0.00  0.00    +0.108 C 
ATOM      6  C   UNL     1      -0.650   1.677   4.399  0.00  0.00    +0.024 C 
ATOM      7  C   UNL     1      -4.059   2.571   4.597  0.00  0.00    +0.219 C 
ATOM      8  O   UNL     1      -4.861   3.128   3.877  0.00  0.00    -0.275 OA
ENDROOT
BRANCH   7   9
ATOM      9  C   UNL     1      -4.179   2.695   6.095  0.00  0.00    +0.075 C 
ATOM     10  C   UNL     1      -4.891   1.460   6.652  0.00  0.00    +0.013 C 
ATOM     11  C   UNL     1      -5.013   1.585   8.172  0.00  0.00    +0.001 C 
ATOM     12  C   UNL     1      -5.819   2.839   8.518  0.00  0.00    +0.000 C 
ATOM     13  C   UNL     1      -5.107   4.073   7.960  0.00  0.00    +0.001 C 
ATOM     14  C   UNL     1      -4.985   3.948   6.440  0.00  0.00    +0.013 C 
ENDBRANCH   7   9
BRANCH   1  15
ATOM     15  C   UNL     1       0.859   1.716   2.408  0.00  0.00    +0.126 C 
BRANCH  15  21
ATOM     16  C   UNL     1      -0.075   3.259  -0.111  0.00  0.00    +0.084 C 
ATOM     17  C   UNL     1       0.620   1.922  -0.085  0.00  0.00    +0.084 A 
ATOM     18  N   UNL     1       0.940   1.211  -1.132  0.00  0.00    -0.350 N 
ATOM     19  C   UNL     1       1.545   0.083  -0.732  0.00  0.00    +0.101 A 
ATOM     20  C   UNL     1       1.602   0.095   0.614  0.00  0.00    +0.104 A 
ATOM     21  N   UNL     1       1.020   1.264   1.024  0.00  0.00    -0.336 N 
ATOM     22  H   UNL     1       0.768   1.459  -2.054  0.00  0.00    +0.166 HD
ENDBRANCH  15  21
ENDBRANCH   1  15
TORSDOF 3
