REMARK  Name = ZINC25736014
REMARK  8 active torsions:
REMARK  status: ('A' for Active; 'I' for Inactive)
REMARK    1  A    between atoms: C_1  and  C_2
REMARK    2  A    between atoms: C_5  and  S_8
REMARK    3  A    between atoms: S_8  and  N_11
REMARK    4  A    between atoms: C_14  and  C_17
REMARK    5  A    between atoms: C_17  and  O_19
REMARK    6  A    between atoms: O_19  and  C_20
REMARK    7  A    between atoms: C_20  and  C_22
REMARK    8  A    between atoms: C_20  and  C_23
REMARK                            x       y       z     vdW  Elec       q    Type
REMARK                         _______ _______ _______ _____ _____    ______ ____
ROOT
ATOM      1  N   UNL     1       4.281   1.498  -0.507  0.00  0.00    -0.177 NA
ATOM      2  C   UNL     1       2.830   1.728  -0.547  0.00  0.00    +0.110 C 
ATOM      3  C   UNL     1       2.114   0.379  -0.431  0.00  0.00    +0.032 C 
ATOM      4  C   UNL     1       2.631  -0.564  -1.520  0.00  0.00    +0.100 C 
ATOM      5  C   UNL     1       4.131  -0.796  -1.326  0.00  0.00    +0.032 C 
ATOM      6  C   UNL     1       4.870   0.540  -1.452  0.00  0.00    +0.110 C 
ENDROOT
BRANCH   1   7
ATOM      7  S   UNL     1       5.233   2.303   0.583  0.00  0.00    +0.061 S 
ATOM      8  O   UNL     1       6.546   2.322   0.039  0.00  0.00    -0.153 OA
ATOM      9  O   UNL     1       4.536   3.491   0.931  0.00  0.00    -0.153 OA
BRANCH   7  14
ATOM     10  C   UNL     1       5.481  -1.077   5.575  0.00  0.00    +0.044 C 
ATOM     11  C   UNL     1       5.419  -0.233   4.328  0.00  0.00    -0.050 A 
ATOM     12  C   UNL     1       6.356  -0.408   3.327  0.00  0.00    +0.005 A 
ATOM     13  C   UNL     1       6.300   0.366   2.183  0.00  0.00    +0.029 A 
ATOM     14  C   UNL     1       5.305   1.316   2.040  0.00  0.00    +0.105 A 
ATOM     15  C   UNL     1       4.371   1.495   3.043  0.00  0.00    +0.029 A 
ATOM     16  C   UNL     1       4.425   0.717   4.185  0.00  0.00    +0.005 A 
ENDBRANCH   7  14
ENDBRANCH   1   7
BRANCH   4  17
ATOM     17  C   UNL     1       1.904  -1.881  -1.430  0.00  0.00    +0.311 C 
ATOM     18  O   UNL     1       1.059  -2.049  -0.582  0.00  0.00    -0.251 OA
BRANCH  17  19
ATOM     19  O   UNL     1       2.195  -2.869  -2.291  0.00  0.00    -0.452 OA
BRANCH  19  20
ATOM     20  C   UNL     1       1.455  -4.110  -2.146  0.00  0.00    +0.259 C 
ATOM     21  C   UNL     1       2.203  -5.040  -1.188  0.00  0.00    +0.062 C 
BRANCH  20  22
ATOM     22  C   UNL     1       1.322  -4.776  -3.491  0.00  0.00    +0.264 C 
ATOM     23  O   UNL     1       1.970  -4.373  -4.434  0.00  0.00    -0.271 OA
ATOM     24  N   UNL     1       0.483  -5.819  -3.647  0.00  0.00    -0.221 N 
ATOM     25  C   UNL     1       0.339  -6.622  -4.870  0.00  0.00    +0.137 C 
ATOM     26  C   UNL     1      -0.734  -7.665  -4.503  0.00  0.00    +0.125 C 
ATOM     27  N   UNL     1      -1.087  -7.334  -3.115  0.00  0.00    -0.297 N 
ATOM     28  C   UNL     1      -0.357  -6.285  -2.713  0.00  0.00    +0.309 C 
ATOM     29  O   UNL     1      -0.448  -5.801  -1.602  0.00  0.00    -0.252 OA
ATOM     30  H   UNL     1      -1.849  -7.925  -2.585  0.00  0.00    +0.150 HD
ENDBRANCH  20  22
ENDBRANCH  19  20
ENDBRANCH  17  19
ENDBRANCH   4  17
TORSDOF 6
