REMARK  Name = ZINC00058317
REMARK  7 active torsions:
REMARK  status: ('A' for Active; 'I' for Inactive)
REMARK    1  A    between atoms: C_1  and  C_2
REMARK    2  A    between atoms: C_9  and  N_25
REMARK    3  A    between atoms: C_10  and  C_23
REMARK    4  A    between atoms: C_11  and  C_13
REMARK    5  A    between atoms: C_16  and  O_19
REMARK    6  A    between atoms: O_19  and  C_20
REMARK    7  A    between atoms: C_20  and  C_22
REMARK                            x       y       z     vdW  Elec       q    Type
REMARK                         _______ _______ _______ _____ _____    ______ ____
ROOT
ATOM      1  C   UNL     1      -1.192  -6.394  -3.007  0.00  0.00    +0.068 C 
ATOM      2  C   UNL     1       0.147  -6.745  -2.410  0.00  0.00    +0.068 A 
ATOM      3  C   UNL     1       0.480  -6.684  -1.063  0.00  0.00    +0.049 A 
ATOM      4  C   UNL     1       1.781  -7.082  -0.931  0.00  0.00    +0.222 A 
ATOM      5  N   UNL     1       2.242  -7.379  -2.156  0.00  0.00    -0.246 N 
ATOM      6  H   UNL     1       3.163  -7.699  -2.378  0.00  0.00    +0.192 HD
ATOM      7  N   UNL     1       1.200  -7.162  -3.072  0.00  0.00    -0.176 NA
ATOM      8  O   UNL     1       2.412  -7.135   0.269  0.00  0.00    -0.423 OA
ATOM      9  C   UNL     1       1.651  -7.048   1.379  0.00  0.00    +0.200 C 
ATOM     10  C   UNL     1       0.358  -6.657   1.376  0.00  0.00    +0.098 C 
ATOM     11  C   UNL     1      -0.367  -6.268   0.111  0.00  0.00    +0.101 C 
ENDROOT
BRANCH  11  12
ATOM     12  C   UNL     1      -0.577  -4.776   0.084  0.00  0.00    -0.034 A 
ATOM     13  C   UNL     1      -1.859  -4.260   0.027  0.00  0.00    +0.008 A 
ATOM     14  C   UNL     1      -2.054  -2.893   0.002  0.00  0.00    +0.046 A 
ATOM     15  C   UNL     1      -0.962  -2.037   0.034  0.00  0.00    +0.132 A 
ATOM     16  C   UNL     1       0.323  -2.557   0.087  0.00  0.00    +0.046 A 
ATOM     17  C   UNL     1       0.512  -3.925   0.117  0.00  0.00    +0.008 A 
BRANCH  15  18
ATOM     18  O   UNL     1      -1.151  -0.691   0.009  0.00  0.00    -0.426 OA
BRANCH  18  19
ATOM     19  C   UNL     1      -1.548  -0.110   1.153  0.00  0.00    +0.309 C 
ATOM     20  O   UNL     1      -1.805  -0.789   2.118  0.00  0.00    -0.251 OA
ATOM     21  C   UNL     1      -1.671   1.390   1.233  0.00  0.00    +0.136 C 
ENDBRANCH  18  19
ENDBRANCH  15  18
ENDBRANCH  11  12
BRANCH   9  22
ATOM     22  N   UNL     1       2.224  -7.378   2.582  0.00  0.00    -0.328 N 
ATOM     23  H   UNL     1       1.702  -7.326   3.398  0.00  0.00    +0.145 HD
ATOM     24  H   UNL     1       3.150  -7.663   2.616  0.00  0.00    +0.145 HD
ENDBRANCH   9  22
BRANCH  10  25
ATOM     25  C   UNL     1      -0.351  -6.609   2.619  0.00  0.00    +0.101 C 
ATOM     26  N   UNL     1      -0.913  -6.571   3.606  0.00  0.00    -0.191 NA
ENDBRANCH  10  25
TORSDOF 5
