REMARK  Name = ZINC04903992
REMARK  7 active torsions:
REMARK  status: ('A' for Active; 'I' for Inactive)
REMARK    1  A    between atoms: C_1  and  N_2
REMARK    2  A    between atoms: N_2  and  C_3
REMARK    3  A    between atoms: N_2  and  S_18
REMARK    4  A    between atoms: C_3  and  C_4
REMARK    5  A    between atoms: C_12  and  O_16
REMARK    6  A    between atoms: O_16  and  C_17
REMARK    7  A    between atoms: S_18  and  C_21
REMARK                            x       y       z     vdW  Elec       q    Type
REMARK                         _______ _______ _______ _____ _____    ______ ____
ROOT
ATOM      1  C   UNL     1      -1.384  -0.909   1.776  0.00  0.00    +0.234 C 
ATOM      2  O   UNL     1      -2.315  -0.455   1.145  0.00  0.00    -0.274 OA
ATOM      3  N   UNL     1      -1.610  -1.563   2.933  0.00  0.00    -0.264 N 
ATOM      4  C   UNL     1      -2.905  -1.715   3.402  0.00  0.00    +0.165 A 
ATOM      5  N   UNL     1      -4.029  -1.304   2.864  0.00  0.00    -0.225 NA
ATOM      6  C   UNL     1      -5.233  -1.525   3.437  0.00  0.00    +0.081 A 
ATOM      7  C   UNL     1      -6.508  -1.137   2.964  0.00  0.00    +0.032 A 
ATOM      8  C   UNL     1      -7.641  -1.441   3.672  0.00  0.00    +0.048 A 
ATOM      9  C   UNL     1      -7.580  -2.139   4.874  0.00  0.00    +0.121 A 
ATOM     10  C   UNL     1      -6.345  -2.535   5.366  0.00  0.00    +0.063 A 
ATOM     11  C   UNL     1      -5.207  -2.232   4.660  0.00  0.00    +0.044 A 
ATOM     12  S   UNL     1      -3.471  -2.529   4.889  0.00  0.00    -0.052 S 
ATOM     13  H   UNL     1      -0.866  -1.926   3.438  0.00  0.00    +0.157 HD
ENDROOT
BRANCH   9  14
ATOM     14  O   UNL     1      -8.718  -2.429   5.560  0.00  0.00    -0.495 OA
ATOM     15  C   UNL     1      -9.951  -1.987   4.987  0.00  0.00    +0.277 C 
ENDBRANCH   9  14
BRANCH   1  16
ATOM     16  C   UNL     1       0.024  -0.743   1.267  0.00  0.00    +0.205 C 
BRANCH  16  18
ATOM     17  C   UNL     1      -0.018   1.461   0.010  0.00  0.00    +0.132 C 
ATOM     18  N   UNL     1       0.002  -0.004   0.002  0.00  0.00    -0.170 NA
BRANCH  18  19
ATOM     19  S   UNL     1      -0.000  -0.824  -1.437  0.00  0.00    +0.067 S 
ATOM     20  O   UNL     1      -0.531  -2.115  -1.167  0.00  0.00    -0.152 OA
ATOM     21  O   UNL     1      -0.572   0.049  -2.401  0.00  0.00    -0.152 OA
BRANCH  19  22
ATOM     22  C   UNL     1       1.682  -1.059  -1.905  0.00  0.00    +0.143 A 
ATOM     23  C   UNL     1       2.513  -2.091  -1.615  0.00  0.00    +0.036 A 
ATOM     24  C   UNL     1       3.808  -2.063  -2.096  0.00  0.00    +0.010 A 
ATOM     25  C   UNL     1       4.210  -1.006  -2.843  0.00  0.00    +0.047 A 
ATOM     26  S   UNL     1       2.732  -0.005  -2.891  0.00  0.00    -0.077 S 
ENDBRANCH  19  22
ENDBRANCH  18  19
ENDBRANCH  16  18
ENDBRANCH   1  16
TORSDOF 5
