REMARK  Name = ZINC05897239
REMARK  6 active torsions:
REMARK  status: ('A' for Active; 'I' for Inactive)
REMARK    1  A    between atoms: C_3  and  N_11
REMARK    2  A    between atoms: C_6  and  N_7
REMARK    3  A    between atoms: C_12  and  C_14
REMARK    4  A    between atoms: C_14  and  O_15
REMARK    5  A    between atoms: O_15  and  C_16
REMARK    6  A    between atoms: C_16  and  C_18
REMARK                            x       y       z     vdW  Elec       q    Type
REMARK                         _______ _______ _______ _____ _____    ______ ____
ROOT
ATOM      1  N   UNL     1      -1.238   2.069   0.019  0.00  0.00    -0.281 N 
ATOM      2  C   UNL     1      -2.395   1.385  -0.081  0.00  0.00    +0.255 C 
ATOM      3  O   UNL     1      -2.384   0.172  -0.088  0.00  0.00    -0.272 OA
ATOM      4  H   UNL     1      -1.251   3.035   0.105  0.00  0.00    +0.155 HD
ENDROOT
BRANCH   1   7
ATOM      5  C   UNL     1       1.284  -0.526  -0.640  0.00  0.00    +0.034 A 
ATOM      6  C   UNL     1       0.076   0.144  -0.617  0.00  0.00    +0.027 A 
ATOM      7  C   UNL     1      -0.016   1.385  -0.001  0.00  0.00    +0.052 A 
ATOM      8  C   UNL     1       1.108   1.949   0.589  0.00  0.00    +0.064 A 
ATOM      9  C   UNL     1       2.313   1.274   0.562  0.00  0.00    +0.054 A 
ATOM     10  C   UNL     1       2.401   0.037  -0.052  0.00  0.00    +0.128 A 
ATOM     11 CL   UNL     1       0.999   3.501   1.359  0.00  0.00    -0.082 Cl
BRANCH  10  12
ATOM     12  N   UNL     1       3.693  -0.684  -0.080  0.00  0.00    +0.056 N 
ATOM     13  O   UNL     1       3.772  -1.772  -0.621  0.00  0.00    -0.126 OA
ATOM     14  O   UNL     1       4.678  -0.188   0.438  0.00  0.00    -0.126 OA
ENDBRANCH  10  12
ENDBRANCH   1   7
BRANCH   2  15
ATOM     15  C   UNL     1      -3.702   2.127  -0.184  0.00  0.00    +0.328 C 
BRANCH  15  16
ATOM     16  O   UNL     1      -4.793   1.175  -0.280  0.00  0.00    -0.452 OA
BRANCH  16  17
ATOM     17  C   UNL     1      -6.039   1.679  -0.380  0.00  0.00    +0.341 C 
ATOM     18  O   UNL     1      -6.208   2.882  -0.387  0.00  0.00    -0.245 OA
BRANCH  17  19
ATOM     19  C   UNL     1      -7.197   0.770  -0.482  0.00  0.00    +0.077 A 
ATOM     20  C   UNL     1      -7.005  -0.614  -0.474  0.00  0.00    +0.019 A 
ATOM     21  C   UNL     1      -8.090  -1.458  -0.570  0.00  0.00    +0.039 A 
ATOM     22  C   UNL     1      -9.371  -0.936  -0.672  0.00  0.00    +0.125 A 
ATOM     23  C   UNL     1      -9.569   0.435  -0.680  0.00  0.00    +0.059 A 
ATOM     24  C   UNL     1      -8.491   1.291  -0.579  0.00  0.00    +0.058 A 
ATOM     25 CL   UNL     1      -8.740   3.009  -0.581  0.00  0.00    -0.083 Cl
ATOM     26  F   UNL     1     -10.431  -1.769  -0.766  0.00  0.00    -0.205 F 
ENDBRANCH  17  19
ENDBRANCH  16  17
ENDBRANCH  15  16
ENDBRANCH   2  15
TORSDOF 6
