REMARK  Name = ZINC09420180
REMARK  6 active torsions:
REMARK  status: ('A' for Active; 'I' for Inactive)
REMARK    1  A    between atoms: C_1  and  C_2
REMARK    2  A    between atoms: C_2  and  C_3
REMARK    3  A    between atoms: C_2  and  C_4
REMARK    4  A    between atoms: C_4  and  O_6
REMARK    5  A    between atoms: O_6  and  C_7
REMARK    6  A    between atoms: C_15  and  C_16
REMARK                            x       y       z     vdW  Elec       q    Type
REMARK                         _______ _______ _______ _____ _____    ______ ____
ROOT
ATOM      1  C   UNL     1      -1.314  -0.688   1.157  0.00  0.00    +0.135 A 
ATOM      2  C   UNL     1      -2.548  -0.052   1.059  0.00  0.00    +0.047 A 
ATOM      3  C   UNL     1      -3.682  -0.784   0.846  0.00  0.00    +0.019 A 
ATOM      4  C   UNL     1      -3.602  -2.171   0.726  0.00  0.00    +0.068 A 
ATOM      5  C   UNL     1      -2.363  -2.824   0.823  0.00  0.00    +0.143 A 
ATOM      6  C   UNL     1      -1.219  -2.065   1.034  0.00  0.00    +0.093 A 
ATOM      7  O   UNL     1      -2.537  -4.156   0.675  0.00  0.00    -0.451 OA
ATOM      8  C   UNL     1      -3.837  -4.476   0.479  0.00  0.00    +0.176 C 
ATOM      9  C   UNL     1      -4.337  -5.724   0.298  0.00  0.00    +0.059 C 
ATOM     10  C   UNL     1      -4.610  -3.224   0.498  0.00  0.00    +0.231 C 
ATOM     11  O   UNL     1      -5.813  -3.087   0.358  0.00  0.00    -0.283 OA
ENDROOT
BRANCH   9  12
ATOM     12  C   UNL     1      -3.466  -6.895   0.460  0.00  0.00    -0.003 A 
ATOM     13  C   UNL     1      -2.074  -6.744   0.446  0.00  0.00    +0.009 A 
ATOM     14  C   UNL     1      -1.263  -7.848   0.598  0.00  0.00    +0.001 A 
ATOM     15  C   UNL     1      -1.821  -9.105   0.765  0.00  0.00    +0.001 A 
ATOM     16  C   UNL     1      -3.195  -9.264   0.781  0.00  0.00    +0.020 A 
ATOM     17  C   UNL     1      -4.022  -8.169   0.635  0.00  0.00    +0.048 A 
ATOM     18 CL   UNL     1      -5.746  -8.369   0.662  0.00  0.00    -0.083 Cl
ENDBRANCH   9  12
BRANCH   1  19
ATOM     19  O   UNL     1      -0.192   0.047   1.369  0.00  0.00    -0.426 OA
BRANCH  19  20
ATOM     20  C   UNL     1       0.036   0.463   2.625  0.00  0.00    +0.315 C 
ATOM     21  O   UNL     1      -0.748   0.191   3.503  0.00  0.00    -0.250 OA
BRANCH  20  23
ATOM     22  C   UNL     1       1.249   2.566   2.119  0.00  0.00    +0.019 C 
ATOM     23  C   UNL     1       1.267   1.274   2.939  0.00  0.00    +0.092 C 
ATOM     24  C   UNL     1       1.287   1.615   4.430  0.00  0.00    +0.019 C 
ENDBRANCH  20  23
ENDBRANCH  19  20
ENDBRANCH   1  19
TORSDOF 4
