REMARK  Name = ZINC43594456
REMARK  2 active torsions:
REMARK  status: ('A' for Active; 'I' for Inactive)
REMARK    1  A    between atoms: C_10  and  C_12
REMARK    2  A    between atoms: C_14  and  C_17
REMARK                            x       y       z     vdW  Elec       q    Type
REMARK                         _______ _______ _______ _____ _____    ______ ____
ROOT
ATOM      1  C   UNL     1      -0.017   1.376   0.010  0.00  0.00    +0.000 A 
ATOM      2  C   UNL     1       1.173   2.080   0.002  0.00  0.00    +0.000 A 
ATOM      3  C   UNL     1       2.374   1.400  -0.011  0.00  0.00    +0.006 A 
ATOM      4  C   UNL     1       2.395   0.013  -0.018  0.00  0.00    -0.018 A 
ATOM      5  C   UNL     1       1.208  -0.688  -0.014  0.00  0.00    -0.041 A 
ATOM      6  C   UNL     1       0.002  -0.004   0.002  0.00  0.00    +0.004 A 
ATOM      7  C   UNL     1       1.180  -2.195  -0.033  0.00  0.00    +0.050 C 
ATOM      8  C   UNL     1       2.548  -2.748   0.366  0.00  0.00    +0.086 C 
ATOM      9  N   UNL     1       3.577  -2.081  -0.447  0.00  0.00    -0.302 NA
ATOM     10  C   UNL     1       3.730  -0.684  -0.026  0.00  0.00    +0.174 C 
ATOM     11  H   UNL     1       4.456  -2.573  -0.393  0.00  0.00    +0.123 HD
ENDROOT
BRANCH  10  12
ATOM     12  C   UNL     1       4.656   0.025  -0.981  0.00  0.00    +0.249 A 
ATOM     13  N   UNL     1       5.645   0.803  -0.644  0.00  0.00    -0.190 NA
ATOM     14  C   UNL     1       6.261   1.268  -1.747  0.00  0.00    +0.203 A 
ATOM     15  N   UNL     1       5.656   0.778  -2.802  0.00  0.00    -0.056 NA
ATOM     16  O   UNL     1       4.604  -0.043  -2.317  0.00  0.00    -0.336 OA
BRANCH  14  17
ATOM     17  C   UNL     1       7.429   2.180  -1.765  0.00  0.00    +0.029 A 
ATOM     18  C   UNL     1       7.987   2.605  -2.971  0.00  0.00    +0.019 A 
ATOM     19  C   UNL     1       9.050   3.437  -2.880  0.00  0.00    +0.046 A 
ATOM     20  S   UNL     1       9.248   3.609  -1.117  0.00  0.00    -0.104 S 
ATOM     21  C   UNL     1       7.982   2.631  -0.605  0.00  0.00    +0.057 A 
ENDBRANCH  14  17
ENDBRANCH  10  12
TORSDOF 2
