REMARK  Name = ZINC35487168
REMARK  5 active torsions:
REMARK  status: ('A' for Active; 'I' for Inactive)
REMARK    1  A    between atoms: C_1  and  O_2
REMARK    2  A    between atoms: O_2  and  C_3
REMARK    3  A    between atoms: C_3  and  C_4
REMARK    4  A    between atoms: C_4  and  N_5
REMARK    5  A    between atoms: C_6  and  C_22
REMARK                            x       y       z     vdW  Elec       q    Type
REMARK                         _______ _______ _______ _____ _____    ______ ____
ROOT
ATOM      1  N   UNL     1       1.401  -2.532  -0.162  0.00  0.00    -0.281 N 
ATOM      2  C   UNL     1       0.875  -2.701  -1.526  0.00  0.00    +0.145 C 
ATOM      3  C   UNL     1       2.034  -3.143  -2.358  0.00  0.00    +0.072 A 
ATOM      4  C   UNL     1       2.128  -3.478  -3.783  0.00  0.00    +0.199 A 
ATOM      5  O   UNL     1       1.231  -3.266  -4.579  0.00  0.00    -0.287 OA
ATOM      6  C   UNL     1       3.423  -4.098  -4.163  0.00  0.00    +0.066 A 
ATOM      7  C   UNL     1       3.594  -4.653  -5.431  0.00  0.00    +0.035 A 
ATOM      8  C   UNL     1       4.800  -5.229  -5.765  0.00  0.00    +0.042 A 
ATOM      9  C   UNL     1       5.838  -5.256  -4.841  0.00  0.00    +0.023 A 
ATOM     10  C   UNL     1       5.680  -4.710  -3.588  0.00  0.00    +0.048 A 
ATOM     11  C   UNL     1       4.469  -4.119  -3.227  0.00  0.00    +0.140 A 
ATOM     12  O   UNL     1       4.345  -3.582  -1.992  0.00  0.00    -0.450 OA
ATOM     13  C   UNL     1       3.127  -3.216  -1.544  0.00  0.00    +0.199 A 
ATOM     14  C   UNL     1       2.716  -2.830  -0.182  0.00  0.00    +0.283 C 
ATOM     15  O   UNL     1       3.454  -2.789   0.782  0.00  0.00    -0.267 OA
ATOM     16 CL   UNL     1       5.024  -5.921  -7.341  0.00  0.00    -0.084 Cl
ENDROOT
BRANCH   2  17
ATOM     17  C   UNL     1      -0.207  -3.749  -1.540  0.00  0.00    -0.022 A 
ATOM     18  C   UNL     1      -0.071  -4.893  -0.775  0.00  0.00    +0.007 A 
ATOM     19  C   UNL     1      -1.063  -5.855  -0.787  0.00  0.00    +0.015 A 
ATOM     20  C   UNL     1      -2.193  -5.673  -1.564  0.00  0.00    +0.018 A 
ATOM     21  C   UNL     1      -2.330  -4.528  -2.329  0.00  0.00    +0.015 A 
ATOM     22  C   UNL     1      -1.339  -3.565  -2.312  0.00  0.00    +0.007 A 
ATOM     23 BR   UNL     1      -3.551  -6.989  -1.581  0.00  0.00    -0.050 Br
ENDBRANCH   2  17
BRANCH   1  24
ATOM     24  C   UNL     1       0.633  -2.108   1.011  0.00  0.00    +0.137 C 
BRANCH  24  25
ATOM     25  C   UNL     1       0.673  -0.582   1.123  0.00  0.00    +0.178 C 
BRANCH  25  27
ATOM     26  C   UNL     1      -0.017   1.425   0.010  0.00  0.00    +0.194 C 
ATOM     27  O   UNL     1       0.002  -0.004   0.002  0.00  0.00    -0.381 OA
ENDBRANCH  25  27
ENDBRANCH  24  25
ENDBRANCH   1  24
TORSDOF 4
