REMARK  Name = ZINC39372127
REMARK  4 active torsions:
REMARK  status: ('A' for Active; 'I' for Inactive)
REMARK    1  A    between atoms: C_8  and  C_10
REMARK    2  A    between atoms: C_12  and  C_16
REMARK    3  A    between atoms: C_16  and  N_17
REMARK    4  A    between atoms: C_23  and  C_25
REMARK                            x       y       z     vdW  Elec       q    Type
REMARK                         _______ _______ _______ _____ _____    ______ ____
ROOT
ATOM      1  C   UNL     1       3.538  -4.047   2.416  0.00  0.00    +0.120 C 
ENDROOT
BRANCH   1   2
ATOM      2  N   UNL     1       2.984  -2.827   3.017  0.00  0.00    -0.282 NA
ATOM      3  C   UNL     1       1.917  -2.262   2.175  0.00  0.00    +0.104 C 
ATOM      4  C   UNL     1       1.593  -0.852   2.673  0.00  0.00    +0.119 C 
ATOM      5  N   UNL     1       1.368  -0.870   4.116  0.00  0.00    -0.313 N 
ATOM      6  C   UNL     1       1.778  -1.871   4.902  0.00  0.00    +0.235 C 
ATOM      7  O   UNL     1       1.577  -1.791   6.096  0.00  0.00    -0.274 OA
ATOM      8  C   UNL     1       2.476  -3.090   4.370  0.00  0.00    +0.174 C 
ATOM      9  H   UNL     1       0.902  -0.123   4.522  0.00  0.00    +0.149 HD
BRANCH   8  10
ATOM     10  C   UNL     1       3.627  -3.444   5.276  0.00  0.00    -0.019 A 
ATOM     11  C   UNL     1       4.824  -2.759   5.172  0.00  0.00    +0.006 A 
ATOM     12  C   UNL     1       5.881  -3.082   6.003  0.00  0.00    +0.003 A 
ATOM     13  C   UNL     1       5.742  -4.090   6.938  0.00  0.00    +0.038 A 
ATOM     14  C   UNL     1       4.544  -4.776   7.043  0.00  0.00    +0.124 A 
ATOM     15  C   UNL     1       3.484  -4.447   6.215  0.00  0.00    +0.044 A 
ATOM     16  F   UNL     1       4.407  -5.761   7.957  0.00  0.00    -0.205 F 
ENDBRANCH   8  10
ENDBRANCH   1   2
BRANCH   1  18
ATOM     17  C   UNL     1       5.841  -3.266   1.199  0.00  0.00    +0.222 C 
ATOM     18  C   UNL     1       4.381  -3.681   1.221  0.00  0.00    -0.003 C 
ATOM     19  C   UNL     1       4.017  -3.646  -0.062  0.00  0.00    +0.137 C 
ATOM     20  N   UNL     1       5.053  -3.270  -0.845  0.00  0.00    -0.161 NA
ATOM     21  N   UNL     1       6.103  -3.037  -0.232  0.00  0.00    -0.172 NA
BRANCH  17  29
ATOM     22  C   UNL     1       9.441  -7.435   3.751  0.00  0.00    +0.001 A 
ATOM     23  C   UNL     1       9.172  -8.116   2.573  0.00  0.00    +0.004 A 
ATOM     24  C   UNL     1       8.357  -7.561   1.609  0.00  0.00    +0.047 A 
ATOM     25  C   UNL     1       7.798  -6.306   1.817  0.00  0.00    +0.135 A 
ATOM     26  C   UNL     1       8.074  -5.621   3.012  0.00  0.00    +0.020 A 
ATOM     27  C   UNL     1       8.901  -6.199   3.975  0.00  0.00    +0.011 A 
ATOM     28  C   UNL     1       7.343  -4.352   2.915  0.00  0.00    +0.055 A 
ATOM     29  C   UNL     1       6.717  -4.372   1.730  0.00  0.00    +0.137 A 
ATOM     30  O   UNL     1       6.984  -5.520   1.084  0.00  0.00    -0.457 OA
ENDBRANCH  17  29
ENDBRANCH   1  18
TORSDOF 4
