REMARK  Name = ZINC10233208
REMARK  10 active torsions:
REMARK  status: ('A' for Active; 'I' for Inactive)
REMARK    1  A    between atoms: C_1  and  C_2
REMARK    2  A    between atoms: C_2  and  N_56
REMARK    3  A    between atoms: C_3  and  C_4
REMARK    4  A    between atoms: C_3  and  N_56
REMARK    5  A    between atoms: C_5  and  C_6
REMARK    6  A    between atoms: C_5  and  N_56
REMARK    7  A    between atoms: C_6  and  N_7
REMARK    8  A    between atoms: C_8  and  C_25
REMARK    9  A    between atoms: C_16  and  O_23
REMARK   10  A    between atoms: O_23  and  C_24
REMARK                            x       y       z     vdW  Elec       q    Type
REMARK                         _______ _______ _______ _____ _____    ______ ____
ROOT
ATOM      1  N   UNL     1      -8.028   0.479   5.765  0.00  0.00    -0.285 N 
ATOM      2  C   UNL     1      -7.868  -0.431   4.624  0.00  0.00    +0.144 C 
ATOM      3  C   UNL     1      -6.391  -0.476   4.333  0.00  0.00    +0.072 A 
ATOM      4  C   UNL     1      -5.598  -1.192   3.329  0.00  0.00    +0.199 A 
ATOM      5  O   UNL     1      -6.118  -1.929   2.509  0.00  0.00    -0.287 OA
ATOM      6  C   UNL     1      -4.140  -0.977   3.360  0.00  0.00    +0.065 A 
ATOM      7  C   UNL     1      -3.292  -1.610   2.450  0.00  0.00    +0.019 A 
ATOM      8  C   UNL     1      -1.946  -1.386   2.511  0.00  0.00    +0.046 A 
ATOM      9  C   UNL     1      -1.419  -0.530   3.476  0.00  0.00    +0.124 A 
ATOM     10  C   UNL     1      -2.246   0.101   4.389  0.00  0.00    +0.092 A 
ATOM     11  C   UNL     1      -3.619  -0.111   4.339  0.00  0.00    +0.143 A 
ATOM     12  O   UNL     1      -4.437   0.498   5.216  0.00  0.00    -0.449 OA
ATOM     13  C   UNL     1      -5.775   0.334   5.227  0.00  0.00    +0.199 A 
ATOM     14  C   UNL     1      -6.809   0.923   6.114  0.00  0.00    +0.283 C 
ATOM     15  O   UNL     1      -6.585   1.695   7.026  0.00  0.00    -0.267 OA
ENDROOT
BRANCH   2  16
ATOM     16  C   UNL     1      -8.369  -1.806   4.983  0.00  0.00    -0.022 A 
ATOM     17  C   UNL     1      -8.144  -2.315   6.248  0.00  0.00    +0.007 A 
ATOM     18  C   UNL     1      -8.608  -3.574   6.580  0.00  0.00    +0.020 A 
ATOM     19  C   UNL     1      -9.287  -4.330   5.641  0.00  0.00    +0.041 A 
ATOM     20  C   UNL     1      -9.506  -3.823   4.373  0.00  0.00    +0.020 A 
ATOM     21  C   UNL     1      -9.047  -2.562   4.044  0.00  0.00    +0.007 A 
ATOM     22 CL   UNL     1      -9.863  -5.915   6.054  0.00  0.00    -0.084 Cl
ENDBRANCH   2  16
BRANCH   9  23
ATOM     23  O   UNL     1      -0.079  -0.317   3.525  0.00  0.00    -0.495 OA
ATOM     24  C   UNL     1       0.722  -1.001   2.560  0.00  0.00    +0.277 C 
ENDBRANCH   9  23
BRANCH   1  25
ATOM     25  C   UNL     1      -9.294   0.840   6.408  0.00  0.00    +0.090 C 
BRANCH  25  26
ATOM     26  C   UNL     1      -9.879   2.077   5.725  0.00  0.00    -0.060 C 
BRANCH  26  27
ATOM     27  N   UNL     1     -11.143   2.441   6.398  0.00  0.00    +0.380 N 
ATOM     28  H   UNL     1     -10.976   2.507   7.409  0.00  0.00    -0.082 HD
BRANCH  27  30
ATOM     29  C   UNL     1     -10.796   4.855   6.569  0.00  0.00    -0.017 C 
ATOM     30  C   UNL     1     -11.620   3.750   5.904  0.00  0.00    -0.082 C 
ENDBRANCH  27  30
BRANCH  27  31
ATOM     31  C   UNL     1     -12.166   1.404   6.148  0.00  0.00    -0.082 C 
ATOM     32  C   UNL     1     -13.318   1.600   7.136  0.00  0.00    -0.017 C 
ENDBRANCH  27  31
ENDBRANCH  26  27
ENDBRANCH  25  26
ENDBRANCH   1  25
TORSDOF 7
