REMARK  Name = ZINC61543619
REMARK  2 active torsions:
REMARK  status: ('A' for Active; 'I' for Inactive)
REMARK    1  A    between atoms: C_4  and  S_8
REMARK    2  A    between atoms: S_8  and  C_9
REMARK                            x       y       z     vdW  Elec       q    Type
REMARK                         _______ _______ _______ _____ _____    ______ ____
ROOT
ATOM      1  C   UNL     1       5.141   0.459  -0.196  0.00  0.00    +0.199 A 
ATOM      2  N   UNL     1       6.426   0.154  -0.348  0.00  0.00    -0.184 NA
ATOM      3  C   UNL     1       7.326   1.122  -0.464  0.00  0.00    +0.258 A 
ATOM      4  N   UNL     1       6.941   2.394  -0.428  0.00  0.00    -0.180 NA
ATOM      5  C   UNL     1       5.662   2.696  -0.276  0.00  0.00    +0.228 A 
ATOM      6  N   UNL     1       4.761   1.734  -0.166  0.00  0.00    -0.191 NA
ATOM      7 CL   UNL     1       5.164   4.359  -0.229  0.00  0.00    -0.041 Cl
ATOM      8  N   UNL     1       8.673   0.806  -0.624  0.00  0.00    -0.186 N 
ATOM      9  C   UNL     1       9.699   1.674  -0.749  0.00  0.00    +0.228 A 
ATOM     10  N   UNL     1      10.800   0.981  -0.877  0.00  0.00    -0.222 NA
ATOM     11  C   UNL     1      10.523  -0.322  -0.839  0.00  0.00    +0.245 A 
ATOM     12  N   UNL     1       9.236  -0.480  -0.680  0.00  0.00    -0.151 NA
ENDROOT
BRANCH   1  13
ATOM     13  S   UNL     1       3.942  -0.823  -0.042  0.00  0.00    -0.047 S 
BRANCH  13  17
ATOM     14  C   UNL     1       0.073   1.385   0.781  0.00  0.00    +0.003 A 
ATOM     15  C   UNL     1       0.310   0.850  -0.472  0.00  0.00    +0.001 A 
ATOM     16  C   UNL     1       1.489   0.176  -0.726  0.00  0.00    +0.018 A 
ATOM     17  C   UNL     1       2.438   0.036   0.278  0.00  0.00    +0.051 A 
ATOM     18  C   UNL     1       2.197   0.576   1.538  0.00  0.00    +0.137 A 
ATOM     19  C   UNL     1       1.014   1.248   1.785  0.00  0.00    +0.039 A 
ATOM     20  F   UNL     1       3.117   0.442   2.518  0.00  0.00    -0.204 F 
ENDBRANCH  13  17
ENDBRANCH   1  13
TORSDOF 2
