REMARK  Name = ZINC43550965
REMARK  2 active torsions:
REMARK  status: ('A' for Active; 'I' for Inactive)
REMARK    1  A    between atoms: C_1  and  C_2
REMARK    2  A    between atoms: C_3  and  C_22
REMARK                            x       y       z     vdW  Elec       q    Type
REMARK                         _______ _______ _______ _____ _____    ______ ____
ROOT
ATOM      1  C   UNL     1      -0.025   1.503   0.011  0.00  0.00    +0.066 C 
ATOM      2  C   UNL     1      -0.004  -0.004   0.002  0.00  0.00    +0.050 A 
ATOM      3  C   UNL     1      -0.001  -0.705  -1.158  0.00  0.00    +0.011 A 
ATOM      4  S   UNL     1       0.028  -2.378  -0.535  0.00  0.00    -0.057 S 
ATOM      5  C   UNL     1       0.033  -2.015   1.109  0.00  0.00    +0.166 A 
ATOM      6  N   UNL     1       0.019  -0.700   1.124  0.00  0.00    -0.230 NA
ATOM      7  N   UNL     1       0.052  -2.892   2.187  0.00  0.00    -0.248 N 
ATOM      8  C   UNL     1       0.053  -2.411   3.446  0.00  0.00    +0.308 C 
ATOM      9  O   UNL     1       0.130  -1.213   3.640  0.00  0.00    -0.252 OA
ATOM     10  N   UNL     1      -0.031  -3.258   4.491  0.00  0.00    -0.285 N 
ATOM     11  C   UNL     1      -0.008  -4.712   4.280  0.00  0.00    +0.109 C 
ATOM     12  C   UNL     1      -1.236  -5.328   4.958  0.00  0.00    +0.023 C 
ATOM     13  C   UNL     1      -1.266  -4.910   6.430  0.00  0.00    -0.005 C 
ATOM     14  C   UNL     1      -2.484  -5.543   7.109  0.00  0.00    +0.004 C 
ATOM     15  C   UNL     1      -3.758  -5.078   6.400  0.00  0.00    +0.000 C 
ATOM     16  C   UNL     1      -3.863  -3.554   6.485  0.00  0.00    +0.000 C 
ATOM     17  C   UNL     1      -2.643  -2.919   5.815  0.00  0.00    +0.005 C 
ATOM     18  C   UNL     1      -1.364  -3.385   6.527  0.00  0.00    +0.010 C 
ATOM     19  C   UNL     1      -0.143  -2.746   5.864  0.00  0.00    +0.113 C 
ATOM     20  C   UNL     1      -0.017  -0.210  -2.581  0.00  0.00    +0.053 C 
ATOM     21  H   UNL     1       0.066  -3.849   2.034  0.00  0.00    +0.158 HD
ENDROOT
TORSDOF 0
