REMARK  Name = ZINC00108364
REMARK  6 active torsions:
REMARK  status: ('A' for Active; 'I' for Inactive)
REMARK    1  A    between atoms: C_1  and  C_2
REMARK    2  A    between atoms: C_5  and  C_7
REMARK    3  A    between atoms: C_5  and  O_14
REMARK    4  A    between atoms: C_15  and  C_17
REMARK    5  A    between atoms: C_17  and  C_18
REMARK    6  A    between atoms: C_17  and  C_19
REMARK                            x       y       z     vdW  Elec       q    Type
REMARK                         _______ _______ _______ _____ _____    ______ ____
ROOT
ATOM      1  C   UNL     1       1.973   3.330   0.000  0.00  0.00    +0.062 C 
ATOM      2  C   UNL     1       1.444   1.919  -0.001  0.00  0.00    +0.039 C 
ATOM      3  N   UNL     1       2.161   0.870  -0.014  0.00  0.00    -0.184 NA
ATOM      4  N   UNL     1       1.440  -0.322  -0.013  0.00  0.00    -0.157 N 
ATOM      5  C   UNL     1       0.002  -0.004   0.002  0.00  0.00    +0.187 C 
ATOM      6  C   UNL     1      -0.019   1.538   0.011  0.00  0.00    +0.114 C 
ATOM      7  C   UNL     1       1.970  -1.561  -0.025  0.00  0.00    +0.240 C 
ATOM      8  O   UNL     1       1.243  -2.532  -0.023  0.00  0.00    -0.273 OA
ENDROOT
BRANCH   5   9
ATOM      9  C   UNL     1      -0.650  -0.552   1.245  0.00  0.00    +0.004 A 
ATOM     10  C   UNL     1       0.110  -0.797   2.374  0.00  0.00    +0.009 A 
ATOM     11  C   UNL     1      -0.489  -1.294   3.516  0.00  0.00    +0.016 A 
ATOM     12  C   UNL     1      -1.847  -1.557   3.526  0.00  0.00    +0.018 A 
ATOM     13  C   UNL     1      -2.606  -1.317   2.395  0.00  0.00    +0.016 A 
ATOM     14  C   UNL     1      -2.008  -0.814   1.255  0.00  0.00    +0.009 A 
ATOM     15 BR   UNL     1      -2.666  -2.245   5.086  0.00  0.00    -0.050 Br
ENDBRANCH   5   9
BRANCH   7  16
ATOM     16  C   UNL     1       3.466  -1.740  -0.040  0.00  0.00    +0.071 C 
ATOM     17  C   UNL     1       4.070  -1.091   1.207  0.00  0.00    +0.017 C 
ATOM     18  C   UNL     1       3.801  -3.233  -0.052  0.00  0.00    +0.017 C 
ENDBRANCH   7  16
BRANCH   5  19
ATOM     19  O   UNL     1      -0.639  -0.511  -1.170  0.00  0.00    -0.366 OA
ATOM     20  H   UNL     1      -0.653  -1.476  -1.225  0.00  0.00    +0.212 HD
ENDBRANCH   5  19
TORSDOF 3
