REMARK  Name = ZINC67391764
REMARK  2 active torsions:
REMARK  status: ('A' for Active; 'I' for Inactive)
REMARK    1  A    between atoms: C_3  and  C_11
REMARK    2  A    between atoms: N_19  and  C_20
REMARK                            x       y       z     vdW  Elec       q    Type
REMARK                         _______ _______ _______ _____ _____    ______ ____
ROOT
ATOM      1  C   UNL     1       3.670   2.195  -0.023  0.00  0.00    +0.111 C 
ATOM      2  C   UNL     1       4.242   2.278   1.407  0.00  0.00    +0.029 C 
ATOM      3  C   UNL     1       4.814   3.719   1.469  0.00  0.00    +0.021 C 
ATOM      4  C   UNL     1       3.787   4.499   0.612  0.00  0.00    +0.110 C 
ATOM      5  N   UNL     1       3.422   3.571  -0.479  0.00  0.00    -0.278 N 
ATOM      6  C   UNL     1       2.943   3.924  -1.688  0.00  0.00    +0.303 C 
ATOM      7  O   UNL     1       2.676   3.068  -2.510  0.00  0.00    -0.253 OA
ATOM      8  N   UNL     1       2.759   5.225  -1.986  0.00  0.00    -0.298 N 
ATOM      9  H   UNL     1       2.971   5.908  -1.331  0.00  0.00    +0.150 HD
ENDROOT
BRANCH   1  12
ATOM     10  C   UNL     1      -0.017   1.378   0.010  0.00  0.00    +0.004 A 
ATOM     11  C   UNL     1       1.170   2.088   0.002  0.00  0.00    +0.009 A 
ATOM     12  C   UNL     1       2.378   1.418  -0.014  0.00  0.00    +0.018 A 
ATOM     13  C   UNL     1       2.404   0.031  -0.023  0.00  0.00    +0.167 A 
ATOM     14  C   UNL     1       1.212  -0.683  -0.013  0.00  0.00    +0.162 A 
ATOM     15  C   UNL     1       0.002  -0.004   0.002  0.00  0.00    +0.049 A 
ATOM     16  O   UNL     1       1.214  -2.044  -0.013  0.00  0.00    -0.485 OA
ATOM     17  C   UNL     1       2.434  -2.685  -0.404  0.00  0.00    +0.270 C 
ATOM     18  C   UNL     1       3.594  -1.997   0.328  0.00  0.00    +0.270 C 
ATOM     19  O   UNL     1       3.602  -0.615  -0.043  0.00  0.00    -0.485 OA
ENDBRANCH   1  12
BRANCH   8  20
ATOM     20  C   UNL     1       2.238   5.609  -3.301  0.00  0.00    +0.059 C 
ATOM     21  C   UNL     1       0.685   5.666  -3.287  0.00  0.00    +0.002 C 
ATOM     22  C   UNL     1       0.324   6.906  -4.141  0.00  0.00    -0.077 C 
ATOM     23  N   UNL     1       1.592   7.419  -4.661  0.00  0.00    +0.383 N 
ATOM     24  C   UNL     1       2.609   7.064  -3.635  0.00  0.00    -0.048 C 
ATOM     25  C   UNL     1       3.980   7.211  -4.282  0.00  0.00    -0.014 C 
ATOM     26  C   UNL     1       4.160   8.693  -4.647  0.00  0.00    -0.003 C 
ATOM     27  C   UNL     1       3.012   9.171  -5.536  0.00  0.00    -0.019 C 
ATOM     28  C   UNL     1       1.654   8.855  -4.888  0.00  0.00    -0.078 C 
ATOM     29  H   UNL     1       1.819   6.937  -5.517  0.00  0.00    -0.081 HD
ENDBRANCH   8  20
TORSDOF 2
