REMARK  Name = ZINC17031321
REMARK  7 active torsions:
REMARK  status: ('A' for Active; 'I' for Inactive)
REMARK    1  A    between atoms: C_1  and  C_2
REMARK    2  A    between atoms: C_7  and  N_8
REMARK    3  A    between atoms: C_9  and  C_10
REMARK    4  A    between atoms: C_9  and  C_23
REMARK    5  A    between atoms: C_11  and  C_22
REMARK    6  A    between atoms: N_13  and  C_16
REMARK    7  A    between atoms: C_14  and  O_15
REMARK                            x       y       z     vdW  Elec       q    Type
REMARK                         _______ _______ _______ _____ _____    ______ ____
ROOT
ATOM      1  C   UNL     1      -0.206   0.012   4.782  0.00  0.00    +0.080 A 
ATOM      2  C   UNL     1       0.838   0.447   5.635  0.00  0.00    +0.073 A 
ATOM      3  N   UNL     1       0.302   1.051   6.658  0.00  0.00    -0.168 NA
ATOM      4  N   UNL     1      -1.090   1.038   6.524  0.00  0.00    -0.200 N 
ATOM      5  C   UNL     1      -1.404   0.407   5.372  0.00  0.00    +0.225 A 
ATOM      6  C   UNL     1       2.313   0.246   5.399  0.00  0.00    +0.068 C 
ENDROOT
BRANCH   4   7
ATOM      7  C   UNL     1      -2.006   1.591   7.429  0.00  0.00    +0.069 A 
ATOM      8  C   UNL     1      -3.180   2.169   6.966  0.00  0.00    +0.028 A 
ATOM      9  C   UNL     1      -4.080   2.713   7.861  0.00  0.00    +0.002 A 
ATOM     10  C   UNL     1      -3.813   2.683   9.217  0.00  0.00    +0.000 A 
ATOM     11  C   UNL     1      -2.644   2.109   9.682  0.00  0.00    +0.002 A 
ATOM     12  C   UNL     1      -1.743   1.557   8.792  0.00  0.00    +0.028 A 
ENDBRANCH   4   7
BRANCH   1  14
ATOM     13  N   UNL     1       0.065  -0.047   2.396  0.00  0.00    -0.232 NA
ATOM     14  C   UNL     1      -0.054  -0.710   3.517  0.00  0.00    +0.055 C 
ATOM     15  C   UNL     1      -0.034  -2.217   3.507  0.00  0.00    +0.066 C 
BRANCH  13  22
ATOM     16  C   UNL     1       2.619  -0.621   1.290  0.00  0.00    +0.047 C 
ATOM     17  C   UNL     1       1.331  -1.025   0.620  0.00  0.00    -0.006 A 
ATOM     18  C   UNL     1       1.350  -1.709  -0.582  0.00  0.00    +0.008 A 
ATOM     19  C   UNL     1       0.140  -2.062  -1.164  0.00  0.00    +0.020 A 
ATOM     20  C   UNL     1      -1.042  -1.723  -0.533  0.00  0.00    +0.113 A 
ATOM     21  N   UNL     1      -1.036  -1.070   0.612  0.00  0.00    -0.236 NA
ATOM     22  C   UNL     1       0.100  -0.718   1.206  0.00  0.00    +0.156 A 
ENDBRANCH  13  22
ENDBRANCH   1  14
BRANCH   5  23
ATOM     23  O   UNL     1      -2.648   0.196   4.883  0.00  0.00    -0.492 OA
ATOM     24  H   UNL     1      -3.050  -0.634   5.175  0.00  0.00    +0.294 HD
ENDBRANCH   5  23
TORSDOF 4
