REMARK  Name = ZINC51729812
REMARK  7 active torsions:
REMARK  status: ('A' for Active; 'I' for Inactive)
REMARK    1  A    between atoms: C_1  and  C_2
REMARK    2  A    between atoms: C_2  and  C_3
REMARK    3  A    between atoms: C_6  and  S_10
REMARK    4  A    between atoms: C_8  and  N_9
REMARK    5  A    between atoms: S_10  and  N_13
REMARK    6  A    between atoms: C_16  and  C_22
REMARK    7  A    between atoms: C_19  and  C_21
REMARK                            x       y       z     vdW  Elec       q    Type
REMARK                         _______ _______ _______ _____ _____    ______ ____
ROOT
ATOM      1  C   UNL     1       0.531  -0.279   1.303  0.00  0.00    -0.027 A 
ATOM      2  C   UNL     1       1.874  -0.572   1.162  0.00  0.00    +0.007 A 
ATOM      3  C   UNL     1       2.588  -1.079   2.232  0.00  0.00    +0.029 A 
ATOM      4  C   UNL     1       1.962  -1.293   3.447  0.00  0.00    +0.107 A 
ATOM      5  C   UNL     1       0.621  -1.002   3.595  0.00  0.00    +0.051 A 
ATOM      6  C   UNL     1      -0.099  -0.488   2.523  0.00  0.00    +0.030 A 
ENDROOT
BRANCH   6   7
ATOM      7  N   UNL     1      -1.455  -0.187   2.671  0.00  0.00    -0.358 N 
ATOM      8  H   UNL     1      -1.958   0.168   1.921  0.00  0.00    +0.142 HD
ATOM      9  H   UNL     1      -1.894  -0.333   3.523  0.00  0.00    +0.142 HD
ENDBRANCH   6   7
BRANCH   4  10
ATOM     10  S   UNL     1       2.878  -1.939   4.806  0.00  0.00    +0.061 S 
ATOM     11  O   UNL     1       1.937  -2.560   5.671  0.00  0.00    -0.153 OA
ATOM     12  O   UNL     1       3.984  -2.641   4.255  0.00  0.00    -0.153 OA
BRANCH  10  13
ATOM     13  N   UNL     1       3.502  -0.648   5.634  0.00  0.00    -0.174 NA
ATOM     14  C   UNL     1       4.874  -0.188   5.380  0.00  0.00    +0.110 C 
ATOM     15  C   UNL     1       5.631  -0.135   6.710  0.00  0.00    +0.020 C 
ATOM     16  C   UNL     1       4.851   0.732   7.702  0.00  0.00    -0.011 C 
ATOM     17  C   UNL     1       3.476   0.110   7.954  0.00  0.00    +0.023 C 
ATOM     18  C   UNL     1       2.692   0.063   6.633  0.00  0.00    +0.077 C 
ATOM     19  C   UNL     1       1.371  -0.678   6.844  0.00  0.00    +0.026 C 
ATOM     20  C   UNL     1       5.622   0.815   9.021  0.00  0.00    +0.007 C 
ENDBRANCH  10  13
ENDBRANCH   4  10
BRANCH   1  22
ATOM     21  C   UNL     1      -0.273   1.800   0.217  0.00  0.00    +0.009 C 
ATOM     22  C   UNL     1      -0.247   0.273   0.137  0.00  0.00    +0.033 C 
ENDBRANCH   1  22
TORSDOF 4
