REMARK  Name = ZINC06933136
REMARK  2 active torsions:
REMARK  status: ('A' for Active; 'I' for Inactive)
REMARK    1  A    between atoms: C_1  and  C_2
REMARK    2  A    between atoms: C_3  and  C_14
REMARK                            x       y       z     vdW  Elec       q    Type
REMARK                         _______ _______ _______ _____ _____    ______ ____
ROOT
ATOM      1  C   UNL     1      -0.013   1.086   0.008  0.00  0.00    +0.052 C 
ATOM      2  C   UNL     1      -0.718   1.572   1.248  0.00  0.00    +0.045 C 
ATOM      3  C   UNL     1      -0.129   1.832   2.425  0.00  0.00    +0.067 C 
ATOM      4  C   UNL     1      -1.218   2.294   3.376  0.00  0.00    +0.144 C 
ATOM      5  C   UNL     1      -0.935   3.776   3.719  0.00  0.00    +0.053 C 
ATOM      6  C   UNL     1      -2.206   4.424   4.188  0.00  0.00    +0.004 C 
ATOM      7  C   UNL     1      -2.361   4.401   5.722  0.00  0.00    +0.000 C 
ATOM      8  C   UNL     1      -1.942   3.055   6.343  0.00  0.00    +0.000 C 
ATOM      9  C   UNL     1      -2.420   1.883   5.529  0.00  0.00    +0.004 C 
ATOM     10  C   UNL     1      -1.289   1.464   4.574  0.00  0.00    +0.053 C 
ATOM     11  O   UNL     1      -2.456   2.253   2.600  0.00  0.00    -0.450 OA
ATOM     12  C   UNL     1      -2.159   1.841   1.357  0.00  0.00    +0.336 C 
ATOM     13  O   UNL     1      -2.963   1.708   0.456  0.00  0.00    -0.245 OA
ENDROOT
BRANCH   3  14
ATOM     14  C   UNL     1       1.307   1.696   2.736  0.00  0.00    +0.250 C 
ATOM     15  O   UNL     1       2.080   1.314   1.880  0.00  0.00    -0.270 OA
ATOM     16  N   UNL     1       1.760   1.994   3.969  0.00  0.00    -0.261 N 
ATOM     17  C   UNL     1       3.111   1.866   4.262  0.00  0.00    +0.165 A 
ATOM     18  N   UNL     1       4.094   1.466   3.479  0.00  0.00    -0.233 NA
ATOM     19  C   UNL     1       5.335   1.404   3.918  0.00  0.00    +0.120 A 
ATOM     20  C   UNL     1       5.583   1.752   5.205  0.00  0.00    +0.068 A 
ATOM     21  S   UNL     1       3.938   2.183   5.755  0.00  0.00    -0.061 S 
ATOM     22  H   UNL     1       1.143   2.299   4.653  0.00  0.00    +0.157 HD
ENDBRANCH   3  14
TORSDOF 1
