REMARK  Name = ZINC11898505
REMARK  9 active torsions:
REMARK  status: ('A' for Active; 'I' for Inactive)
REMARK    1  A    between atoms: C_1  and  C_2
REMARK    2  A    between atoms: C_5  and  C_32
REMARK    3  A    between atoms: C_6  and  N_8
REMARK    4  A    between atoms: C_9  and  C_11
REMARK    5  A    between atoms: N_13  and  C_14
REMARK    6  A    between atoms: C_14  and  C_15
REMARK    7  A    between atoms: C_15  and  C_17
REMARK    8  A    between atoms: C_15  and  N_62
REMARK    9  A    between atoms: N_21  and  C_22
REMARK                            x       y       z     vdW  Elec       q    Type
REMARK                         _______ _______ _______ _____ _____    ______ ____
ROOT
ATOM      1  C   UNL     1      -4.809   1.070  -0.575  0.00  0.00    -0.003 C 
ENDROOT
BRANCH   1  11
ATOM      2  C   UNL     1      -3.535  -0.305   0.961  0.00  0.00    -0.073 C 
ATOM      3  C   UNL     1      -3.714  -1.227   2.167  0.00  0.00    +0.017 C 
ATOM      4  C   UNL     1      -4.527  -2.434   1.776  0.00  0.00    -0.048 A 
ATOM      5  C   UNL     1      -4.506  -3.544   2.607  0.00  0.00    +0.004 A 
ATOM      6  C   UNL     1      -5.243  -4.667   2.291  0.00  0.00    +0.000 A 
ATOM      7  C   UNL     1      -6.007  -4.685   1.139  0.00  0.00    +0.000 A 
ATOM      8  C   UNL     1      -6.028  -3.582   0.310  0.00  0.00    +0.002 A 
ATOM      9  C   UNL     1      -5.286  -2.453   0.626  0.00  0.00    -0.061 A 
ATOM     10  C   UNL     1      -5.337  -1.276  -0.312  0.00  0.00    -0.042 C 
ATOM     11  N   UNL     1      -4.870  -0.062   0.377  0.00  0.00    +0.389 N 
ATOM     12  H   UNL     1      -5.528   0.171   1.131  0.00  0.00    -0.080 HD
ENDBRANCH   1  11
BRANCH   1  13
ATOM     13  C   UNL     1      -6.212   1.448  -0.977  0.00  0.00    +0.006 A 
ATOM     14  C   UNL     1      -7.347   0.909  -0.487  0.00  0.00    +0.021 A 
ATOM     15  C   UNL     1      -8.427   1.545  -1.130  0.00  0.00    +0.019 A 
ATOM     16  C   UNL     1      -7.911   2.448  -1.988  0.00  0.00    +0.085 A 
ATOM     17  N   UNL     1      -6.552   2.397  -1.894  0.00  0.00    -0.355 N 
ATOM     18  C   UNL     1      -5.612   3.224  -2.656  0.00  0.00    +0.148 C 
ENDBRANCH   1  13
BRANCH   1  19
ATOM     19  C   UNL     1      -4.135   2.263   0.106  0.00  0.00    +0.095 C 
BRANCH  19  22
ATOM     20  C   UNL     1      -4.447   3.618   2.107  0.00  0.00    +0.299 C 
ATOM     21  O   UNL     1      -3.567   4.353   1.711  0.00  0.00    -0.265 OA
ATOM     22  N   UNL     1      -4.806   2.543   1.378  0.00  0.00    -0.309 N 
ATOM     23  H   UNL     1      -5.510   1.955   1.695  0.00  0.00    +0.149 HD
BRANCH  20  25
ATOM     24  N   UNL     1      -4.768   4.974   4.136  0.00  0.00    -0.278 N 
ATOM     25  C   UNL     1      -5.131   3.903   3.404  0.00  0.00    +0.303 C 
ATOM     26  O   UNL     1      -6.011   3.167   3.801  0.00  0.00    -0.265 OA
ATOM     27  H   UNL     1      -4.014   5.519   3.858  0.00  0.00    +0.155 HD
BRANCH  24  33
ATOM     28  C   UNL     1      -8.899   4.709   6.786  0.00  0.00    +0.044 C 
ATOM     29  C   UNL     1      -7.481   5.186   6.607  0.00  0.00    -0.049 A 
ATOM     30  C   UNL     1      -6.879   5.949   7.591  0.00  0.00    +0.004 A 
ATOM     31  C   UNL     1      -5.577   6.388   7.431  0.00  0.00    +0.005 A 
ATOM     32  C   UNL     1      -4.874   6.067   6.286  0.00  0.00    -0.029 A 
ATOM     33  C   UNL     1      -5.476   5.301   5.296  0.00  0.00    +0.037 A 
ATOM     34  C   UNL     1      -6.785   4.865   5.458  0.00  0.00    +0.027 A 
ATOM     35  C   UNL     1      -3.456   6.546   6.112  0.00  0.00    +0.045 C 
ENDBRANCH  24  33
ENDBRANCH  20  25
ENDBRANCH  19  22
ENDBRANCH   1  19
TORSDOF 6
