REMARK  Name = ZINC08589504
REMARK  6 active torsions:
REMARK  status: ('A' for Active; 'I' for Inactive)
REMARK    1  A    between atoms: C_1  and  C_2
REMARK    2  A    between atoms: C_2  and  C_3
REMARK    3  A    between atoms: C_8  and  N_9
REMARK    4  A    between atoms: C_10  and  C_12
REMARK    5  A    between atoms: C_22  and  S_25
REMARK    6  A    between atoms: S_25  and  C_28
REMARK                            x       y       z     vdW  Elec       q    Type
REMARK                         _______ _______ _______ _____ _____    ______ ____
ROOT
ATOM      1  C   UNL     1      -1.464  -0.277  -4.840  0.00  0.00    +0.039 A 
ATOM      2  C   UNL     1      -0.149   0.202  -4.844  0.00  0.00    +0.014 A 
ATOM      3  C   UNL     1       0.492   0.449  -6.023  0.00  0.00    +0.014 A 
ATOM      4  C   UNL     1      -0.165   0.224  -7.233  0.00  0.00    +0.047 A 
ATOM      5  C   UNL     1      -1.485  -0.258  -7.243  0.00  0.00    +0.054 A 
ATOM      6  C   UNL     1      -2.130  -0.512  -6.038  0.00  0.00    +0.039 A 
ATOM      7  N   UNL     1      -2.122  -0.475  -8.448  0.00  0.00    -0.320 N 
ATOM      8  H   UNL     1      -3.033  -0.807  -8.449  0.00  0.00    +0.169 HD
ATOM      9  C   UNL     1      -1.502  -0.234  -9.632  0.00  0.00    +0.278 A 
ATOM     10  O   UNL     1      -2.176  -0.465 -10.780  0.00  0.00    -0.266 OA
ATOM     11  C   UNL     1      -0.224   0.232  -9.703  0.00  0.00    +0.204 A 
ATOM     12  C   UNL     1       0.501   0.482  -8.525  0.00  0.00    +0.218 A 
ATOM     13  O   UNL     1       1.647   0.900  -8.569  0.00  0.00    -0.285 OA
ENDROOT
BRANCH   1  15
ATOM     14  N   UNL     1      -1.506  -0.315  -2.391  0.00  0.00    -0.281 N 
ATOM     15  C   UNL     1      -2.148  -0.541  -3.554  0.00  0.00    +0.248 C 
ATOM     16  O   UNL     1      -3.288  -0.962  -3.547  0.00  0.00    -0.270 OA
ATOM     17  H   UNL     1      -0.621   0.082  -2.394  0.00  0.00    +0.155 HD
BRANCH  14  23
ATOM     18  C   UNL     1      -1.348  -1.119  -0.120  0.00  0.00    -0.026 A 
ATOM     19  C   UNL     1      -1.953  -1.446   1.078  0.00  0.00    +0.005 A 
ATOM     20  C   UNL     1      -3.322  -1.314   1.222  0.00  0.00    +0.000 A 
ATOM     21  C   UNL     1      -4.090  -0.854   0.168  0.00  0.00    +0.002 A 
ATOM     22  C   UNL     1      -3.491  -0.525  -1.032  0.00  0.00    +0.023 A 
ATOM     23  C   UNL     1      -2.116  -0.652  -1.179  0.00  0.00    +0.037 A 
BRANCH  18  25
ATOM     24  C   UNL     1       0.819   0.078   0.019  0.00  0.00    +0.009 C 
ATOM     25  C   UNL     1       0.144  -1.263  -0.275  0.00  0.00    +0.033 C 
ENDBRANCH  18  25
ENDBRANCH  14  23
ENDBRANCH   1  15
BRANCH  11  26
ATOM     26  S   UNL     1       0.521   0.523 -11.273  0.00  0.00    +0.034 S 
ATOM     27  O   UNL     1       1.795  -0.104 -11.240  0.00  0.00    -0.164 OA
ATOM     28  O   UNL     1      -0.459   0.207 -12.252  0.00  0.00    -0.164 OA
BRANCH  26  29
ATOM     29  C   UNL     1       0.815   2.256 -11.396  0.00  0.00    +0.094 A 
ATOM     30  C   UNL     1      -0.155   3.086 -11.926  0.00  0.00    +0.027 A 
ATOM     31  C   UNL     1       0.076   4.446 -12.023  0.00  0.00    +0.002 A 
ATOM     32  C   UNL     1       1.277   4.975 -11.590  0.00  0.00    +0.000 A 
ATOM     33  C   UNL     1       2.247   4.145 -11.059  0.00  0.00    +0.002 A 
ATOM     34  C   UNL     1       2.014   2.786 -10.959  0.00  0.00    +0.027 A 
ENDBRANCH  26  29
ENDBRANCH  11  26
TORSDOF 5
