REMARK  Name = ZINC56588716
REMARK  4 active torsions:
REMARK  status: ('A' for Active; 'I' for Inactive)
REMARK    1  A    between atoms: C_1  and  C_2
REMARK    2  A    between atoms: C_5  and  C_7
REMARK    3  A    between atoms: N_17  and  C_18
REMARK    4  A    between atoms: C_21  and  N_24
REMARK                            x       y       z     vdW  Elec       q    Type
REMARK                         _______ _______ _______ _____ _____    ______ ____
ROOT
ATOM      1  C   UNL     1       0.949  -4.581  -0.444  0.00  0.00    +0.253 C 
ATOM      2  O   UNL     1       0.301  -5.428   0.144  0.00  0.00    -0.269 OA
ATOM      3  N   UNL     1       2.287  -4.707  -0.545  0.00  0.00    -0.294 N 
ATOM      4  C   UNL     1       3.112  -3.578  -0.999  0.00  0.00    +0.127 C 
ATOM      5  C   UNL     1       4.187  -3.300   0.059  0.00  0.00    +0.128 C 
ATOM      6  N   UNL     1       4.848  -4.567   0.402  0.00  0.00    -0.282 N 
ATOM      7  C   UNL     1       4.023  -5.695   0.856  0.00  0.00    +0.128 C 
ATOM      8  C   UNL     1       2.949  -5.972  -0.197  0.00  0.00    +0.127 C 
ATOM      9  C   UNL     1       6.186  -4.692   0.301  0.00  0.00    +0.307 C 
ATOM     10  O   UNL     1       6.866  -3.729   0.004  0.00  0.00    -0.252 OA
ATOM     11  N   UNL     1       6.770  -5.885   0.530  0.00  0.00    -0.269 N 
ATOM     12  H   UNL     1       6.239  -6.633   0.845  0.00  0.00    +0.156 HD
ENDROOT
BRANCH   1  17
ATOM     13  C   UNL     1      -0.624  -0.033  -3.216  0.00  0.00    +0.051 C 
ATOM     14  C   UNL     1      -0.457  -1.266  -2.366  0.00  0.00    -0.013 A 
ATOM     15  C   UNL     1      -1.381  -1.861  -1.571  0.00  0.00    +0.011 A 
ATOM     16  C   UNL     1      -1.030  -2.989  -0.869  0.00  0.00    +0.021 A 
ATOM     17  C   UNL     1       0.274  -3.426  -1.043  0.00  0.00    +0.074 A 
ATOM     18  S   UNL     1       0.914  -2.221  -2.190  0.00  0.00    -0.089 S 
ENDBRANCH   1  17
BRANCH  11  19
ATOM     19  C   UNL     1       8.144  -6.044   0.313  0.00  0.00    +0.035 A 
ATOM     20  C   UNL     1       8.997  -4.954   0.429  0.00  0.00    +0.025 A 
ATOM     21  C   UNL     1      10.352  -5.112   0.215  0.00  0.00    +0.029 A 
ATOM     22  C   UNL     1      10.862  -6.360  -0.116  0.00  0.00    +0.067 A 
ATOM     23  C   UNL     1      10.009  -7.450  -0.233  0.00  0.00    +0.029 A 
ATOM     24  C   UNL     1       8.655  -7.294  -0.014  0.00  0.00    +0.025 A 
BRANCH  22  25
ATOM     25  N   UNL     1      12.238  -6.520  -0.334  0.00  0.00    -0.220 N 
ATOM     26  C   UNL     1      12.877  -7.659  -0.665  0.00  0.00    +0.225 A 
ATOM     27  N   UNL     1      14.153  -7.390  -0.777  0.00  0.00    -0.222 NA
ATOM     28  C   UNL     1      14.367  -6.099  -0.526  0.00  0.00    +0.245 A 
ATOM     29  N   UNL     1      13.225  -5.523  -0.255  0.00  0.00    -0.154 NA
ENDBRANCH  22  25
ENDBRANCH  11  19
TORSDOF 3
