REMARK  Name = ZINC05085154
REMARK  6 active torsions:
REMARK  status: ('A' for Active; 'I' for Inactive)
REMARK    1  A    between atoms: C_1  and  C_2
REMARK    2  A    between atoms: C_7  and  N_12
REMARK    3  A    between atoms: C_9  and  C_11
REMARK    4  A    between atoms: C_13  and  C_15
REMARK    5  A    between atoms: C_22  and  C_24
REMARK    6  A    between atoms: N_28  and  C_29
REMARK                            x       y       z     vdW  Elec       q    Type
REMARK                         _______ _______ _______ _____ _____    ______ ____
ROOT
ATOM      1  C   UNL     1       4.015  -1.369  -3.818  0.00  0.00    +0.092 C 
ATOM      2  C   UNL     1       3.792  -2.876  -3.961  0.00  0.00    +0.016 C 
ATOM      3  C   UNL     1       4.242  -3.331  -5.351  0.00  0.00    +0.020 C 
ATOM      4  C   UNL     1       5.738  -3.045  -5.518  0.00  0.00    +0.108 C 
ATOM      5  N   UNL     1       5.981  -1.623  -5.240  0.00  0.00    -0.296 N 
ATOM      6  C   UNL     1       5.508  -1.061  -3.968  0.00  0.00    +0.120 C 
ATOM      7  C   UNL     1       6.627  -0.849  -6.135  0.00  0.00    +0.263 C 
ATOM      8  O   UNL     1       6.683   0.356  -5.968  0.00  0.00    -0.268 OA
ENDROOT
BRANCH   7   9
ATOM      9  C   UNL     1       7.259  -1.456  -7.307  0.00  0.00    +0.106 A 
ATOM     10  C   UNL     1       7.756  -2.739  -7.381  0.00  0.00    +0.048 A 
ATOM     11  C   UNL     1       8.263  -2.914  -8.659  0.00  0.00    +0.038 A 
ATOM     12  C   UNL     1       8.093  -1.732  -9.389  0.00  0.00    +0.057 A 
ATOM     13  N   UNL     1       7.465  -0.840  -8.524  0.00  0.00    -0.339 N 
ATOM     14  C   UNL     1       7.082   0.535  -8.853  0.00  0.00    +0.149 C 
ATOM     15  C   UNL     1       8.567  -1.756 -10.708  0.00  0.00    +0.034 A 
ATOM     16  C   UNL     1       9.144  -2.873 -11.200  0.00  0.00    +0.048 A 
ATOM     17  S   UNL     1       9.063  -3.996  -9.815  0.00  0.00    -0.095 S 
ENDBRANCH   7   9
BRANCH   1  19
ATOM     18  N   UNL     1       3.643   0.380  -2.109  0.00  0.00    -0.312 N 
ATOM     19  C   UNL     1       3.542  -0.917  -2.460  0.00  0.00    +0.218 C 
ATOM     20  O   UNL     1       3.070  -1.720  -1.684  0.00  0.00    -0.275 OA
ATOM     21  H   UNL     1       4.020   1.023  -2.730  0.00  0.00    +0.149 HD
BRANCH  18  27
ATOM     22  C   UNL     1       3.724   1.454   2.019  0.00  0.00    +0.008 C 
ATOM     23  C   UNL     1       3.448   2.553   0.991  0.00  0.00    -0.009 C 
ATOM     24  C   UNL     1       1.945   2.836   0.939  0.00  0.00    +0.003 C 
ATOM     25  C   UNL     1       1.200   1.561   0.537  0.00  0.00    +0.002 C 
ATOM     26  C   UNL     1       1.680   1.103  -0.841  0.00  0.00    +0.022 C 
ATOM     27  C   UNL     1       3.183   0.820  -0.789  0.00  0.00    +0.076 C 
ATOM     28  C   UNL     1       3.928   2.094  -0.387  0.00  0.00    +0.009 C 
ATOM     29  C   UNL     1       5.431   1.811  -0.335  0.00  0.00    +0.009 C 
ENDBRANCH  18  27
ENDBRANCH   1  19
TORSDOF 3
