REMARK  Name = ZINC12314187
REMARK  10 active torsions:
REMARK  status: ('A' for Active; 'I' for Inactive)
REMARK    1  A    between atoms: C_1  and  C_2
REMARK    2  A    between atoms: C_3  and  C_15
REMARK    3  A    between atoms: N_6  and  C_7
REMARK    4  A    between atoms: C_10  and  O_13
REMARK    5  A    between atoms: O_13  and  C_14
REMARK    6  A    between atoms: C_15  and  C_17
REMARK    7  A    between atoms: C_15  and  N_53
REMARK    8  A    between atoms: C_18  and  C_19
REMARK    9  A    between atoms: C_18  and  N_53
REMARK   10  A    between atoms: N_22  and  C_24
REMARK                            x       y       z     vdW  Elec       q    Type
REMARK                         _______ _______ _______ _____ _____    ______ ____
ROOT
ATOM      1  C   UNL     1      -0.174   1.396   0.068  0.00  0.00    -0.040 C 
ATOM      2  C   UNL     1       1.225   1.996   0.224  0.00  0.00    -0.009 C 
ENDROOT
BRANCH   1   5
ATOM      3  C   UNL     1      -1.564   4.183  -0.241  0.00  0.00    +0.066 C 
ATOM      4  C   UNL     1      -1.415   3.140  -1.319  0.00  0.00    +0.043 A 
ATOM      5  C   UNL     1      -0.814   1.934  -1.186  0.00  0.00    -0.021 A 
ATOM      6  C   UNL     1      -0.897   1.274  -2.416  0.00  0.00    +0.137 A 
ATOM      7  N   UNL     1      -1.521   2.056  -3.260  0.00  0.00    -0.174 NA
ATOM      8  N   UNL     1      -1.855   3.242  -2.593  0.00  0.00    -0.237 N 
BRANCH   8   9
ATOM      9  C   UNL     1      -2.533   4.338  -3.147  0.00  0.00    +0.066 A 
ATOM     10  C   UNL     1      -3.614   4.131  -3.993  0.00  0.00    +0.031 A 
ATOM     11  C   UNL     1      -4.284   5.211  -4.534  0.00  0.00    +0.048 A 
ATOM     12  C   UNL     1      -3.869   6.502  -4.242  0.00  0.00    +0.120 A 
ATOM     13  C   UNL     1      -2.784   6.709  -3.402  0.00  0.00    +0.048 A 
ATOM     14  C   UNL     1      -2.118   5.631  -2.856  0.00  0.00    +0.031 A 
BRANCH  12  15
ATOM     15  O   UNL     1      -4.524   7.564  -4.780  0.00  0.00    -0.495 OA
ATOM     16  C   UNL     1      -5.632   7.277  -5.636  0.00  0.00    +0.277 C 
ENDBRANCH  12  15
ENDBRANCH   8   9
ENDBRANCH   1   5
BRANCH   1  17
ATOM     17  N   UNL     1      -0.073  -0.072  -0.032  0.00  0.00    +0.386 N 
ATOM     18  H   UNL     1       0.784  -0.318  -0.541  0.00  0.00    -0.085 HD
ATOM     19  H   UNL     1      -0.889  -0.434  -0.540  0.00  0.00    -0.085 HD
BRANCH  17  20
ATOM     20  C   UNL     1      -0.030  -0.675   1.313  0.00  0.00    -0.043 C 
BRANCH  20  21
ATOM     21  C   UNL     1       0.073  -2.172   1.180  0.00  0.00    -0.026 A 
ATOM     22  C   UNL     1      -0.999  -3.069   1.115  0.00  0.00    +0.136 A 
ATOM     23  N   UNL     1      -0.515  -4.279   0.998  0.00  0.00    -0.175 NA
ATOM     24  N   UNL     1       0.883  -4.193   0.996  0.00  0.00    -0.240 N 
ATOM     25  C   UNL     1       1.219  -2.888   1.109  0.00  0.00    +0.116 A 
BRANCH  24  26
ATOM     26  C   UNL     1       1.776  -5.269   0.895  0.00  0.00    +0.065 A 
ATOM     27  C   UNL     1       3.145  -5.040   0.900  0.00  0.00    +0.029 A 
ATOM     28  C   UNL     1       4.023  -6.102   0.805  0.00  0.00    +0.022 A 
ATOM     29  C   UNL     1       3.538  -7.393   0.695  0.00  0.00    +0.041 A 
ATOM     30  C   UNL     1       2.174  -7.624   0.684  0.00  0.00    +0.022 A 
ATOM     31  C   UNL     1       1.292  -6.566   0.784  0.00  0.00    +0.029 A 
ATOM     32 CL   UNL     1       4.644  -8.726   0.570  0.00  0.00    -0.084 Cl
ENDBRANCH  24  26
ENDBRANCH  20  21
ENDBRANCH  17  20
ENDBRANCH   1  17
TORSDOF 7
