REMARK  Name = ZINC63302919
REMARK  6 active torsions:
REMARK  status: ('A' for Active; 'I' for Inactive)
REMARK    1  A    between atoms: C_1  and  C_2
REMARK    2  A    between atoms: C_2  and  C_26
REMARK    3  A    between atoms: C_9  and  N_15
REMARK    4  A    between atoms: C_11  and  C_13
REMARK    5  A    between atoms: N_15  and  C_16
REMARK    6  A    between atoms: C_16  and  C_17
REMARK                            x       y       z     vdW  Elec       q    Type
REMARK                         _______ _______ _______ _____ _____    ______ ____
ROOT
ATOM      1  C   UNL     1      -0.019   1.526   0.010  0.00  0.00    +0.041 C 
ATOM      2  C   UNL     1       0.002  -0.004   0.002  0.00  0.00    +0.068 C 
ATOM      3  C   UNL     1       0.714  -0.497  -1.260  0.00  0.00    +0.067 C 
ATOM      4  C   UNL     1       0.938  -2.002  -1.129  0.00  0.00    -0.036 C 
ATOM      5  C   UNL     1       0.849  -2.584   0.063  0.00  0.00    +0.013 C 
ATOM      6  C   UNL     1       0.559  -1.891   1.364  0.00  0.00    +0.202 C 
ATOM      7  O   UNL     1       0.694  -0.477   1.161  0.00  0.00    -0.369 OA
ATOM      8  S   UNL     1       1.120  -4.322  -0.176  0.00  0.00    -0.107 S 
ATOM      9  C   UNL     1       0.978  -4.365  -2.013  0.00  0.00    +0.138 C 
ATOM     10  C   UNL     1       1.277  -2.874  -2.308  0.00  0.00    +0.146 C 
ATOM     11  C   UNL     1      -1.434  -0.533   0.015  0.00  0.00    +0.041 C 
ENDROOT
BRANCH  10  12
ATOM     12  C   UNL     1       0.482  -2.444  -3.470  0.00  0.00    +0.073 C 
ATOM     13  N   UNL     1      -0.132  -2.112  -4.366  0.00  0.00    -0.196 NA
ENDBRANCH  10  12
BRANCH   9  14
ATOM     14  N   UNL     1       1.990  -5.247  -2.611  0.00  0.00    -0.299 NA
ATOM     15  H   UNL     1       1.601  -5.774  -3.380  0.00  0.00    +0.123 HD
BRANCH  14  16
ATOM     16  C   UNL     1       2.571  -6.141  -1.601  0.00  0.00    +0.115 C 
BRANCH  16  17
ATOM     17  C   UNL     1       3.602  -7.029  -2.251  0.00  0.00    -0.028 C 
ATOM     18  C   UNL     1       4.937  -6.820  -2.304  0.00  0.00    +0.000 A 
ATOM     19  C   UNL     1       5.797  -5.745  -1.795  0.00  0.00    +0.010 A 
ATOM     20  C   UNL     1       7.130  -5.814  -2.010  0.00  0.00    +0.001 A 
ATOM     21  C   UNL     1       7.710  -6.883  -2.706  0.00  0.00    +0.002 A 
ATOM     22  C   UNL     1       6.986  -7.908  -3.204  0.00  0.00    +0.026 A 
ATOM     23  C   UNL     1       5.574  -7.939  -3.035  0.00  0.00    +0.043 A 
ATOM     24  N   UNL     1       4.668  -8.805  -3.418  0.00  0.00    -0.380 N 
ATOM     25  C   UNL     1       3.353  -8.337  -2.968  0.00  0.00    +0.146 C 
ATOM     26  H   UNL     1       4.840  -9.622  -3.913  0.00  0.00    +0.160 HD
ENDBRANCH  16  17
ENDBRANCH  14  16
ENDBRANCH   9  14
TORSDOF 4
