REMARK  Name = ZINC38337843
REMARK  8 active torsions:
REMARK  status: ('A' for Active; 'I' for Inactive)
REMARK    1  A    between atoms: C_1  and  C_2
REMARK    2  A    between atoms: C_2  and  C_3
REMARK    3  A    between atoms: C_2  and  C_4
REMARK    4  A    between atoms: C_19  and  C_21
REMARK    5  A    between atoms: C_21  and  C_22
REMARK    6  A    between atoms: C_21  and  C_23
REMARK    7  A    between atoms: C_21  and  C_24
REMARK    8  A    between atoms: C_24  and  O_25
REMARK                            x       y       z     vdW  Elec       q    Type
REMARK                         _______ _______ _______ _____ _____    ______ ____
ROOT
ATOM      1  C   UNL     1       0.692  -0.550   1.115  0.00  0.00    +0.223 C 
ATOM      2  O   UNL     1       0.118  -0.263   0.086  0.00  0.00    -0.275 OA
ATOM      3  N   UNL     1       0.187  -0.154   2.300  0.00  0.00    -0.263 N 
ATOM      4  C   UNL     1      -1.050   0.494   2.359  0.00  0.00    +0.045 A 
ATOM      5  C   UNL     1      -1.489   1.300   1.323  0.00  0.00    +0.024 A 
ATOM      6  C   UNL     1      -2.725   1.915   1.407  0.00  0.00    +0.002 A 
ATOM      7  C   UNL     1      -3.526   1.730   2.520  0.00  0.00    +0.001 A 
ATOM      8  C   UNL     1      -3.098   0.931   3.564  0.00  0.00    +0.010 A 
ATOM      9  C   UNL     1      -1.855   0.314   3.492  0.00  0.00    +0.004 A 
ATOM     10  C   UNL     1      -1.345  -0.523   4.603  0.00  0.00    -0.011 A 
ATOM     11  C   UNL     1      -2.191  -0.935   5.628  0.00  0.00    +0.009 A 
ATOM     12  C   UNL     1      -1.700  -1.734   6.642  0.00  0.00    +0.001 A 
ATOM     13  C   UNL     1      -0.372  -2.123   6.637  0.00  0.00    +0.000 A 
ATOM     14  C   UNL     1       0.474  -1.708   5.625  0.00  0.00    +0.006 A 
ATOM     15  C   UNL     1      -0.002  -0.900   4.612  0.00  0.00    -0.018 A 
ATOM     16  C   UNL     1       0.929  -0.406   3.540  0.00  0.00    +0.120 C 
ENDROOT
BRANCH   1  18
ATOM     17  C   UNL     1       1.649  -2.833   1.254  0.00  0.00    +0.017 C 
ATOM     18  C   UNL     1       1.969  -1.348   1.068  0.00  0.00    +0.069 C 
ATOM     19  C   UNL     1       2.652  -1.139  -0.285  0.00  0.00    +0.017 C 
ENDBRANCH   1  18
BRANCH  16  20
ATOM     20  C   UNL     1       1.591   0.891   4.008  0.00  0.00    +0.011 C 
ATOM     21  C   UNL     1       2.554   1.391   2.929  0.00  0.00    +0.015 C 
ATOM     22  C   UNL     1       0.516   1.950   4.262  0.00  0.00    +0.015 C 
BRANCH  20  23
ATOM     23  C   UNL     1       2.366   0.631   5.302  0.00  0.00    +0.164 C 
BRANCH  23  24
ATOM     24  O   UNL     1       2.984   1.843   5.739  0.00  0.00    -0.394 OA
ATOM     25  H   UNL     1       3.493   1.752   6.556  0.00  0.00    +0.209 HD
ENDBRANCH  23  24
ENDBRANCH  20  23
ENDBRANCH  16  20
TORSDOF 4
