REMARK  Name = ZINC66415280
REMARK  5 active torsions:
REMARK  status: ('A' for Active; 'I' for Inactive)
REMARK    1  A    between atoms: C_1  and  C_2
REMARK    2  A    between atoms: C_2  and  N_3
REMARK    3  A    between atoms: N_3  and  C_4
REMARK    4  A    between atoms: C_10  and  C_12
REMARK    5  A    between atoms: C_13  and  C_15
REMARK                            x       y       z     vdW  Elec       q    Type
REMARK                         _______ _______ _______ _____ _____    ______ ____
ROOT
ATOM      1  N   UNL     1       0.627  -1.248  -1.086  0.00  0.00    -0.294 N 
ATOM      2  C   UNL     1      -0.195  -1.155  -2.150  0.00  0.00    +0.247 C 
ATOM      3  O   UNL     1       0.267  -1.120  -3.274  0.00  0.00    -0.270 OA
ENDROOT
BRANCH   2   4
ATOM      4  C   UNL     1      -1.657  -1.097  -1.951  0.00  0.00    +0.039 A 
ATOM      5  C   UNL     1      -2.179  -0.660  -0.729  0.00  0.00    +0.015 A 
ATOM      6  C   UNL     1      -3.541  -0.604  -0.540  0.00  0.00    +0.028 A 
ATOM      7  C   UNL     1      -4.402  -0.981  -1.564  0.00  0.00    +0.067 A 
ATOM      8  C   UNL     1      -3.886  -1.419  -2.788  0.00  0.00    +0.068 A 
ATOM      9  C   UNL     1      -2.518  -1.471  -2.983  0.00  0.00    +0.041 A 
ATOM     10  N   UNL     1      -4.978  -1.721  -3.600  0.00  0.00    -0.306 N 
ATOM     11  H   UNL     1      -4.935  -2.051  -4.511  0.00  0.00    +0.170 HD
ATOM     12  C   UNL     1      -6.103  -1.479  -2.901  0.00  0.00    +0.325 A 
ATOM     13  O   UNL     1      -7.234  -1.639  -3.317  0.00  0.00    -0.247 OA
ATOM     14  N   UNL     1      -5.785  -1.032  -1.671  0.00  0.00    -0.306 N 
ATOM     15  H   UNL     1      -6.417  -0.787  -0.977  0.00  0.00    +0.170 HD
ENDBRANCH   2   4
BRANCH   1  16
ATOM     16  C   UNL     1       2.062  -1.463  -1.286  0.00  0.00    +0.079 C 
ATOM     17  C   UNL     1       2.706  -1.875   0.040  0.00  0.00    +0.023 C 
ATOM     18  C   UNL     1       2.495  -0.769   1.075  0.00  0.00    +0.002 C 
ATOM     19  C   UNL     1       3.140   0.526   0.576  0.00  0.00    +0.000 C 
ATOM     20  C   UNL     1       2.496   0.939  -0.749  0.00  0.00    +0.005 C 
ATOM     21  C   UNL     1       2.707  -0.168  -1.785  0.00  0.00    +0.006 C 
ATOM     22  C   UNL     1       2.064   0.244  -3.110  0.00  0.00    +0.009 C 
ENDBRANCH   1  16
BRANCH   1  24
ATOM     23  C   UNL     1       0.054   0.339   0.685  0.00  0.00    +0.024 C 
ATOM     24  C   UNL     1       0.085  -1.134   0.270  0.00  0.00    +0.105 C 
ENDBRANCH   1  24
TORSDOF 3
