REMARK  Name = ZINC49421366
REMARK  3 active torsions:
REMARK  status: ('A' for Active; 'I' for Inactive)
REMARK    1  A    between atoms: C_1  and  C_2
REMARK    2  A    between atoms: C_5  and  C_8
REMARK    3  A    between atoms: C_23  and  C_26
REMARK                            x       y       z     vdW  Elec       q    Type
REMARK                         _______ _______ _______ _____ _____    ______ ____
ROOT
ATOM      1  C   UNL     1       0.351  -4.287  -0.350  0.00  0.00    +0.015 A 
ATOM      2  C   UNL     1      -0.558  -4.990  -1.072  0.00  0.00    +0.056 A 
ATOM      3  S   UNL     1      -0.395  -6.579  -0.559  0.00  0.00    -0.089 S 
ATOM      4  C   UNL     1       0.891  -6.383   0.641  0.00  0.00    +0.103 A 
ATOM      5  C   UNL     1       1.178  -5.010   0.603  0.00  0.00    +0.094 A 
ATOM      6  N   UNL     1       2.153  -4.561   1.438  0.00  0.00    -0.215 NA
ATOM      7  C   UNL     1       2.798  -5.371   2.236  0.00  0.00    +0.199 A 
ATOM      8  N   UNL     1       2.544  -6.710   2.291  0.00  0.00    -0.294 N 
ATOM      9  H   UNL     1       3.045  -7.278   2.898  0.00  0.00    +0.172 HD
ATOM     10  C   UNL     1       1.580  -7.239   1.500  0.00  0.00    +0.267 A 
ATOM     11  O   UNL     1       1.332  -8.433   1.527  0.00  0.00    -0.267 OA
ATOM     12  N   UNL     1       3.772  -4.851   3.054  0.00  0.00    -0.300 N 
ATOM     13  C   UNL     1       4.612  -5.735   3.873  0.00  0.00    +0.108 C 
ATOM     14  C   UNL     1       6.084  -5.422   3.587  0.00  0.00    +0.020 C 
ATOM     15  C   UNL     1       6.337  -3.929   3.812  0.00  0.00    +0.018 C 
ATOM     16  C   UNL     1       5.472  -3.113   2.848  0.00  0.00    +0.119 C 
ATOM     17  C   UNL     1       3.998  -3.401   3.121  0.00  0.00    +0.122 C 
ENDROOT
BRANCH   1  22
ATOM     18  C   UNL     1       0.934   1.398  -1.057  0.00  0.00    +0.044 C 
ATOM     19  C   UNL     1       0.782  -0.090  -0.872  0.00  0.00    -0.050 A 
ATOM     20  C   UNL     1       0.782  -0.925  -1.975  0.00  0.00    +0.004 A 
ATOM     21  C   UNL     1       0.643  -2.289  -1.811  0.00  0.00    +0.009 A 
ATOM     22  C   UNL     1       0.502  -2.824  -0.532  0.00  0.00    -0.015 A 
ATOM     23  C   UNL     1       0.502  -1.977   0.576  0.00  0.00    +0.009 A 
ATOM     24  C   UNL     1       0.648  -0.616   0.401  0.00  0.00    +0.004 A 
ENDBRANCH   1  22
BRANCH  16  25
ATOM     25  C   UNL     1       5.746  -1.644   3.047  0.00  0.00    +0.361 C 
ATOM     26  O   UNL     1       6.871  -1.205   2.878  0.00  0.00    -0.246 OA
ATOM     27  O   UNL     1       4.843  -0.895   3.379  0.00  0.00    -0.246 OA
ENDBRANCH  16  25
TORSDOF 2
