REMARK  Name = ZINC63014176
REMARK  3 active torsions:
REMARK  status: ('A' for Active; 'I' for Inactive)
REMARK    1  A    between atoms: C_1  and  C_2
REMARK    2  A    between atoms: C_5  and  C_19
REMARK    3  A    between atoms: C_6  and  N_8
REMARK                            x       y       z     vdW  Elec       q    Type
REMARK                         _______ _______ _______ _____ _____    ______ ____
ROOT
ATOM      1  C   UNL     1      -2.374  -0.731  -1.432  0.00  0.00    +0.063 C 
ATOM      2  C   UNL     1      -1.110  -1.058  -0.678  0.00  0.00    +0.014 A 
ATOM      3  C   UNL     1       0.114  -0.698  -1.216  0.00  0.00    +0.022 A 
ATOM      4  C   UNL     1       1.275  -0.996  -0.528  0.00  0.00    +0.020 A 
ATOM      5  C   UNL     1       1.167  -1.659   0.703  0.00  0.00    +0.101 A 
ATOM      6  C   UNL     1      -0.112  -1.991   1.183  0.00  0.00    +0.114 A 
ATOM      7  N   UNL     1      -1.192  -1.676   0.483  0.00  0.00    -0.346 N 
ATOM      8  H   UNL     1      -2.066  -1.910   0.833  0.00  0.00    +0.167 HD
ENDROOT
BRANCH   6   9
ATOM      9  N   UNL     1      -0.244  -2.645   2.393  0.00  0.00    -0.308 N 
ATOM     10  C   UNL     1      -0.170  -4.100   2.474  0.00  0.00    +0.148 C 
ATOM     11  C   UNL     1      -1.087  -4.534   3.636  0.00  0.00    +0.248 C 
ATOM     12  O   UNL     1      -2.412  -4.072   3.373  0.00  0.00    -0.490 OA
ATOM     13  C   UNL     1      -2.788  -2.829   3.780  0.00  0.00    +0.125 A 
ATOM     14  C   UNL     1      -4.136  -2.659   4.107  0.00  0.00    +0.046 A 
ATOM     15  C   UNL     1      -4.615  -1.427   4.493  0.00  0.00    +0.004 A 
ATOM     16  C   UNL     1      -3.762  -0.341   4.559  0.00  0.00    +0.001 A 
ATOM     17  C   UNL     1      -2.425  -0.501   4.251  0.00  0.00    +0.009 A 
ATOM     18  C   UNL     1      -1.937  -1.741   3.880  0.00  0.00    +0.011 A 
ATOM     19  C   UNL     1      -0.457  -1.899   3.634  0.00  0.00    +0.145 C 
ENDBRANCH   6   9
BRANCH   5  20
ATOM     20  C   UNL     1       2.370  -2.000   1.477  0.00  0.00    +0.390 C 
ATOM     21  O   UNL     1       3.480  -1.807   1.000  0.00  0.00    -0.240 OA
ATOM     22  O   UNL     1       2.261  -2.478   2.598  0.00  0.00    -0.240 OA
ENDBRANCH   5  20
TORSDOF 2
