REMARK  Name = ZINC38893931
REMARK  6 active torsions:
REMARK  status: ('A' for Active; 'I' for Inactive)
REMARK    1  A    between atoms: C_4  and  C_7
REMARK    2  A    between atoms: C_7  and  C_8
REMARK    3  A    between atoms: C_14  and  C_16
REMARK    4  A    between atoms: N_21  and  C_23
REMARK    5  A    between atoms: C_23  and  C_24
REMARK    6  A    between atoms: C_26  and  C_29
REMARK                            x       y       z     vdW  Elec       q    Type
REMARK                         _______ _______ _______ _____ _____    ______ ____
ROOT
ATOM      1  C   UNL     1       6.766  -4.279   4.074  0.00  0.00    +0.059 C 
ATOM      2  C   UNL     1       7.736  -3.295   4.734  0.00  0.00    +0.009 C 
ATOM      3  C   UNL     1       9.150  -3.882   4.693  0.00  0.00    -0.018 C 
ATOM      4  C   UNL     1       9.150  -5.247   5.383  0.00  0.00    -0.078 C 
ATOM      5  N   UNL     1       8.223  -6.150   4.689  0.00  0.00    +0.386 N 
ATOM      6  C   UNL     1       6.854  -5.630   4.786  0.00  0.00    -0.065 C 
ATOM      7  H   UNL     1       8.487  -6.220   3.718  0.00  0.00    -0.081 HD
ENDROOT
BRANCH   1  14
ATOM      8  C   UNL     1       3.747  -1.983   0.836  0.00  0.00    -0.004 C 
ATOM      9  C   UNL     1       2.887  -2.671   1.899  0.00  0.00    +0.023 C 
ATOM     10  C   UNL     1       3.501  -2.429   3.282  0.00  0.00    +0.108 C 
ATOM     11  N   UNL     1       4.902  -2.870   3.261  0.00  0.00    -0.301 N 
ATOM     12  C   UNL     1       5.795  -2.338   2.222  0.00  0.00    +0.108 C 
ATOM     13  C   UNL     1       5.155  -2.581   0.851  0.00  0.00    +0.023 C 
ATOM     14  C   UNL     1       5.360  -3.745   4.177  0.00  0.00    +0.217 C 
ATOM     15  O   UNL     1       4.641  -4.104   5.086  0.00  0.00    -0.275 OA
BRANCH   8  16
ATOM     16  C   UNL     1       3.118  -2.193  -0.543  0.00  0.00    +0.038 C 
BRANCH  16  20
ATOM     17  C   UNL     1      -0.669  -0.223  -0.698  0.00  0.00    +0.000 A 
ATOM     18  C   UNL     1       0.478   0.455  -1.067  0.00  0.00    +0.000 A 
ATOM     19  C   UNL     1       1.704  -0.183  -1.017  0.00  0.00    +0.003 A 
ATOM     20  C   UNL     1       1.782  -1.498  -0.597  0.00  0.00    -0.047 A 
ATOM     21  C   UNL     1       0.635  -2.174  -0.227  0.00  0.00    +0.003 A 
ATOM     22  C   UNL     1      -0.591  -1.537  -0.278  0.00  0.00    +0.000 A 
ENDBRANCH  16  20
ENDBRANCH   8  16
ENDBRANCH   1  14
BRANCH   5  23
ATOM     23  C   UNL     1       8.284  -7.481   5.307  0.00  0.00    +0.022 C 
BRANCH  23  24
ATOM     24  C   UNL     1       9.654  -8.072   5.092  0.00  0.00    +0.211 A 
ATOM     25  N   UNL     1      10.674  -7.940   5.891  0.00  0.00    -0.193 NA
ATOM     26  C   UNL     1      11.737  -8.597   5.393  0.00  0.00    +0.202 A 
ATOM     27  N   UNL     1      11.391  -9.156   4.259  0.00  0.00    -0.056 NA
ATOM     28  O   UNL     1      10.026  -8.827   4.050  0.00  0.00    -0.340 OA
BRANCH  26  29
ATOM     29  C   UNL     1      13.079  -8.675   6.022  0.00  0.00    +0.023 A 
ATOM     30  C   UNL     1      13.319  -8.037   7.237  0.00  0.00    +0.014 A 
ATOM     31  C   UNL     1      14.567  -8.112   7.819  0.00  0.00    +0.039 A 
ATOM     32  C   UNL     1      15.582  -8.820   7.196  0.00  0.00    +0.123 A 
ATOM     33  C   UNL     1      15.348  -9.456   5.987  0.00  0.00    +0.039 A 
ATOM     34  C   UNL     1      14.101  -9.390   5.401  0.00  0.00    +0.014 A 
ATOM     35  F   UNL     1      16.804  -8.892   7.769  0.00  0.00    -0.205 F 
ENDBRANCH  26  29
ENDBRANCH  23  24
ENDBRANCH   5  23
TORSDOF 6
