REMARK  Name = ZINC31169636
REMARK  16 active torsions:
REMARK  status: ('A' for Active; 'I' for Inactive)
REMARK    1  A    between atoms: C_1  and  C_2
REMARK    2  A    between atoms: C_2  and  C_3
REMARK    3  A    between atoms: C_2  and  C_4
REMARK    4  A    between atoms: C_2  and  O_31
REMARK    5  A    between atoms: C_4  and  C_6
REMARK    6  A    between atoms: C_4  and  O_30
REMARK    7  A    between atoms: C_6  and  C_8
REMARK    8  A    between atoms: C_6  and  O_28
REMARK    9  A    between atoms: C_10  and  C_17
REMARK   10  A    between atoms: C_11  and  O_15
REMARK   11  A    between atoms: C_13  and  O_14
REMARK   12  A    between atoms: O_15  and  C_16
REMARK   13  A    between atoms: C_17  and  C_19
REMARK   14  A    between atoms: C_20  and  C_21
REMARK   15  A    between atoms: C_24  and  O_27
REMARK   16  A    between atoms: O_28  and  C_29
REMARK                            x       y       z     vdW  Elec       q    Type
REMARK                         _______ _______ _______ _____ _____    ______ ____
ROOT
ATOM      1  C   UNL     1      -0.246   1.038  -0.874  0.00  0.00    +0.026 A 
ATOM      2  C   UNL     1      -1.425   1.747  -0.913  0.00  0.00    +0.025 A 
ATOM      3  C   UNL     1      -2.289   1.606  -2.003  0.00  0.00    +0.064 A 
ATOM      4  C   UNL     1      -1.949   0.740  -3.053  0.00  0.00    +0.134 A 
ATOM      5  C   UNL     1      -0.761   0.032  -3.003  0.00  0.00    +0.092 A 
ATOM      6  C   UNL     1       0.092   0.183  -1.919  0.00  0.00    +0.126 A 
ENDROOT
BRANCH   6   7
ATOM      7  O   UNL     1       1.259  -0.508  -1.875  0.00  0.00    -0.506 OA
ATOM      8  H   UNL     1       1.528  -1.184  -2.700  0.00  0.00    +0.292 HD
ENDBRANCH   6   7
BRANCH   4   9
ATOM      9  O   UNL     1      -2.783   0.596  -4.114  0.00  0.00    -0.494 OA
ATOM     10  C   UNL     1      -2.371  -0.303  -5.146  0.00  0.00    +0.277 C 
ENDBRANCH   4   9
BRANCH   3  11
ATOM     11  C   UNL     1      -3.553   2.364  -2.048  0.00  0.00    +0.190 C 
ATOM     12  O   UNL     1      -4.304   2.239  -2.998  0.00  0.00    -0.287 OA
BRANCH  11  13
ATOM     13  C   UNL     1      -3.905   3.265  -0.952  0.00  0.00    +0.052 C 
ATOM     14  C   UNL     1      -5.063   3.960  -0.993  0.00  0.00    +0.012 C 
BRANCH  14  15
ATOM     15  C   UNL     1      -5.416   4.866   0.108  0.00  0.00    -0.025 A 
ATOM     16  C   UNL     1      -4.557   5.007   1.205  0.00  0.00    +0.011 A 
ATOM     17  C   UNL     1      -4.890   5.861   2.231  0.00  0.00    +0.046 A 
ATOM     18  C   UNL     1      -6.082   6.575   2.186  0.00  0.00    +0.117 A 
ATOM     19  C   UNL     1      -6.942   6.434   1.102  0.00  0.00    +0.046 A 
ATOM     20  C   UNL     1      -6.616   5.587   0.068  0.00  0.00    +0.011 A 
BRANCH  18  21
ATOM     21  O   UNL     1      -6.409   7.411   3.204  0.00  0.00    -0.507 OA
ATOM     22  H   UNL     1      -7.352   7.977   3.170  0.00  0.00    +0.292 HD
ENDBRANCH  18  21
ENDBRANCH  14  15
ENDBRANCH  11  13
ENDBRANCH   3  11
BRANCH   1  23
ATOM     23  C   UNL     1       0.684   1.192   0.301  0.00  0.00    +0.183 C 
BRANCH  23  24
ATOM     24  O   UNL     1      -0.061   1.610   1.447  0.00  0.00    -0.372 OA
ATOM     25  C   UNL     1       0.397   1.044   2.677  0.00  0.00    +0.194 C 
ENDBRANCH  23  24
BRANCH  23  26
ATOM     26  C   UNL     1       1.750   2.240  -0.025  0.00  0.00    +0.179 C 
BRANCH  26  28
ATOM     27  C   UNL     1       0.263   3.974   0.986  0.00  0.00    +0.044 C 
ATOM     28  C   UNL     1       1.079   3.596  -0.252  0.00  0.00    +0.089 C 
ATOM     29  C   UNL     1       2.150   4.659  -0.501  0.00  0.00    +0.044 C 
BRANCH  28  30
ATOM     30  O   UNL     1       0.213   3.516  -1.386  0.00  0.00    -0.386 OA
ATOM     31  H   UNL     1       0.623   3.254  -2.373  0.00  0.00    +0.210 HD
ENDBRANCH  28  30
ENDBRANCH  26  28
BRANCH  26  32
ATOM     32  O   UNL     1       2.669   2.339   1.064  0.00  0.00    -0.386 OA
ATOM     33  H   UNL     1       3.250   1.458   1.376  0.00  0.00    +0.210 HD
ENDBRANCH  26  32
ENDBRANCH  23  26
ENDBRANCH   1  23
TORSDOF 12
