REMARK  Name = ZINC09699688
REMARK  8 active torsions:
REMARK  status: ('A' for Active; 'I' for Inactive)
REMARK    1  A    between atoms: C_1  and  C_2
REMARK    2  A    between atoms: C_8  and  N_10
REMARK    3  A    between atoms: C_11  and  C_13
REMARK    4  A    between atoms: C_13  and  C_15
REMARK    5  A    between atoms: C_13  and  O_16
REMARK    6  A    between atoms: O_16  and  C_17
REMARK    7  A    between atoms: C_17  and  C_19
REMARK    8  A    between atoms: N_27  and  C_30
REMARK                            x       y       z     vdW  Elec       q    Type
REMARK                         _______ _______ _______ _____ _____    ______ ____
ROOT
ATOM      1  C   UNL     1       1.186   1.795   0.000  0.00  0.00    +0.060 A 
ATOM      2  C   UNL     1       1.166   3.190   0.008  0.00  0.00    +0.016 A 
ATOM      3  C   UNL     1      -0.039   3.872   0.023  0.00  0.00    +0.014 A 
ATOM      4  C   UNL     1      -1.232   3.166   0.030  0.00  0.00    +0.050 A 
ATOM      5  C   UNL     1      -1.218   1.756   0.017  0.00  0.00    +0.051 A 
ATOM      6  C   UNL     1      -0.013   1.076   0.008  0.00  0.00    +0.028 A 
ATOM      7  C   UNL     1      -2.636   1.337   0.022  0.00  0.00    +0.258 C 
ATOM      8  O   UNL     1      -3.037   0.191   0.018  0.00  0.00    -0.269 OA
ATOM      9  N   UNL     1      -3.409   2.438   0.032  0.00  0.00    -0.202 N 
ATOM     10  C   UNL     1      -2.660   3.556   0.045  0.00  0.00    +0.258 C 
ATOM     11  O   UNL     1      -3.084   4.694   0.056  0.00  0.00    -0.269 OA
ENDROOT
BRANCH   9  12
ATOM     12  C   UNL     1      -4.811   2.424   0.038  0.00  0.00    +0.045 A 
ATOM     13  C   UNL     1      -5.493   1.214   0.029  0.00  0.00    +0.027 A 
ATOM     14  C   UNL     1      -6.874   1.202   0.040  0.00  0.00    +0.040 A 
ATOM     15  C   UNL     1      -7.578   2.394   0.049  0.00  0.00    +0.124 A 
ATOM     16  C   UNL     1      -6.900   3.601   0.053  0.00  0.00    +0.040 A 
ATOM     17  C   UNL     1      -5.519   3.618   0.048  0.00  0.00    +0.027 A 
ATOM     18  F   UNL     1      -8.929   2.380   0.056  0.00  0.00    -0.205 F 
ENDBRANCH   9  12
BRANCH   1  19
ATOM     19  C   UNL     1       2.478   1.076  -0.015  0.00  0.00    +0.340 C 
ATOM     20  O   UNL     1       2.498  -0.138  -0.022  0.00  0.00    -0.245 OA
BRANCH  19  21
ATOM     21  O   UNL     1       3.634   1.768  -0.023  0.00  0.00    -0.449 OA
BRANCH  21  22
ATOM     22  C   UNL     1       4.864   0.996  -0.038  0.00  0.00    +0.259 C 
ATOM     23  C   UNL     1       5.310   0.718   1.399  0.00  0.00    +0.062 C 
BRANCH  22  25
ATOM     24  N   UNL     1       7.141   1.213  -0.981  0.00  0.00    -0.309 N 
ATOM     25  C   UNL     1       5.937   1.775  -0.755  0.00  0.00    +0.254 C 
ATOM     26  O   UNL     1       5.717   2.908  -1.128  0.00  0.00    -0.272 OA
ATOM     27  H   UNL     1       7.317   0.307  -0.682  0.00  0.00    +0.149 HD
BRANCH  24  34
ATOM     28  C   UNL     1       9.746   1.574   0.232  0.00  0.00    +0.009 C 
ATOM     29  C   UNL     1       9.559   1.429  -1.280  0.00  0.00    +0.006 C 
ATOM     30  C   UNL     1       9.656  -0.048  -1.667  0.00  0.00    +0.005 C 
ATOM     31  C   UNL     1       9.468  -0.193  -3.178  0.00  0.00    +0.000 C 
ATOM     32  C   UNL     1       8.094   0.348  -3.575  0.00  0.00    +0.002 C 
ATOM     33  C   UNL     1       7.996   1.825  -3.189  0.00  0.00    +0.022 C 
ATOM     34  C   UNL     1       8.184   1.970  -1.677  0.00  0.00    +0.076 C 
ENDBRANCH  24  34
ENDBRANCH  22  25
ENDBRANCH  21  22
ENDBRANCH  19  21
ENDBRANCH   1  19
TORSDOF 6
