REMARK  Name = ZINC03427813
REMARK  6 active torsions:
REMARK  status: ('A' for Active; 'I' for Inactive)
REMARK    1  A    between atoms: C_1  and  C_2
REMARK    2  A    between atoms: C_14  and  C_15
REMARK    3  A    between atoms: C_15  and  O_17
REMARK    4  A    between atoms: O_17  and  C_18
REMARK    5  A    between atoms: C_18  and  C_20
REMARK    6  A    between atoms: C_18  and  C_21
REMARK                            x       y       z     vdW  Elec       q    Type
REMARK                         _______ _______ _______ _____ _____    ______ ____
ROOT
ATOM      1  C   UNL     1       2.776  -3.868   0.282  0.00  0.00    +0.376 C 
ATOM      2  O   UNL     1       1.846  -4.524   0.709  0.00  0.00    -0.241 OA
ENDROOT
BRANCH   1  16
ATOM      3  C   UNL     1       3.551  -6.661   1.401  0.00  0.00    +0.048 C 
ATOM      4  C   UNL     1       4.483  -5.634   0.810  0.00  0.00    +0.010 A 
ATOM      5  C   UNL     1       5.886  -5.757   0.656  0.00  0.00    +0.025 A 
ATOM      6  C   UNL     1       6.806  -6.778   0.972  0.00  0.00    +0.012 A 
ATOM      7  C   UNL     1       8.125  -6.627   0.709  0.00  0.00    +0.009 A 
ATOM      8  C   UNL     1       8.602  -5.439   0.114  0.00  0.00    -0.014 A 
ATOM      9  C   UNL     1       9.968  -5.271  -0.163  0.00  0.00    +0.008 A 
ATOM     10  C   UNL     1      10.404  -4.117  -0.740  0.00  0.00    +0.001 A 
ATOM     11  C   UNL     1       9.514  -3.096  -1.060  0.00  0.00    +0.001 A 
ATOM     12  C   UNL     1       8.181  -3.225  -0.804  0.00  0.00    +0.012 A 
ATOM     13  C   UNL     1       7.698  -4.401  -0.212  0.00  0.00    +0.025 A 
ATOM     14  C   UNL     1       6.323  -4.566   0.065  0.00  0.00    +0.144 A 
ATOM     15  O   UNL     1       5.245  -3.784  -0.127  0.00  0.00    -0.447 OA
ATOM     16  C   UNL     1       4.138  -4.413   0.321  0.00  0.00    +0.216 A 
ENDBRANCH   1  16
BRANCH   1  17
ATOM     17  O   UNL     1       2.557  -2.639  -0.229  0.00  0.00    -0.447 OA
BRANCH  17  18
ATOM     18  C   UNL     1       1.185  -2.163  -0.236  0.00  0.00    +0.259 C 
ATOM     19  C   UNL     1       0.509  -2.574  -1.546  0.00  0.00    +0.062 C 
BRANCH  18  20
ATOM     20  C   UNL     1       1.173  -0.661  -0.114  0.00  0.00    +0.259 C 
ATOM     21  O   UNL     1       2.217  -0.044  -0.121  0.00  0.00    -0.271 OA
ATOM     22  N   UNL     1       0.002  -0.004   0.002  0.00  0.00    -0.267 N 
ATOM     23  C   UNL     1      -0.017   1.390   0.008  0.00  0.00    +0.125 A 
ATOM     24  C   UNL     1      -1.234   2.062   0.021  0.00  0.00    +0.045 A 
ATOM     25  C   UNL     1      -1.239   3.446   0.027  0.00  0.00    +0.025 A 
ATOM     26  C   UNL     1      -0.021   4.113   0.019  0.00  0.00    +0.059 A 
ATOM     27  C   UNL     1       1.151   3.380   0.006  0.00  0.00    +0.132 A 
ATOM     28  N   UNL     1       1.124   2.061   0.006  0.00  0.00    -0.239 NA
ATOM     29 CL   UNL     1       0.029   5.848   0.026  0.00  0.00    -0.082 Cl
ATOM     30  H   UNL     1      -0.827  -0.501   0.082  0.00  0.00    +0.156 HD
ENDBRANCH  18  20
ENDBRANCH  17  18
ENDBRANCH   1  17
TORSDOF 4
