REMARK  Name = ZINC21630261
REMARK  5 active torsions:
REMARK  status: ('A' for Active; 'I' for Inactive)
REMARK    1  A    between atoms: C_5  and  C_7
REMARK    2  A    between atoms: C_7  and  N_8
REMARK    3  A    between atoms: C_11  and  C_14
REMARK    4  A    between atoms: C_14  and  N_15
REMARK    5  A    between atoms: C_18  and  C_21
REMARK                            x       y       z     vdW  Elec       q    Type
REMARK                         _______ _______ _______ _____ _____    ______ ____
ROOT
ATOM      1  N   UNL     1      -0.018   1.464   0.010  0.00  0.00    +0.382 N 
ATOM      2  C   UNL     1       1.344   2.014   0.000  0.00  0.00    -0.078 C 
ATOM      3  C   UNL     1       2.086   1.565   1.261  0.00  0.00    -0.014 C 
ATOM      4  C   UNL     1       2.133   0.035   1.302  0.00  0.00    +0.003 C 
ATOM      5  C   UNL     1       0.704  -0.513   1.263  0.00  0.00    -0.014 C 
ATOM      6  C   UNL     1       0.002  -0.004   0.002  0.00  0.00    -0.078 C 
ATOM      7  H   UNL     1      -0.503   1.788   0.943  0.00  0.00    -0.081 HD
ENDROOT
BRANCH   1   8
ATOM      8  C   UNL     1      -0.804   1.986  -1.115  0.00  0.00    -0.040 C 
BRANCH   8  13
ATOM      9  C   UNL     1      -2.393   5.307  -0.278  0.00  0.00    +0.000 A 
ATOM     10  C   UNL     1      -1.385   6.191  -0.619  0.00  0.00    +0.003 A 
ATOM     11  C   UNL     1      -0.189   5.715  -1.120  0.00  0.00    +0.038 A 
ATOM     12  C   UNL     1       0.001   4.353  -1.281  0.00  0.00    +0.125 A 
ATOM     13  C   UNL     1      -1.009   3.469  -0.940  0.00  0.00    -0.029 A 
ATOM     14  C   UNL     1      -2.207   3.948  -0.444  0.00  0.00    +0.004 A 
ATOM     15  F   UNL     1       1.170   3.886  -1.772  0.00  0.00    -0.205 F 
ENDBRANCH   8  13
ENDBRANCH   1   8
BRANCH   4  16
ATOM     16  C   UNL     1       2.820  -0.420   2.591  0.00  0.00    +0.109 C 
BRANCH  16  17
ATOM     17  N   UNL     1       4.223   0.003   2.573  0.00  0.00    -0.297 N 
ATOM     18  C   UNL     1       5.044  -0.296   3.633  0.00  0.00    +0.315 A 
ATOM     19  N   UNL     1       6.321   0.016   3.750  0.00  0.00    -0.174 NA
ATOM     20  C   UNL     1       6.705  -0.476   4.947  0.00  0.00    +0.206 A 
ATOM     21  N   UNL     1       5.661  -1.058   5.481  0.00  0.00    -0.054 NA
ATOM     22  O   UNL     1       4.703  -0.965   4.744  0.00  0.00    -0.317 OA
ATOM     23  H   UNL     1       4.618   0.560   1.711  0.00  0.00    +0.150 HD
BRANCH  20  24
ATOM     24  C   UNL     1       8.059  -0.381   5.545  0.00  0.00    +0.058 A 
ATOM     25  C   UNL     1       9.083   0.267   4.856  0.00  0.00    +0.014 A 
ATOM     26  C   UNL     1      10.340   0.357   5.418  0.00  0.00    +0.001 A 
ATOM     27  C   UNL     1      10.589  -0.203   6.659  0.00  0.00    +0.003 A 
ATOM     28  C   UNL     1       9.581  -0.852   7.346  0.00  0.00    +0.039 A 
ATOM     29  C   UNL     1       8.315  -0.945   6.795  0.00  0.00    +0.134 A 
ATOM     30  F   UNL     1       7.329  -1.579   7.467  0.00  0.00    -0.205 F 
ENDBRANCH  20  24
ENDBRANCH  16  17
ENDBRANCH   4  16
TORSDOF 5
