REMARK  Name = ZINC66624856
REMARK  6 active torsions:
REMARK  status: ('A' for Active; 'I' for Inactive)
REMARK    1  A    between atoms: C_1  and  C_2
REMARK    2  A    between atoms: C_2  and  C_3
REMARK    3  A    between atoms: C_2  and  C_4
REMARK    4  A    between atoms: C_12  and  C_14
REMARK    5  A    between atoms: C_23  and  C_27
REMARK    6  A    between atoms: C_23  and  C_28
REMARK                            x       y       z     vdW  Elec       q    Type
REMARK                         _______ _______ _______ _____ _____    ______ ____
ROOT
ATOM      1  C   UNL     1       0.335  -3.930   0.870  0.00  0.00    +0.102 A 
ATOM      2  C   UNL     1      -0.392  -4.830   0.104  0.00  0.00    +0.031 A 
ATOM      3  C   UNL     1      -0.144  -6.212   0.256  0.00  0.00    +0.038 A 
ATOM      4  C   UNL     1       0.812  -6.663   1.149  0.00  0.00    +0.030 A 
ATOM      5  N   UNL     1       1.515  -5.790   1.899  0.00  0.00    -0.325 N 
ATOM      6  H   UNL     1       2.175  -6.130   2.523  0.00  0.00    +0.169 HD
ATOM      7  C   UNL     1       1.333  -4.463   1.802  0.00  0.00    +0.261 A 
ATOM      8  O   UNL     1       1.992  -3.704   2.490  0.00  0.00    -0.267 OA
ATOM      9  C   UNL     1       1.105  -8.133   1.310  0.00  0.00    +0.060 C 
ATOM     10  C   UNL     1      -0.080  -8.987   0.870  0.00  0.00    -0.023 C 
ATOM     11  C   UNL     1      -0.467  -8.612  -0.567  0.00  0.00    +0.086 C 
ATOM     12  C   UNL     1      -0.923  -7.169  -0.548  0.00  0.00    +0.165 C 
ATOM     13  O   UNL     1      -1.899  -6.812  -1.174  0.00  0.00    -0.292 OA
ATOM     14  C   UNL     1       0.306 -10.466   0.926  0.00  0.00    +0.011 C 
ATOM     15  C   UNL     1      -1.267  -8.732   1.801  0.00  0.00    +0.011 C 
ENDROOT
BRANCH   1  23
ATOM     16  C   UNL     1       2.195  -1.182   0.901  0.00  0.00    +0.165 C 
ATOM     17  C   UNL     1       3.202  -1.184   2.018  0.00  0.00    +0.234 C 
ATOM     18  O   UNL     1       4.378  -1.078   1.738  0.00  0.00    -0.274 OA
ATOM     19  N   UNL     1       2.862  -1.295   3.303  0.00  0.00    -0.312 N 
ATOM     20  C   UNL     1       1.505  -1.519   3.783  0.00  0.00    +0.123 C 
ATOM     21  C   UNL     1       0.480  -1.079   2.736  0.00  0.00    +0.127 C 
ATOM     22  N   UNL     1       0.894  -1.619   1.429  0.00  0.00    -0.284 N 
ATOM     23  C   UNL     1       0.114  -2.480   0.746  0.00  0.00    +0.253 C 
ATOM     24  O   UNL     1      -0.773  -2.060   0.027  0.00  0.00    -0.270 OA
ATOM     25  H   UNL     1       3.568  -1.223   3.964  0.00  0.00    +0.149 HD
BRANCH  16  27
ATOM     26  C   UNL     1       1.706  -2.026  -1.399  0.00  0.00    +0.009 C 
ATOM     27  C   UNL     1       2.650  -2.141  -0.201  0.00  0.00    +0.012 C 
ATOM     28  C   UNL     1       4.072  -1.782  -0.635  0.00  0.00    +0.009 C 
ENDBRANCH  16  27
ENDBRANCH   1  23
TORSDOF 2
