REMARK  Name = ZINC63485993
REMARK  7 active torsions:
REMARK  status: ('A' for Active; 'I' for Inactive)
REMARK    1  A    between atoms: C_1  and  C_2
REMARK    2  A    between atoms: C_7  and  O_31
REMARK    3  A    between atoms: C_13  and  C_15
REMARK    4  A    between atoms: C_15  and  C_16
REMARK    5  A    between atoms: N_18  and  C_19
REMARK    6  A    between atoms: C_19  and  C_20
REMARK    7  A    between atoms: C_20  and  C_21
REMARK                            x       y       z     vdW  Elec       q    Type
REMARK                         _______ _______ _______ _____ _____    ______ ____
ROOT
ATOM      1  C   UNL     1       1.113  -0.147   3.667  0.00  0.00    +0.214 C 
ATOM      2  O   UNL     1       1.980  -0.986   3.541  0.00  0.00    -0.276 OA
ATOM      3  N   UNL     1       0.886   0.412   4.872  0.00  0.00    -0.315 N 
ATOM      4  H   UNL     1       0.193   1.083   4.973  0.00  0.00    +0.149 HD
ENDROOT
BRANCH   1   5
ATOM      5  C   UNL     1       0.290   0.270   2.476  0.00  0.00    +0.111 C 
BRANCH   5  17
ATOM      6  C   UNL     1      -0.019   1.526   0.010  0.00  0.00    +0.013 C 
ATOM      7  C   UNL     1       0.002  -0.004   0.002  0.00  0.00    +0.034 C 
ATOM      8  C   UNL     1      -1.413  -0.524   0.009  0.00  0.00    +0.000 A 
ATOM      9  C   UNL     1      -2.362   0.134  -0.759  0.00  0.00    +0.031 A 
ATOM     10  C   UNL     1      -3.668  -0.311  -0.790  0.00  0.00    +0.083 A 
ATOM     11  C   UNL     1      -4.039  -1.425  -0.048  0.00  0.00    +0.139 A 
ATOM     12  C   UNL     1      -3.095  -2.083   0.722  0.00  0.00    +0.093 A 
ATOM     13  C   UNL     1      -1.781  -1.631   0.754  0.00  0.00    +0.139 A 
ATOM     14  O   UNL     1      -0.889  -2.295   1.540  0.00  0.00    -0.425 OA
ATOM     15  C   UNL     1       0.414  -1.979   1.408  0.00  0.00    +0.316 C 
ATOM     16  O   UNL     1       1.276  -2.826   1.423  0.00  0.00    -0.250 OA
ATOM     17  C   UNL     1       0.747  -0.510   1.241  0.00  0.00    +0.114 C 
ATOM     18 CL   UNL     1      -4.847   0.523  -1.754  0.00  0.00    -0.080 Cl
BRANCH  11  19
ATOM     19  O   UNL     1      -5.324  -1.867  -0.078  0.00  0.00    -0.505 OA
ATOM     20  H   UNL     1      -5.500  -2.517  -0.773  0.00  0.00    +0.292 HD
ENDBRANCH  11  19
ENDBRANCH   5  17
ENDBRANCH   1   5
BRANCH   3  21
ATOM     21  C   UNL     1       1.686   0.006   6.030  0.00  0.00    +0.108 C 
BRANCH  21  22
ATOM     22  C   UNL     1       1.230   0.786   7.264  0.00  0.00    +0.052 C 
BRANCH  22  23
ATOM     23  C   UNL     1       2.053   0.368   8.456  0.00  0.00    -0.040 C 
ATOM     24  C   UNL     1       3.162   0.979   8.932  0.00  0.00    +0.002 A 
ATOM     25  C   UNL     1       3.904   2.169   8.500  0.00  0.00    +0.048 A 
ATOM     26  C   UNL     1       5.005   2.544   9.194  0.00  0.00    +0.124 A 
ATOM     27  C   UNL     1       5.451   1.824  10.314  0.00  0.00    +0.040 A 
ATOM     28  C   UNL     1       4.820   0.722  10.770  0.00  0.00    +0.029 A 
ATOM     29  C   UNL     1       3.653   0.238  10.116  0.00  0.00    +0.043 A 
ATOM     30  N   UNL     1       2.878  -0.790  10.362  0.00  0.00    -0.380 N 
ATOM     31  C   UNL     1       1.803  -0.815   9.364  0.00  0.00    +0.144 C 
ATOM     32  F   UNL     1       5.691   3.639   8.799  0.00  0.00    -0.205 F 
ATOM     33  H   UNL     1       2.995  -1.427  11.084  0.00  0.00    +0.160 HD
ENDBRANCH  22  23
ENDBRANCH  21  22
ENDBRANCH   3  21
TORSDOF 6
