REMARK  Name = ZINC56055434
REMARK  6 active torsions:
REMARK  status: ('A' for Active; 'I' for Inactive)
REMARK    1  A    between atoms: C_1  and  C_2
REMARK    2  A    between atoms: C_2  and  O_3
REMARK    3  A    between atoms: O_3  and  C_4
REMARK    4  A    between atoms: C_4  and  C_6
REMARK    5  A    between atoms: C_8  and  C_14
REMARK    6  A    between atoms: C_22  and  C_24
REMARK                            x       y       z     vdW  Elec       q    Type
REMARK                         _______ _______ _______ _____ _____    ______ ____
ROOT
ATOM      1  C   UNL     1      -2.902  -2.392   0.257  0.00  0.00    +0.148 C 
ATOM      2  C   UNL     1      -2.965  -3.800   0.113  0.00  0.00    +0.049 C 
ATOM      3  C   UNL     1      -4.300  -4.461   0.403  0.00  0.00    +0.138 C 
ATOM      4  N   UNL     1      -5.399  -3.565   0.806  0.00  0.00    -0.314 N 
ATOM      5  C   UNL     1      -5.153  -2.244   0.889  0.00  0.00    +0.155 C 
ATOM      6  S   UNL     1      -6.430  -1.204   1.358  0.00  0.00    -0.017 S 
ATOM      7  N   UNL     1      -3.962  -1.709   0.630  0.00  0.00    -0.186 NA
ATOM      8  C   UNL     1      -1.886  -4.522  -0.265  0.00  0.00    +0.160 C 
ATOM      9  O   UNL     1      -0.684  -3.925  -0.383  0.00  0.00    -0.293 OA
ATOM     10  C   UNL     1      -2.027  -5.994  -0.555  0.00  0.00    +0.091 C 
ATOM     11  H   UNL     1      -6.279  -3.919   1.006  0.00  0.00    +0.149 HD
ENDROOT
BRANCH   3  12
ATOM     12  C   UNL     1      -4.095  -5.469   1.505  0.00  0.00    -0.021 A 
ATOM     13  C   UNL     1      -3.708  -5.047   2.763  0.00  0.00    +0.007 A 
ATOM     14  C   UNL     1      -3.519  -5.970   3.774  0.00  0.00    +0.022 A 
ATOM     15  C   UNL     1      -3.717  -7.317   3.528  0.00  0.00    +0.059 A 
ATOM     16  C   UNL     1      -4.106  -7.739   2.268  0.00  0.00    +0.060 A 
ATOM     17  C   UNL     1      -4.299  -6.813   1.258  0.00  0.00    +0.027 A 
ATOM     18 CL   UNL     1      -4.354  -9.428   1.956  0.00  0.00    -0.082 Cl
ATOM     19 CL   UNL     1      -3.479  -8.477   4.797  0.00  0.00    -0.082 Cl
ENDBRANCH   3  12
BRANCH   1  20
ATOM     20  C   UNL     1      -1.624  -1.681  -0.012  0.00  0.00    +0.356 C 
ATOM     21  O   UNL     1      -0.774  -1.613   0.852  0.00  0.00    -0.243 OA
BRANCH  20  22
ATOM     22  O   UNL     1      -1.409  -1.113  -1.213  0.00  0.00    -0.461 OA
BRANCH  22  24
ATOM     23  C   UNL     1      -0.098   0.131  -2.817  0.00  0.00    +0.048 C 
ATOM     24  C   UNL     1      -0.159  -0.447  -1.401  0.00  0.00    +0.229 C 
ENDBRANCH  22  24
ENDBRANCH  20  22
ENDBRANCH   1  20
TORSDOF 4
