REMARK  Name = ZINC47439320
REMARK  3 active torsions:
REMARK  status: ('A' for Active; 'I' for Inactive)
REMARK    1  A    between atoms: C_1  and  C_2
REMARK    2  A    between atoms: C_12  and  C_14
REMARK    3  A    between atoms: N_19  and  C_21
REMARK                            x       y       z     vdW  Elec       q    Type
REMARK                         _______ _______ _______ _____ _____    ______ ____
ROOT
ATOM      1  C   UNL     1       2.095  -1.055   2.990  0.00  0.00    +0.147 A 
ATOM      2  C   UNL     1       3.215  -1.918   2.941  0.00  0.00    +0.040 A 
ATOM      3  C   UNL     1       4.011  -2.006   4.045  0.00  0.00    +0.074 A 
ATOM      4  C   UNL     1       3.666  -1.230   5.173  0.00  0.00    +0.272 A 
ATOM      5  O   UNL     1       4.348  -1.277   6.182  0.00  0.00    -0.266 OA
ATOM      6  N   UNL     1       2.579  -0.437   5.126  0.00  0.00    -0.196 N 
ATOM      7  N   UNL     1       1.843  -0.359   4.077  0.00  0.00    -0.159 NA
ENDROOT
BRANCH   1  18
ATOM      8  C   UNL     1      -1.523  -0.149   0.655  0.00  0.00    +0.029 C 
ATOM      9  C   UNL     1      -0.924  -1.556   0.678  0.00  0.00    +0.083 C 
ATOM     10  C   UNL     1      -2.005  -2.590   1.035  0.00  0.00    +0.059 C 
ATOM     11  C   UNL     1      -1.514  -3.226   2.316  0.00  0.00    -0.024 A 
ATOM     12  C   UNL     1      -2.065  -4.218   3.105  0.00  0.00    +0.005 A 
ATOM     13  C   UNL     1      -1.414  -4.636   4.250  0.00  0.00    +0.000 A 
ATOM     14  C   UNL     1      -0.208  -4.060   4.606  0.00  0.00    +0.002 A 
ATOM     15  C   UNL     1       0.346  -3.071   3.822  0.00  0.00    +0.024 A 
ATOM     16  C   UNL     1      -0.306  -2.642   2.663  0.00  0.00    +0.040 A 
ATOM     17  N   UNL     1       0.080  -1.665   1.739  0.00  0.00    -0.263 N 
ATOM     18  C   UNL     1       1.208  -0.931   1.813  0.00  0.00    +0.271 C 
ATOM     19  O   UNL     1       1.496  -0.167   0.913  0.00  0.00    -0.268 OA
ENDBRANCH   1  18
BRANCH   6  20
ATOM     20  C   UNL     1       2.246   0.329   6.248  0.00  0.00    +0.069 A 
ATOM     21  C   UNL     1       1.945   1.677   6.107  0.00  0.00    +0.031 A 
ATOM     22  C   UNL     1       1.617   2.431   7.216  0.00  0.00    +0.040 A 
ATOM     23  C   UNL     1       1.587   1.842   8.470  0.00  0.00    +0.124 A 
ATOM     24  C   UNL     1       1.887   0.498   8.614  0.00  0.00    +0.040 A 
ATOM     25  C   UNL     1       2.211  -0.261   7.506  0.00  0.00    +0.031 A 
ATOM     26  F   UNL     1       1.266   2.581   9.554  0.00  0.00    -0.205 F 
ENDBRANCH   6  20
TORSDOF 2
