REMARK  Name = ZINC09962852
REMARK  7 active torsions:
REMARK  status: ('A' for Active; 'I' for Inactive)
REMARK    1  A    between atoms: C_1  and  C_2
REMARK    2  A    between atoms: C_5  and  C_34
REMARK    3  A    between atoms: C_10  and  C_12
REMARK    4  A    between atoms: C_12  and  N_13
REMARK    5  A    between atoms: C_16  and  S_24
REMARK    6  A    between atoms: S_24  and  N_27
REMARK    7  A    between atoms: C_30  and  C_33
REMARK                            x       y       z     vdW  Elec       q    Type
REMARK                         _______ _______ _______ _____ _____    ______ ____
ROOT
ATOM      1  N   UNL     1       2.800   1.656   4.329  0.00  0.00    -0.256 N 
ATOM      2  C   UNL     1       3.555   0.969   5.290  0.00  0.00    +0.081 A 
ATOM      3  C   UNL     1       3.767  -0.396   5.180  0.00  0.00    +0.055 A 
ATOM      4  C   UNL     1       4.514  -1.055   6.139  0.00  0.00    +0.107 A 
ATOM      5  C   UNL     1       5.050  -0.356   7.205  0.00  0.00    +0.032 A 
ATOM      6  C   UNL     1       4.843   1.007   7.320  0.00  0.00    +0.049 A 
ATOM      7  C   UNL     1       4.097   1.674   6.364  0.00  0.00    +0.143 A 
ATOM      8  O   UNL     1       3.885   3.014   6.459  0.00  0.00    -0.481 OA
ATOM      9  C   UNL     1       3.787   3.738   5.230  0.00  0.00    +0.325 C 
ATOM     10  C   UNL     1       2.876   3.004   4.278  0.00  0.00    +0.258 C 
ATOM     11  O   UNL     1       2.212   3.621   3.473  0.00  0.00    -0.271 OA
ENDROOT
BRANCH   4  12
ATOM     12  S   UNL     1       4.784  -2.791   6.002  0.00  0.00    +0.061 S 
ATOM     13  O   UNL     1       5.056  -3.264   7.314  0.00  0.00    -0.153 OA
ATOM     14  O   UNL     1       3.722  -3.306   5.211  0.00  0.00    -0.153 OA
BRANCH  12  15
ATOM     15  N   UNL     1       6.173  -3.002   5.126  0.00  0.00    -0.177 NA
ATOM     16  C   UNL     1       6.125  -3.113   3.662  0.00  0.00    +0.110 C 
ATOM     17  C   UNL     1       6.846  -4.398   3.240  0.00  0.00    +0.020 C 
ATOM     18  C   UNL     1       8.261  -4.399   3.825  0.00  0.00    -0.012 C 
ATOM     19  C   UNL     1       8.183  -4.367   5.353  0.00  0.00    +0.020 C 
ATOM     20  C   UNL     1       7.478  -3.077   5.798  0.00  0.00    +0.110 C 
ATOM     21  C   UNL     1       8.996  -5.664   3.377  0.00  0.00    +0.007 C 
ENDBRANCH  12  15
ENDBRANCH   4  12
BRANCH   1  22
ATOM     22  C   UNL     1       1.946   0.923   3.391  0.00  0.00    +0.209 C 
BRANCH  22  30
ATOM     23  C   UNL     1      -0.019   1.526   0.010  0.00  0.00    +0.009 C 
ATOM     24  C   UNL     1       0.002  -0.004   0.002  0.00  0.00    +0.004 C 
ATOM     25  C   UNL     1       0.720  -0.498  -1.256  0.00  0.00    +0.009 C 
ATOM     26  C   UNL     1       2.145   0.059  -1.285  0.00  0.00    +0.004 C 
ATOM     27  C   UNL     1       2.912  -0.448  -0.060  0.00  0.00    +0.111 C 
ATOM     28  N   UNL     1       2.153  -0.103   1.150  0.00  0.00    -0.300 N 
ATOM     29  C   UNL     1       0.744  -0.512   1.242  0.00  0.00    +0.111 C 
ATOM     30  C   UNL     1       2.738   0.577   2.157  0.00  0.00    +0.233 C 
ATOM     31  O   UNL     1       3.901   0.908   2.069  0.00  0.00    -0.274 OA
ATOM     32  C   UNL     1       2.850  -0.408  -2.559  0.00  0.00    +0.009 C 
ENDBRANCH  22  30
ENDBRANCH   1  22
TORSDOF 4
