REMARK  Name = ZINC05339813
REMARK  7 active torsions:
REMARK  status: ('A' for Active; 'I' for Inactive)
REMARK    1  A    between atoms: C_1  and  C_2
REMARK    2  A    between atoms: C_5  and  N_22
REMARK    3  A    between atoms: C_7  and  N_8
REMARK    4  A    between atoms: C_9  and  C_11
REMARK    5  A    between atoms: N_13  and  C_14
REMARK    6  A    between atoms: C_14  and  C_15
REMARK    7  A    between atoms: C_15  and  C_16
REMARK                            x       y       z     vdW  Elec       q    Type
REMARK                         _______ _______ _______ _____ _____    ______ ____
ROOT
ATOM      1  N   UNL     1       2.400   1.108  -0.015  0.00  0.00    -0.277 N 
ATOM      2  C   UNL     1       2.424  -0.236   0.080  0.00  0.00    +0.303 C 
ATOM      3  O   UNL     1       1.384  -0.863   0.087  0.00  0.00    -0.265 OA
ATOM      4  H   UNL     1       3.230   1.604  -0.086  0.00  0.00    +0.155 HD
ENDROOT
BRANCH   1  11
ATOM      5  C   UNL     1       2.288   3.655   1.244  0.00  0.00    +0.045 C 
ATOM      6  C   UNL     1       1.079   3.035   0.594  0.00  0.00    -0.029 A 
ATOM      7  C   UNL     1      -0.129   3.706   0.600  0.00  0.00    +0.007 A 
ATOM      8  C   UNL     1      -1.240   3.141   0.005  0.00  0.00    +0.025 A 
ATOM      9  C   UNL     1      -1.146   1.896  -0.606  0.00  0.00    +0.053 A 
ATOM     10  C   UNL     1       0.064   1.216  -0.608  0.00  0.00    +0.048 A 
ATOM     11  C   UNL     1       1.179   1.787  -0.010  0.00  0.00    +0.039 A 
BRANCH   9  12
ATOM     12  N   UNL     1      -2.268   1.327  -1.212  0.00  0.00    -0.207 N 
ATOM     13  C   UNL     1      -2.283   0.334  -2.301  0.00  0.00    +0.133 C 
ATOM     14  C   UNL     1      -3.540  -0.556  -2.210  0.00  0.00    +0.045 C 
ATOM     15  C   UNL     1      -4.716   0.435  -1.961  0.00  0.00    +0.190 C 
ATOM     16  S   UNL     1      -3.876   1.640  -0.855  0.00  0.00    +0.046 S 
ATOM     17  O   UNL     1      -4.041   1.272   0.508  0.00  0.00    -0.155 OA
ATOM     18  O   UNL     1      -4.110   2.972  -1.291  0.00  0.00    -0.155 OA
ENDBRANCH   9  12
ENDBRANCH   1  11
BRANCH   2  19
ATOM     19  C   UNL     1       3.730  -0.955   0.177  0.00  0.00    +0.299 C 
ATOM     20  O   UNL     1       4.769  -0.328   0.170  0.00  0.00    -0.265 OA
ATOM     21  N   UNL     1       3.754  -2.299   0.272  0.00  0.00    -0.307 N 
ATOM     22  H   UNL     1       2.923  -2.800   0.277  0.00  0.00    +0.149 HD
BRANCH  21  23
ATOM     23  C   UNL     1       5.034  -3.004   0.366  0.00  0.00    +0.109 C 
BRANCH  23  24
ATOM     24  C   UNL     1       4.782  -4.510   0.462  0.00  0.00    +0.049 C 
BRANCH  24  25
ATOM     25  C   UNL     1       6.099  -5.235   0.560  0.00  0.00    -0.072 C 
ATOM     26  C   UNL     1       6.541  -5.535   1.739  0.00  0.00    -0.028 C 
ATOM     27  C   UNL     1       7.838  -6.245   1.995  0.00  0.00    +0.027 C 
ATOM     28  C   UNL     1       8.330  -6.923   0.715  0.00  0.00    +0.004 C 
ATOM     29  C   UNL     1       8.282  -5.898  -0.426  0.00  0.00    +0.005 C 
ATOM     30  C   UNL     1       6.814  -5.570  -0.716  0.00  0.00    +0.030 C 
ENDBRANCH  24  25
ENDBRANCH  23  24
ENDBRANCH  21  23
ENDBRANCH   2  19
TORSDOF 6
