REMARK  Name = ZINC42608048
REMARK  4 active torsions:
REMARK  status: ('A' for Active; 'I' for Inactive)
REMARK    1  A    between atoms: C_1  and  C_2
REMARK    2  A    between atoms: C_8  and  N_10
REMARK    3  A    between atoms: N_10  and  C_11
REMARK    4  A    between atoms: N_10  and  C_12
REMARK                            x       y       z     vdW  Elec       q    Type
REMARK                         _______ _______ _______ _____ _____    ______ ____
ROOT
ATOM      1  C   UNL     1       0.921   0.999   3.095  0.00  0.00    +0.031 A 
ATOM      2  C   UNL     1       2.238   1.292   2.743  0.00  0.00    +0.024 A 
ATOM      3  C   UNL     1       2.961   2.188   3.478  0.00  0.00    +0.015 A 
ATOM      4  C   UNL     1       2.378   2.814   4.584  0.00  0.00    +0.048 A 
ATOM      5  C   UNL     1       1.049   2.527   4.947  0.00  0.00    +0.047 A 
ATOM      6  C   UNL     1       0.327   1.620   4.190  0.00  0.00    +0.047 A 
ATOM      7  N   UNL     1       0.702   3.271   6.073  0.00  0.00    -0.278 N 
ATOM      8  C   UNL     1       1.724   4.041   6.484  0.00  0.00    +0.289 C 
ATOM      9  O   UNL     1       1.716   4.793   7.436  0.00  0.00    -0.266 OA
ATOM     10  C   UNL     1       2.875   3.800   5.554  0.00  0.00    +0.249 C 
ATOM     11  O   UNL     1       3.977   4.309   5.594  0.00  0.00    -0.282 OA
ATOM     12  H   UNL     1      -0.166   3.237   6.504  0.00  0.00    +0.155 HD
ENDROOT
BRANCH   1  13
ATOM     13  N   UNL     1       0.195   0.086   2.343  0.00  0.00    -0.330 N 
ATOM     14  C   UNL     1      -1.228  -0.124   2.620  0.00  0.00    +0.129 C 
BRANCH  13  21
ATOM     15  C   UNL     1      -1.208  -0.469  -0.129  0.00  0.00    +0.009 C 
ATOM     16  C   UNL     1      -0.200  -1.446   0.478  0.00  0.00    +0.006 C 
ATOM     17  C   UNL     1      -0.928  -2.416   1.411  0.00  0.00    +0.005 C 
ATOM     18  C   UNL     1       0.080  -3.393   2.019  0.00  0.00    +0.000 C 
ATOM     19  C   UNL     1       1.131  -2.614   2.812  0.00  0.00    +0.002 C 
ATOM     20  C   UNL     1       1.859  -1.645   1.879  0.00  0.00    +0.022 C 
ATOM     21  C   UNL     1       0.851  -0.667   1.272  0.00  0.00    +0.076 C 
ENDBRANCH  13  21
ENDBRANCH   1  13
TORSDOF 2
