REMARK  Name = ZINC08940404
REMARK  5 active torsions:
REMARK  status: ('A' for Active; 'I' for Inactive)
REMARK    1  A    between atoms: C_3  and  C_6
REMARK    2  A    between atoms: C_12  and  C_14
REMARK    3  A    between atoms: C_14  and  N_50
REMARK    4  A    between atoms: N_17  and  S_20
REMARK    5  A    between atoms: S_20  and  C_23
REMARK                            x       y       z     vdW  Elec       q    Type
REMARK                         _______ _______ _______ _____ _____    ______ ____
ROOT
ATOM      1  C   UNL     1      -1.694   5.116   3.668  0.00  0.00    -0.061 C 
ATOM      2  C   UNL     1      -2.271   5.657   2.356  0.00  0.00    +0.091 C 
ATOM      3  N   UNL     1      -2.913   4.548   1.635  0.00  0.00    -0.180 NA
ATOM      4  C   UNL     1      -3.889   3.720   2.360  0.00  0.00    +0.091 C 
ATOM      5  C   UNL     1      -3.244   3.251   3.673  0.00  0.00    -0.061 C 
ATOM      6  N   UNL     1      -2.773   4.439   4.419  0.00  0.00    +0.387 N 
ATOM      7  H   UNL     1      -3.558   5.091   4.535  0.00  0.00    -0.081 HD
ENDROOT
BRANCH   3   8
ATOM      8  S   UNL     1      -2.551   4.243   0.049  0.00  0.00    +0.067 S 
ATOM      9  O   UNL     1      -2.072   5.463  -0.500  0.00  0.00    -0.152 OA
ATOM     10  O   UNL     1      -3.664   3.547  -0.496  0.00  0.00    -0.152 OA
BRANCH   8  11
ATOM     11  C   UNL     1      -1.196   3.116   0.030  0.00  0.00    +0.143 A 
ATOM     12  C   UNL     1      -1.213   1.761   0.017  0.00  0.00    +0.036 A 
ATOM     13  C   UNL     1      -0.013   1.076   0.008  0.00  0.00    +0.010 A 
ATOM     14  C   UNL     1       1.146   1.780   0.001  0.00  0.00    +0.047 A 
ATOM     15  S   UNL     1       0.555   3.464   0.015  0.00  0.00    -0.077 S 
ENDBRANCH   8  11
ENDBRANCH   3   8
BRANCH   6  16
ATOM     16  C   UNL     1      -2.284   4.035   5.753  0.00  0.00    +0.019 C 
BRANCH  16  22
ATOM     17  C   UNL     1      -4.308   2.651   8.751  0.00  0.00    +0.113 C 
ATOM     18  C   UNL     1      -3.629   2.325  10.098  0.00  0.00    +0.029 C 
ATOM     19  C   UNL     1      -2.341   3.189  10.054  0.00  0.00    +0.021 C 
ATOM     20  C   UNL     1      -1.970   3.118   8.552  0.00  0.00    +0.108 C 
ATOM     21  N   UNL     1      -3.261   3.141   7.842  0.00  0.00    -0.295 N 
ATOM     22  C   UNL     1      -3.452   3.549   6.572  0.00  0.00    +0.199 C 
ATOM     23  O   UNL     1      -4.564   3.526   6.088  0.00  0.00    -0.278 OA
BRANCH  17  26
ATOM     24  C   UNL     1      -6.596  -0.166   7.593  0.00  0.00    +0.008 A 
ATOM     25  C   UNL     1      -6.242   1.033   8.183  0.00  0.00    +0.013 A 
ATOM     26  C   UNL     1      -4.939   1.406   8.183  0.00  0.00    +0.010 A 
ATOM     27  S   UNL     1      -4.162   0.036   7.342  0.00  0.00    -0.100 S 
ATOM     28  C   UNL     1      -5.628  -0.938   7.041  0.00  0.00    +0.045 A 
ENDBRANCH  17  26
ENDBRANCH  16  22
ENDBRANCH   6  16
TORSDOF 5
