REMARK  Name = ZINC60466127
REMARK  6 active torsions:
REMARK  status: ('A' for Active; 'I' for Inactive)
REMARK    1  A    between atoms: C_1  and  C_2
REMARK    2  A    between atoms: C_7  and  N_8
REMARK    3  A    between atoms: C_12  and  C_14
REMARK    4  A    between atoms: C_14  and  N_15
REMARK    5  A    between atoms: N_15  and  C_16
REMARK    6  A    between atoms: C_19  and  N_22
REMARK                            x       y       z     vdW  Elec       q    Type
REMARK                         _______ _______ _______ _____ _____    ______ ____
ROOT
ATOM      1  N   UNL     1       2.104   0.029   1.235  0.00  0.00    -0.296 N 
ATOM      2  C   UNL     1       2.787   0.148   2.390  0.00  0.00    +0.306 C 
ATOM      3  O   UNL     1       2.264  -0.167   3.441  0.00  0.00    -0.252 OA
ATOM      4  N   UNL     1       4.051   0.618   2.381  0.00  0.00    -0.239 N 
ATOM      5  C   UNL     1       4.734   0.737   3.537  0.00  0.00    +0.237 C 
ATOM      6  O   UNL     1       4.212   0.423   4.585  0.00  0.00    -0.274 OA
ATOM      7  H   UNL     1       2.522   0.280   0.396  0.00  0.00    +0.151 HD
ATOM      8  H   UNL     1       4.468   0.869   1.543  0.00  0.00    +0.159 HD
ENDROOT
BRANCH   1  15
ATOM      9  C   UNL     1      -0.039   1.567   0.040  0.00  0.00    +0.009 C 
ATOM     10  C   UNL     1      -0.015   0.038   0.014  0.00  0.00    +0.006 C 
ATOM     11  C   UNL     1       0.697  -0.439  -1.253  0.00  0.00    +0.005 C 
ATOM     12  C   UNL     1       0.721  -1.969  -1.279  0.00  0.00    +0.000 C 
ATOM     13  C   UNL     1       1.467  -2.489  -0.049  0.00  0.00    +0.002 C 
ATOM     14  C   UNL     1       0.755  -2.011   1.218  0.00  0.00    +0.022 C 
ATOM     15  C   UNL     1       0.731  -0.482   1.245  0.00  0.00    +0.077 C 
ENDBRANCH   1  15
BRANCH   5  16
ATOM     16  C   UNL     1       6.146   1.262   3.527  0.00  0.00    +0.198 C 
BRANCH  16  17
ATOM     17  N   UNL     1       6.665   1.296   4.896  0.00  0.00    -0.335 N 
ATOM     18  H   UNL     1       6.106   1.004   5.634  0.00  0.00    +0.147 HD
BRANCH  17  19
ATOM     19  C   UNL     1       7.965   1.750   5.141  0.00  0.00    +0.028 A 
ATOM     20  C   UNL     1       8.763   2.174   4.086  0.00  0.00    +0.025 A 
ATOM     21  C   UNL     1      10.046   2.621   4.328  0.00  0.00    +0.025 A 
ATOM     22  C   UNL     1      10.540   2.648   5.625  0.00  0.00    +0.036 A 
ATOM     23  C   UNL     1       9.742   2.224   6.680  0.00  0.00    +0.025 A 
ATOM     24  C   UNL     1       8.457   1.782   6.440  0.00  0.00    +0.025 A 
BRANCH  22  25
ATOM     25  N   UNL     1      11.843   3.102   5.870  0.00  0.00    -0.271 N 
ATOM     26  C   UNL     1      12.421   3.277   7.208  0.00  0.00    +0.114 C 
ATOM     27  C   UNL     1      13.948   3.358   6.990  0.00  0.00    +0.029 C 
ATOM     28  C   UNL     1      14.031   3.870   5.533  0.00  0.00    +0.098 C 
ATOM     29  C   UNL     1      12.726   3.427   4.910  0.00  0.00    +0.220 C 
ATOM     30  O   UNL     1      12.507   3.376   3.719  0.00  0.00    -0.275 OA
ENDBRANCH  22  25
ENDBRANCH  17  19
ENDBRANCH  16  17
ENDBRANCH   5  16
TORSDOF 5
