REMARK  Name = ZINC66702677
REMARK  7 active torsions:
REMARK  status: ('A' for Active; 'I' for Inactive)
REMARK    1  A    between atoms: C_1  and  C_2
REMARK    2  A    between atoms: C_10  and  C_11
REMARK    3  A    between atoms: C_11  and  C_13
REMARK    4  A    between atoms: C_11  and  N_14
REMARK    5  A    between atoms: N_17  and  C_18
REMARK    6  A    between atoms: C_18  and  C_19
REMARK    7  A    between atoms: C_23  and  C_25
REMARK                            x       y       z     vdW  Elec       q    Type
REMARK                         _______ _______ _______ _____ _____    ______ ____
ROOT
ATOM      1  N   UNL     1      -0.928  -1.145   3.277  0.00  0.00    -0.290 N 
ATOM      2  C   UNL     1      -1.473  -0.636   4.399  0.00  0.00    +0.301 C 
ATOM      3  O   UNL     1      -1.169   0.481   4.770  0.00  0.00    -0.253 OA
ATOM      4  N   UNL     1      -2.355  -1.366   5.111  0.00  0.00    -0.292 N 
ATOM      5  H   UNL     1      -1.171  -2.037   2.981  0.00  0.00    +0.151 HD
ATOM      6  H   UNL     1      -2.598  -2.257   4.815  0.00  0.00    +0.151 HD
ENDROOT
BRANCH   1   7
ATOM      7  C   UNL     1       0.030  -0.352   2.503  0.00  0.00    +0.138 C 
ATOM      8  C   UNL     1       1.432  -0.532   3.090  0.00  0.00    +0.036 C 
BRANCH   7  18
ATOM      9  C   UNL     1      -0.018   1.503   0.010  0.00  0.00    +0.048 C 
ATOM     10  C   UNL     1       0.002  -0.004   0.002  0.00  0.00    +0.000 A 
ATOM     11  C   UNL     1       0.009  -0.879  -1.177  0.00  0.00    +0.026 A 
ATOM     12  C   UNL     1       0.000  -0.659  -2.553  0.00  0.00    +0.050 A 
ATOM     13  C   UNL     1       0.011  -1.735  -3.415  0.00  0.00    +0.124 A 
ATOM     14  C   UNL     1       0.031  -3.031  -2.915  0.00  0.00    +0.042 A 
ATOM     15  C   UNL     1       0.039  -3.260  -1.556  0.00  0.00    +0.049 A 
ATOM     16  C   UNL     1       0.029  -2.189  -0.671  0.00  0.00    +0.136 A 
ATOM     17  O   UNL     1       0.033  -2.099   0.674  0.00  0.00    -0.458 OA
ATOM     18  C   UNL     1       0.023  -0.814   1.069  0.00  0.00    +0.129 A 
ATOM     19  F   UNL     1       0.002  -1.529  -4.750  0.00  0.00    -0.205 F 
ENDBRANCH   7  18
ENDBRANCH   1   7
BRANCH   4  20
ATOM     20  C   UNL     1      -2.948  -0.812   6.331  0.00  0.00    +0.181 C 
BRANCH  20  21
ATOM     21  C   UNL     1      -3.893  -1.821   6.933  0.00  0.00    +0.143 A 
ATOM     22  N   UNL     1      -3.592  -2.699   7.906  0.00  0.00    -0.261 N 
ATOM     23  H   UNL     1      -2.735  -2.803   8.349  0.00  0.00    +0.190 HD
ATOM     24  N   UNL     1      -4.761  -3.436   8.155  0.00  0.00    -0.152 NA
ATOM     25  C   UNL     1      -5.682  -2.972   7.337  0.00  0.00    +0.188 A 
ATOM     26  N   UNL     1      -5.146  -1.987   6.601  0.00  0.00    -0.209 NA
BRANCH  25  27
ATOM     27  C   UNL     1      -7.078  -3.453   7.247  0.00  0.00    +0.058 A 
ATOM     28  C   UNL     1      -7.698  -4.439   7.966  0.00  0.00    +0.019 A 
ATOM     29  C   UNL     1      -9.022  -4.717   7.705  0.00  0.00    +0.008 A 
ATOM     30  C   UNL     1      -9.670  -4.006   6.746  0.00  0.00    +0.046 A 
ATOM     31  S   UNL     1      -8.394  -2.894   6.179  0.00  0.00    -0.093 S 
ENDBRANCH  25  27
ENDBRANCH  20  21
ENDBRANCH   4  20
TORSDOF 5
