REMARK  Name = ZINC49418692
REMARK  4 active torsions:
REMARK  status: ('A' for Active; 'I' for Inactive)
REMARK    1  A    between atoms: C_1  and  C_2
REMARK    2  A    between atoms: C_5  and  N_14
REMARK    3  A    between atoms: N_6  and  C_7
REMARK    4  A    between atoms: C_7  and  C_8
REMARK                            x       y       z     vdW  Elec       q    Type
REMARK                         _______ _______ _______ _____ _____    ______ ____
ROOT
ATOM      1  C   UNL     1      -0.018   1.503   0.010  0.00  0.00    +0.086 C 
ATOM      2  C   UNL     1       0.002  -0.004   0.002  0.00  0.00    +0.108 A 
ATOM      3  N   UNL     1       0.008  -0.759  -1.063  0.00  0.00    -0.238 NA
ATOM      4  C   UNL     1       0.028  -2.047  -0.691  0.00  0.00    +0.164 A 
ATOM      5  C   UNL     1       0.035  -2.093   0.655  0.00  0.00    +0.216 A 
ATOM      6  N   UNL     1       0.023  -0.797   1.095  0.00  0.00    -0.305 N 
ENDROOT
BRANCH   5   7
ATOM      7  N   UNL     1       0.055  -3.311   1.496  0.00  0.00    +0.075 N 
ATOM      8  O   UNL     1       0.069  -4.403   0.979  0.00  0.00    -0.125 OA
ATOM      9  O   UNL     1       0.059  -3.213   2.701  0.00  0.00    -0.125 OA
ENDBRANCH   5   7
BRANCH   6  10
ATOM     10  C   UNL     1       0.030  -0.353   2.491  0.00  0.00    +0.160 C 
BRANCH  10  11
ATOM     11  C   UNL     1      -1.389  -0.221   2.983  0.00  0.00    -0.020 A 
ATOM     12  C   UNL     1      -2.070   0.974   2.846  0.00  0.00    +0.028 A 
ATOM     13  C   UNL     1      -3.346   1.059   3.299  0.00  0.00    +0.055 A 
ATOM     14  S   UNL     1      -3.619  -0.583   3.943  0.00  0.00    -0.090 S 
ATOM     15  C   UNL     1      -2.017  -1.273   3.560  0.00  0.00    +0.051 A 
ATOM     16 BR   UNL     1      -4.528   2.534   3.260  0.00  0.00    -0.043 Br
ENDBRANCH  10  11
ENDBRANCH   6  10
TORSDOF 3
