REMARK  Name = ZINC36537221
REMARK  9 active torsions:
REMARK  status: ('A' for Active; 'I' for Inactive)
REMARK    1  A    between atoms: C_1  and  C_2
REMARK    2  A    between atoms: C_2  and  C_3
REMARK    3  A    between atoms: C_2  and  C_4
REMARK    4  A    between atoms: C_2  and  N_5
REMARK    5  A    between atoms: C_6  and  C_8
REMARK    6  A    between atoms: C_8  and  C_10
REMARK    7  A    between atoms: C_8  and  N_24
REMARK    8  A    between atoms: N_24  and  C_25
REMARK    9  A    between atoms: C_26  and  C_28
REMARK                            x       y       z     vdW  Elec       q    Type
REMARK                         _______ _______ _______ _____ _____    ______ ____
ROOT
ATOM      1  C   UNL     1       2.711  -0.713  -2.607  0.00  0.00    +0.193 C 
ENDROOT
BRANCH   1   2
ATOM      2  C   UNL     1       2.121  -0.195  -3.894  0.00  0.00    -0.010 A 
ATOM      3  C   UNL     1       1.365   0.921  -3.870  0.00  0.00    +0.015 A 
ATOM      4  C   UNL     1       0.790   1.447  -5.050  0.00  0.00    -0.017 A 
ATOM      5  C   UNL     1       0.005   2.609  -5.016  0.00  0.00    +0.008 A 
ATOM      6  C   UNL     1      -0.537   3.094  -6.169  0.00  0.00    +0.001 A 
ATOM      7  C   UNL     1      -0.323   2.453  -7.384  0.00  0.00    +0.001 A 
ATOM      8  C   UNL     1       0.436   1.320  -7.451  0.00  0.00    +0.009 A 
ATOM      9  C   UNL     1       1.005   0.799  -6.287  0.00  0.00    -0.010 A 
ATOM     10  C   UNL     1       1.827  -0.414  -6.312  0.00  0.00    -0.010 A 
ATOM     11  C   UNL     1       2.378  -0.886  -5.100  0.00  0.00    -0.012 A 
ATOM     12  C   UNL     1       3.171  -2.043  -5.114  0.00  0.00    +0.009 A 
ATOM     13  C   UNL     1       3.402  -2.690  -6.293  0.00  0.00    +0.001 A 
ATOM     14  C   UNL     1       2.863  -2.220  -7.484  0.00  0.00    +0.001 A 
ATOM     15  C   UNL     1       2.077  -1.103  -7.501  0.00  0.00    +0.009 A 
ENDBRANCH   1   2
BRANCH   1  17
ATOM     16  N   UNL     1       0.727  -0.380  -1.167  0.00  0.00    -0.309 N 
ATOM     17  C   UNL     1       2.010  -0.069  -1.438  0.00  0.00    +0.238 C 
ATOM     18  O   UNL     1       2.600   0.729  -0.742  0.00  0.00    -0.273 OA
ATOM     19  H   UNL     1       0.232  -0.961  -1.766  0.00  0.00    +0.149 HD
BRANCH  16  21
ATOM     20  C   UNL     1       0.085   1.687  -0.029  0.00  0.00    +0.031 C 
ATOM     21  C   UNL     1       0.080   0.158   0.032  0.00  0.00    +0.026 C 
ATOM     22  C   UNL     1       0.843  -0.306   1.274  0.00  0.00    +0.031 C 
ATOM     23  C   UNL     1      -1.363  -0.345   0.103  0.00  0.00    +0.031 C 
ENDBRANCH  16  21
ENDBRANCH   1  17
BRANCH   1  24
ATOM     24  N   UNL     1       4.139  -0.389  -2.559  0.00  0.00    -0.287 N 
ATOM     25  C   UNL     1       4.582   0.997  -2.730  0.00  0.00    +0.133 C 
ATOM     26  C   UNL     1       5.045  -1.367  -2.357  0.00  0.00    +0.237 C 
ATOM     27  O   UNL     1       4.678  -2.514  -2.215  0.00  0.00    -0.274 OA
BRANCH  26  28
ATOM     28  C   UNL     1       6.513  -1.034  -2.307  0.00  0.00    +0.159 C 
ATOM     29  C   UNL     1       7.082  -0.907  -3.738  0.00  0.00    +0.041 C 
ATOM     30  C   UNL     1       7.617  -2.336  -3.992  0.00  0.00    +0.098 C 
ATOM     31  C   UNL     1       7.887  -2.882  -2.607  0.00  0.00    +0.214 C 
ATOM     32  O   UNL     1       8.569  -3.856  -2.366  0.00  0.00    -0.276 OA
ATOM     33  N   UNL     1       7.262  -2.131  -1.682  0.00  0.00    -0.304 N 
ATOM     34  H   UNL     1       7.301  -2.292  -0.726  0.00  0.00    +0.149 HD
ENDBRANCH  26  28
ENDBRANCH   1  24
TORSDOF 5
