REMARK  Name = ZINC33812541
REMARK  12 active torsions:
REMARK  status: ('A' for Active; 'I' for Inactive)
REMARK    1  A    between atoms: C_1  and  C_2
REMARK    2  A    between atoms: C_2  and  C_3
REMARK    3  A    between atoms: C_3  and  N_4
REMARK    4  A    between atoms: C_5  and  N_25
REMARK    5  A    between atoms: C_6  and  C_14
REMARK    6  A    between atoms: C_7  and  C_13
REMARK    7  A    between atoms: C_8  and  C_11
REMARK    8  A    between atoms: N_18  and  C_22
REMARK    9  A    between atoms: C_22  and  C_23
REMARK   10  A    between atoms: C_23  and  C_24
REMARK   11  A    between atoms: N_28  and  C_31
REMARK   12  A    between atoms: C_31  and  C_32
REMARK                            x       y       z     vdW  Elec       q    Type
REMARK                         _______ _______ _______ _____ _____    ______ ____
ROOT
ATOM      1  N   UNL     1       0.332  -2.180  -1.303  0.00  0.00    -0.295 N 
ATOM      2  C   UNL     1       1.461  -2.713  -0.770  0.00  0.00    +0.112 A 
ATOM      3  C   UNL     1       1.830  -4.038  -1.060  0.00  0.00    +0.019 A 
ATOM      4  C   UNL     1       1.019  -4.811  -1.907  0.00  0.00    -0.017 A 
ATOM      5  C   UNL     1      -0.133  -4.241  -2.440  0.00  0.00    +0.120 A 
ATOM      6  C   UNL     1      -0.464  -2.901  -2.113  0.00  0.00    +0.270 A 
ATOM      7  O   UNL     1      -1.474  -2.398  -2.572  0.00  0.00    -0.266 OA
ATOM      8  C   UNL     1       1.392  -6.234  -2.235  0.00  0.00    +0.046 C 
ENDROOT
BRANCH   3   9
ATOM      9  C   UNL     1       3.050  -4.607  -0.483  0.00  0.00    +0.032 C 
ATOM     10  C   UNL     1       2.967  -5.641   0.398  0.00  0.00    +0.077 C 
ATOM     11  C   UNL     1       4.012  -6.373   1.039  0.00  0.00    +0.258 C 
ATOM     12  O   UNL     1       5.183  -6.109   0.831  0.00  0.00    -0.269 OA
ATOM     13  N   UNL     1       3.671  -7.346   1.866  0.00  0.00    -0.255 N 
ATOM     14  C   UNL     1       2.371  -7.639   2.097  0.00  0.00    +0.121 C 
ATOM     15  S   UNL     1       1.708  -8.844   3.117  0.00  0.00    -0.027 S 
ATOM     16  S   UNL     1       1.522  -6.445   1.075  0.00  0.00    -0.061 S 
BRANCH  13  17
ATOM     17  C   UNL     1       4.716  -8.120   2.542  0.00  0.00    +0.115 C 
BRANCH  17  18
ATOM     18  C   UNL     1       5.064  -7.452   3.873  0.00  0.00    +0.016 C 
ATOM     19  C   UNL     1       6.155  -8.259   4.579  0.00  0.00    +0.005 C 
ENDBRANCH  17  18
ENDBRANCH  13  17
ENDBRANCH   3   9
BRANCH   2  20
ATOM     20  N   UNL     1       2.244  -1.957   0.052  0.00  0.00    -0.320 N 
ATOM     21  C   UNL     1       3.289  -1.078  -0.496  0.00  0.00    +0.088 C 
ATOM     22  C   UNL     1       4.599  -1.359   0.248  0.00  0.00    -0.060 C 
ATOM     23  N   UNL     1       4.381  -1.214   1.693  0.00  0.00    +0.382 N 
ATOM     24  C   UNL     1       3.435  -2.235   2.161  0.00  0.00    -0.060 C 
ATOM     25  C   UNL     1       2.064  -1.993   1.512  0.00  0.00    +0.088 C 
ATOM     26  H   UNL     1       4.008  -0.297   1.885  0.00  0.00    -0.082 HD
BRANCH  23  27
ATOM     27  C   UNL     1       5.660  -1.375   2.397  0.00  0.00    -0.082 C 
ATOM     28  C   UNL     1       5.459  -1.101   3.889  0.00  0.00    -0.017 C 
ENDBRANCH  23  27
ENDBRANCH   2  20
BRANCH   5  29
ATOM     29  C   UNL     1      -0.981  -5.002  -3.308  0.00  0.00    +0.105 C 
ATOM     30  N   UNL     1      -1.653  -5.606  -3.996  0.00  0.00    -0.191 NA
ENDBRANCH   5  29
BRANCH   1  31
ATOM     31  C   UNL     1      -0.029  -0.796  -0.985  0.00  0.00    +0.126 C 
BRANCH  31  33
ATOM     32  C   UNL     1      -1.390   0.663   0.519  0.00  0.00    +0.005 C 
ATOM     33  C   UNL     1      -1.012  -0.782   0.187  0.00  0.00    +0.018 C 
ENDBRANCH  31  33
ENDBRANCH   1  31
TORSDOF 8
