REMARK  Name = ZINC17032424
REMARK  3 active torsions:
REMARK  status: ('A' for Active; 'I' for Inactive)
REMARK    1  A    between atoms: C_1  and  C_2
REMARK    2  A    between atoms: C_5  and  N_25
REMARK    3  A    between atoms: C_7  and  N_8
REMARK                            x       y       z     vdW  Elec       q    Type
REMARK                         _______ _______ _______ _____ _____    ______ ____
ROOT
ATOM      1  N   UNL     1      -2.217   0.694   2.306  0.00  0.00    -0.210 N 
ATOM      2  C   UNL     1      -2.531   1.577   1.351  0.00  0.00    +0.231 C 
ATOM      3  O   UNL     1      -3.636   1.741   0.881  0.00  0.00    -0.274 OA
ATOM      4  C   UNL     1      -1.287   2.340   0.950  0.00  0.00    +0.095 C 
ATOM      5  C   UNL     1      -0.964   2.042  -0.520  0.00  0.00    +0.024 C 
ATOM      6  C   UNL     1      -0.928   0.521  -0.709  0.00  0.00    +0.009 C 
ATOM      7  C   UNL     1       0.160  -0.081   0.182  0.00  0.00    +0.009 C 
ATOM      8  C   UNL     1       0.857   1.036   0.968  0.00  0.00    +0.024 C 
ATOM      9  C   UNL     1      -0.188   1.736   1.847  0.00  0.00    +0.095 C 
ATOM     10  C   UNL     1      -0.926   0.697   2.663  0.00  0.00    +0.231 C 
ATOM     11  O   UNL     1      -0.429  -0.019   3.505  0.00  0.00    -0.274 OA
ATOM     12  C   UNL     1       1.378   2.057  -0.033  0.00  0.00    -0.027 C 
ATOM     13  C   UNL     1       0.430   2.581  -0.807  0.00  0.00    -0.027 C 
ENDROOT
BRANCH   1  20
ATOM     14  C   UNL     1      -3.681   1.627   4.561  0.00  0.00    +0.045 C 
ATOM     15  C   UNL     1      -3.897   0.251   3.986  0.00  0.00    -0.028 A 
ATOM     16  C   UNL     1      -4.828  -0.597   4.554  0.00  0.00    +0.007 A 
ATOM     17  C   UNL     1      -5.027  -1.860   4.028  0.00  0.00    +0.033 A 
ATOM     18  C   UNL     1      -4.295  -2.278   2.931  0.00  0.00    +0.128 A 
ATOM     19  C   UNL     1      -3.368  -1.432   2.355  0.00  0.00    +0.057 A 
ATOM     20  C   UNL     1      -3.162  -0.165   2.885  0.00  0.00    +0.049 A 
BRANCH  18  21
ATOM     21  N   UNL     1      -4.511  -3.630   2.370  0.00  0.00    +0.056 N 
ATOM     22  O   UNL     1      -5.332  -4.375   2.874  0.00  0.00    -0.126 OA
ATOM     23  O   UNL     1      -3.867  -3.999   1.404  0.00  0.00    -0.126 OA
ENDBRANCH  18  21
ENDBRANCH   1  20
TORSDOF 2
