REMARK  Name = ZINC66042205
REMARK  5 active torsions:
REMARK  status: ('A' for Active; 'I' for Inactive)
REMARK    1  A    between atoms: C_1  and  C_2
REMARK    2  A    between atoms: C_4  and  C_7
REMARK    3  A    between atoms: C_7  and  N_8
REMARK    4  A    between atoms: C_14  and  C_16
REMARK    5  A    between atoms: C_21  and  O_22
REMARK                            x       y       z     vdW  Elec       q    Type
REMARK                         _______ _______ _______ _____ _____    ______ ____
ROOT
ATOM      1  N   UNL     1      -1.113  -3.848  -1.899  0.00  0.00    -0.294 NA
ATOM      2  C   UNL     1      -1.896  -2.853  -2.644  0.00  0.00    +0.104 C 
ATOM      3  C   UNL     1      -2.196  -3.390  -4.047  0.00  0.00    +0.123 C 
ATOM      4  N   UNL     1      -2.832  -4.709  -3.916  0.00  0.00    -0.295 N 
ATOM      5  C   UNL     1      -2.174  -5.718  -3.072  0.00  0.00    +0.123 C 
ATOM      6  C   UNL     1      -1.875  -5.090  -1.707  0.00  0.00    +0.104 C 
ATOM      7  C   UNL     1      -3.986  -4.987  -4.554  0.00  0.00    +0.250 C 
ATOM      8  O   UNL     1      -4.460  -6.105  -4.493  0.00  0.00    -0.270 OA
ENDROOT
BRANCH   7   9
ATOM      9  C   UNL     1      -4.675  -3.935  -5.325  0.00  0.00    +0.078 A 
ATOM     10  C   UNL     1      -3.982  -3.210  -6.298  0.00  0.00    +0.018 A 
ATOM     11  C   UNL     1      -4.630  -2.229  -7.015  0.00  0.00    +0.016 A 
ATOM     12  C   UNL     1      -5.969  -1.957  -6.776  0.00  0.00    +0.021 A 
ATOM     13  C   UNL     1      -6.665  -2.667  -5.817  0.00  0.00    +0.061 A 
ATOM     14  C   UNL     1      -6.029  -3.662  -5.090  0.00  0.00    +0.130 A 
ATOM     15 BR   UNL     1      -6.846  -0.608  -7.769  0.00  0.00    -0.050 Br
BRANCH  14  16
ATOM     16  O   UNL     1      -6.713  -4.363  -4.152  0.00  0.00    -0.506 OA
ATOM     17  H   UNL     1      -6.685  -3.970  -3.269  0.00  0.00    +0.292 HD
ENDBRANCH  14  16
ENDBRANCH   7   9
BRANCH   1  18
ATOM     18  C   UNL     1      -0.658  -3.305  -0.613  0.00  0.00    +0.143 C 
BRANCH  18  22
ATOM     19  C   UNL     1       1.265   1.366  -1.275  0.00  0.00    +0.089 C 
ATOM     20  C   UNL     1       1.140  -0.130  -1.145  0.00  0.00    +0.135 A 
ATOM     21  C   UNL     1       0.004  -0.812  -0.905  0.00  0.00    +0.072 A 
ATOM     22  C   UNL     1       0.317  -2.182  -0.858  0.00  0.00    +0.098 A 
ATOM     23  N   UNL     1       1.597  -2.311  -1.064  0.00  0.00    -0.082 NA
ATOM     24  O   UNL     1       2.141  -1.018  -1.254  0.00  0.00    -0.360 OA
ENDBRANCH  18  22
ENDBRANCH   1  18
TORSDOF 4
