REMARK  Name = ZINC64740873
REMARK  5 active torsions:
REMARK  status: ('A' for Active; 'I' for Inactive)
REMARK    1  A    between atoms: C_4  and  C_7
REMARK    2  A    between atoms: C_7  and  S_8
REMARK    3  A    between atoms: S_8  and  C_9
REMARK    4  A    between atoms: C_15  and  C_23
REMARK    5  A    between atoms: N_25  and  C_26
REMARK                            x       y       z     vdW  Elec       q    Type
REMARK                         _______ _______ _______ _____ _____    ______ ____
ROOT
ATOM      1  C   UNL     1       5.786  -1.867   1.491  0.00  0.00    +0.182 C 
ATOM      2  N   UNL     1       6.206  -2.107   0.261  0.00  0.00    -0.154 NA
ATOM      3  C   UNL     1       7.317  -2.805   0.013  0.00  0.00    +0.249 C 
ATOM      4  O   UNL     1       7.710  -2.997  -1.121  0.00  0.00    -0.273 OA
ATOM      5  C   UNL     1       8.064  -3.344   1.216  0.00  0.00    +0.153 C 
ATOM      6  C   UNL     1       9.510  -2.851   1.142  0.00  0.00    +0.103 C 
ATOM      7  C   UNL     1      10.315  -3.528   2.255  0.00  0.00    +0.110 C 
ATOM      8  C   UNL     1       9.606  -3.421   3.573  0.00  0.00    +0.219 C 
ATOM      9  O   UNL     1      10.245  -3.586   4.590  0.00  0.00    -0.275 OA
ATOM     10  N   UNL     1       8.294  -3.150   3.677  0.00  0.00    -0.273 N 
ATOM     11  C   UNL     1       7.537  -2.910   2.571  0.00  0.00    +0.117 C 
ATOM     12  N   UNL     1       6.434  -2.218   2.609  0.00  0.00    -0.212 NA
ATOM     13  H   UNL     1       7.874  -3.138   4.551  0.00  0.00    +0.156 HD
ENDROOT
BRANCH   6  14
ATOM     14  C   UNL     1       9.546  -1.356   1.326  0.00  0.00    +0.222 C 
ATOM     15  O   UNL     1       8.514  -0.742   1.499  0.00  0.00    -0.275 OA
ATOM     16  N   UNL     1      10.723  -0.701   1.298  0.00  0.00    -0.284 N 
ATOM     17  H   UNL     1      11.553  -1.198   1.224  0.00  0.00    +0.155 HD
BRANCH  16  18
ATOM     18  C   UNL     1      10.749   0.697   1.375  0.00  0.00    +0.052 A 
ATOM     19  C   UNL     1       9.812   1.368   2.150  0.00  0.00    +0.025 A 
ATOM     20  C   UNL     1       9.841   2.747   2.224  0.00  0.00    +0.002 A 
ATOM     21  C   UNL     1      10.799   3.459   1.527  0.00  0.00    +0.002 A 
ATOM     22  C   UNL     1      11.733   2.795   0.754  0.00  0.00    +0.022 A 
ATOM     23  C   UNL     1      11.714   1.415   0.680  0.00  0.00    +0.062 A 
ATOM     24 CL   UNL     1      12.892   0.580  -0.285  0.00  0.00    -0.082 Cl
ENDBRANCH  16  18
ENDBRANCH   6  14
BRANCH   1  25
ATOM     25  S   UNL     1       4.257  -1.011   1.674  0.00  0.00    -0.084 S 
BRANCH  25  26
ATOM     26  C   UNL     1       3.710  -0.721  -0.031  0.00  0.00    +0.112 C 
BRANCH  26  30
ATOM     27  C   UNL     1      -0.019   1.363   0.003  0.00  0.00    +0.000 A 
ATOM     28  C   UNL     1       1.168   2.071  -0.011  0.00  0.00    +0.000 A 
ATOM     29  C   UNL     1       2.375   1.396  -0.022  0.00  0.00    +0.004 A 
ATOM     30  C   UNL     1       2.394   0.014  -0.018  0.00  0.00    -0.037 A 
ATOM     31  C   UNL     1       1.207  -0.694  -0.003  0.00  0.00    +0.004 A 
ATOM     32  C   UNL     1       0.001  -0.019   0.006  0.00  0.00    +0.000 A 
ENDBRANCH  26  30
ENDBRANCH  25  26
ENDBRANCH   1  25
TORSDOF 5
