REMARK  Name = ZINC21866995
REMARK  11 active torsions:
REMARK  status: ('A' for Active; 'I' for Inactive)
REMARK    1  A    between atoms: C_1  and  C_2
REMARK    2  A    between atoms: C_2  and  C_3
REMARK    3  A    between atoms: C_2  and  C_4
REMARK    4  A    between atoms: C_4  and  C_5
REMARK    5  A    between atoms: C_5  and  N_6
REMARK    6  A    between atoms: C_7  and  C_9
REMARK    7  A    between atoms: C_9  and  C_35
REMARK    8  A    between atoms: C_18  and  N_31
REMARK    9  A    between atoms: N_22  and  C_23
REMARK   10  A    between atoms: C_23  and  C_24
REMARK   11  A    between atoms: C_32  and  C_34
REMARK                            x       y       z     vdW  Elec       q    Type
REMARK                         _______ _______ _______ _____ _____    ______ ____
ROOT
ATOM      1  C   UNL     1      -2.386  -1.997  -1.723  0.00  0.00    +0.129 C 
ATOM      2  C   UNL     1      -3.418  -2.143  -2.841  0.00  0.00    +0.157 C 
ATOM      3  N   UNL     1      -3.761  -0.812  -3.359  0.00  0.00    -0.332 N 
ATOM      4  C   UNL     1      -4.157  -0.446  -4.604  0.00  0.00    +0.052 A 
ATOM      5  C   UNL     1      -4.346  -1.183  -5.775  0.00  0.00    +0.026 A 
ATOM      6  C   UNL     1      -4.767  -0.488  -6.894  0.00  0.00    +0.002 A 
ATOM      7  C   UNL     1      -4.997   0.878  -6.876  0.00  0.00    +0.001 A 
ATOM      8  C   UNL     1      -4.819   1.631  -5.743  0.00  0.00    +0.012 A 
ATOM      9  C   UNL     1      -4.392   0.955  -4.594  0.00  0.00    +0.022 A 
ATOM     10  C   UNL     1      -4.101   1.423  -3.247  0.00  0.00    +0.072 A 
ATOM     11  C   UNL     1      -3.715   0.320  -2.533  0.00  0.00    +0.127 A 
ATOM     12  C   UNL     1      -3.291   0.211  -1.134  0.00  0.00    +0.266 C 
ATOM     13  O   UNL     1      -3.415   1.139  -0.355  0.00  0.00    -0.268 OA
ATOM     14  N   UNL     1      -2.752  -0.970  -0.754  0.00  0.00    -0.276 N 
ATOM     15  C   UNL     1      -2.251  -3.336  -0.997  0.00  0.00    +0.043 C 
ENDROOT
BRANCH  10  16
ATOM     16  N   UNL     1      -4.195   2.730  -2.778  0.00  0.00    -0.283 N 
ATOM     17  C   UNL     1      -5.061   3.590  -3.350  0.00  0.00    +0.214 C 
ATOM     18  O   UNL     1      -5.811   3.205  -4.222  0.00  0.00    -0.276 OA
ATOM     19  C   UNL     1      -5.096   5.030  -2.907  0.00  0.00    +0.109 C 
ATOM     20  H   UNL     1      -3.564   3.061  -1.940  0.00  0.00    +0.155 HD
ENDBRANCH  10  16
BRANCH   1  22
ATOM     21  N   UNL     1      -0.738  -0.347  -2.548  0.00  0.00    -0.313 N 
ATOM     22  C   UNL     1      -1.055  -1.639  -2.333  0.00  0.00    +0.238 C 
ATOM     23  O   UNL     1      -0.270  -2.514  -2.630  0.00  0.00    -0.273 OA
ATOM     24  H   UNL     1      -1.414   0.450  -2.205  0.00  0.00    +0.149 HD
BRANCH  21  25
ATOM     25  C   UNL     1       0.507  -0.004  -3.240  0.00  0.00    +0.104 C 
BRANCH  25  26
ATOM     26  C   UNL     1       0.625   1.517  -3.354  0.00  0.00    +0.022 C 
BRANCH  26  28
ATOM     27  C   UNL     1       1.984   3.388  -4.300  0.00  0.00    +0.007 C 
ATOM     28  C   UNL     1       1.925   1.875  -4.076  0.00  0.00    -0.016 C 
ATOM     29  C   UNL     1       3.119   1.440  -3.224  0.00  0.00    +0.007 C 
ENDBRANCH  26  28
ENDBRANCH  25  26
ENDBRANCH  21  25
ENDBRANCH   1  22
BRANCH  14  30
ATOM     30  C   UNL     1      -2.535  -1.228   0.671  0.00  0.00    +0.147 C 
BRANCH  30  31
ATOM     31  C   UNL     1      -1.119  -0.865   1.038  0.00  0.00    +0.005 A 
ATOM     32  C   UNL     1      -0.159  -1.853   1.150  0.00  0.00    +0.008 A 
ATOM     33  C   UNL     1       1.140  -1.520   1.486  0.00  0.00    +0.000 A 
ATOM     34  C   UNL     1       1.481  -0.199   1.709  0.00  0.00    +0.003 A 
ATOM     35  C   UNL     1       0.523   0.790   1.596  0.00  0.00    +0.038 A 
ATOM     36  C   UNL     1      -0.778   0.459   1.261  0.00  0.00    +0.128 A 
ATOM     37  F   UNL     1      -1.715   1.426   1.145  0.00  0.00    -0.205 F 
ENDBRANCH  30  31
ENDBRANCH  14  30
TORSDOF 7
