REMARK  Name = ZINC40413493
REMARK  13 active torsions:
REMARK  status: ('A' for Active; 'I' for Inactive)
REMARK    1  A    between atoms: C_1  and  C_2
REMARK    2  A    between atoms: C_5  and  O_8
REMARK    3  A    between atoms: O_8  and  C_9
REMARK    4  A    between atoms: C_10  and  C_22
REMARK    5  A    between atoms: C_11  and  C_21
REMARK    6  A    between atoms: N_13  and  C_14
REMARK    7  A    between atoms: C_18  and  C_20
REMARK    8  A    between atoms: C_22  and  C_23
REMARK    9  A    between atoms: C_23  and  C_24
REMARK   10  A    between atoms: N_26  and  C_27
REMARK   11  A    between atoms: C_27  and  C_28
REMARK   12  A    between atoms: C_28  and  C_29
REMARK   13  A    between atoms: C_28  and  C_30
REMARK                            x       y       z     vdW  Elec       q    Type
REMARK                         _______ _______ _______ _____ _____    ______ ____
ROOT
ATOM      1  C   UNL     1      -0.136  -4.694   1.240  0.00  0.00    +0.227 A 
ATOM      2  C   UNL     1       0.033  -6.014   1.521  0.00  0.00    +0.038 A 
ATOM      3  C   UNL     1       0.307  -6.131   2.887  0.00  0.00    +0.067 A 
ATOM      4  N   UNL     1       0.305  -4.933   3.414  0.00  0.00    -0.168 NA
ATOM      5  N   UNL     1       0.035  -4.005   2.400  0.00  0.00    -0.200 N 
ATOM      6  C   UNL     1       0.561  -7.418   3.628  0.00  0.00    +0.068 C 
ENDROOT
BRANCH   5   7
ATOM      7  C   UNL     1      -0.048  -2.614   2.554  0.00  0.00    +0.069 A 
ATOM      8  C   UNL     1       0.506  -1.774   1.597  0.00  0.00    +0.028 A 
ATOM      9  C   UNL     1       0.423  -0.404   1.751  0.00  0.00    +0.002 A 
ATOM     10  C   UNL     1      -0.211   0.131   2.858  0.00  0.00    +0.003 A 
ATOM     11  C   UNL     1      -0.763  -0.703   3.813  0.00  0.00    -0.048 A 
ATOM     12  C   UNL     1      -0.688  -2.074   3.661  0.00  0.00    +0.031 A 
ATOM     13  C   UNL     1      -1.452  -0.115   5.017  0.00  0.00    +0.044 C 
ENDBRANCH   5   7
BRANCH   1  14
ATOM     14  O   UNL     1      -0.417  -4.162   0.024  0.00  0.00    -0.438 OA
BRANCH  14  19
ATOM     15  C   UNL     1      -5.811  -3.131  -1.229  0.00  0.00    +0.044 C 
ATOM     16  C   UNL     1      -4.367  -3.407  -0.894  0.00  0.00    -0.050 A 
ATOM     17  C   UNL     1      -3.369  -3.018  -1.768  0.00  0.00    +0.007 A 
ATOM     18  C   UNL     1      -2.046  -3.269  -1.463  0.00  0.00    +0.046 A 
ATOM     19  C   UNL     1      -1.718  -3.913  -0.278  0.00  0.00    +0.130 A 
ATOM     20  C   UNL     1      -2.722  -4.303   0.597  0.00  0.00    +0.046 A 
ATOM     21  C   UNL     1      -4.043  -4.044   0.290  0.00  0.00    +0.007 A 
ENDBRANCH  14  19
ENDBRANCH   1  14
BRANCH   2  22
ATOM     22  C   UNL     1      -0.061  -7.150   0.535  0.00  0.00    +0.051 C 
BRANCH  22  23
ATOM     23  C   UNL     1       1.319  -7.413  -0.072  0.00  0.00    +0.100 C 
BRANCH  23  24
ATOM     24  C   UNL     1       1.226  -8.548  -1.058  0.00  0.00    +0.213 C 
ATOM     25  O   UNL     1       0.161  -9.094  -1.256  0.00  0.00    -0.276 OA
ATOM     26  N   UNL     1       2.326  -8.958  -1.720  0.00  0.00    -0.315 N 
ATOM     27  H   UNL     1       3.178  -8.521  -1.562  0.00  0.00    +0.149 HD
BRANCH  26  28
ATOM     28  C   UNL     1       2.235 -10.062  -2.679  0.00  0.00    +0.107 C 
BRANCH  28  29
ATOM     29  C   UNL     1       3.615 -10.325  -3.286  0.00  0.00    -0.000 C 
ATOM     30  C   UNL     1       3.547 -11.556  -4.192  0.00  0.00    +0.009 C 
ATOM     31  C   UNL     1       4.050  -9.110  -4.108  0.00  0.00    +0.009 C 
ENDBRANCH  28  29
ENDBRANCH  26  28
ENDBRANCH  23  24
ENDBRANCH  22  23
ENDBRANCH   2  22
TORSDOF 8
