REMARK  Name = ZINC39731355
REMARK  9 active torsions:
REMARK  status: ('A' for Active; 'I' for Inactive)
REMARK    1  A    between atoms: C_1  and  C_2
REMARK    2  A    between atoms: C_4  and  C_10
REMARK    3  A    between atoms: C_5  and  C_9
REMARK    4  A    between atoms: N_7  and  C_8
REMARK    5  A    between atoms: C_11  and  C_12
REMARK    6  A    between atoms: N_17  and  C_20
REMARK    7  A    between atoms: C_20  and  C_21
REMARK    8  A    between atoms: C_26  and  C_33
REMARK    9  A    between atoms: C_27  and  C_32
REMARK                            x       y       z     vdW  Elec       q    Type
REMARK                         _______ _______ _______ _____ _____    ______ ____
ROOT
ATOM      1  C   UNL     1      -3.227   0.606  -2.936  0.00  0.00    +0.240 C 
ATOM      2  O   UNL     1      -2.371   0.513  -2.074  0.00  0.00    -0.271 OA
ATOM      3  N   UNL     1      -2.965   1.272  -4.077  0.00  0.00    -0.296 N 
ATOM      4  C   UNL     1      -1.617   1.790  -4.357  0.00  0.00    +0.123 C 
ATOM      5  C   UNL     1      -1.734   3.270  -4.738  0.00  0.00    +0.104 C 
ATOM      6  N   UNL     1      -2.696   3.415  -5.838  0.00  0.00    -0.292 NA
ATOM      7  C   UNL     1      -4.042   2.991  -5.429  0.00  0.00    +0.104 C 
ATOM      8  C   UNL     1      -4.018   1.495  -5.080  0.00  0.00    +0.123 C 
ENDROOT
BRANCH   1  10
ATOM      9  C   UNL     1      -4.725  -0.742  -1.632  0.00  0.00    +0.012 C 
ATOM     10  C   UNL     1      -4.493   0.015  -2.738  0.00  0.00    +0.068 C 
BRANCH   9  13
ATOM     11  C   UNL     1      -6.879  -1.817  -3.721  0.00  0.00    +0.031 C 
ATOM     12  C   UNL     1      -7.193  -1.226  -2.346  0.00  0.00    +0.104 C 
ATOM     13  C   UNL     1      -5.988  -1.331  -1.434  0.00  0.00    -0.011 C 
ATOM     14  C   UNL     1      -6.369  -2.104  -0.394  0.00  0.00    +0.021 C 
ATOM     15  N   UNL     1      -7.661  -2.507  -0.521  0.00  0.00    -0.281 N 
ATOM     16  N   UNL     1      -8.233  -2.023  -1.665  0.00  0.00    -0.225 NA
ATOM     17  C   UNL     1      -9.412  -1.201  -1.361  0.00  0.00    +0.128 C 
ATOM     18  C   UNL     1      -5.475  -2.474   0.762  0.00  0.00    +0.062 C 
ATOM     19  H   UNL     1      -8.123  -3.069   0.121  0.00  0.00    +0.166 HD
ENDBRANCH   9  13
ENDBRANCH   1  10
BRANCH   6  20
ATOM     20  C   UNL     1      -2.709   4.792  -6.348  0.00  0.00    +0.158 C 
BRANCH  20  21
ATOM     21  C   UNL     1      -3.514   4.849  -7.621  0.00  0.00    +0.138 C 
ATOM     22  N   UNL     1      -4.056   3.740  -8.063  0.00  0.00    -0.160 NA
ATOM     23  C   UNL     1      -4.787   3.688  -9.182  0.00  0.00    +0.271 C 
ATOM     24  O   UNL     1      -5.278   2.639  -9.564  0.00  0.00    -0.268 OA
ATOM     25  C   UNL     1      -4.984   4.959  -9.949  0.00  0.00    +0.071 C 
ATOM     26  C   UNL     1      -5.671   5.146 -11.086  0.00  0.00    -0.045 C 
ATOM     27  C   UNL     1      -5.714   6.544 -11.660  0.00  0.00    +0.076 C 
ATOM     28  S   UNL     1      -4.710   7.480 -10.437  0.00  0.00    -0.098 S 
ATOM     29  C   UNL     1      -4.322   6.135  -9.346  0.00  0.00    +0.111 C 
ATOM     30  N   UNL     1      -3.640   6.017  -8.231  0.00  0.00    -0.226 NA
ATOM     31  C   UNL     1      -5.070   6.587 -13.047  0.00  0.00    +0.024 C 
ATOM     32  C   UNL     1      -6.375   4.001 -11.768  0.00  0.00    +0.041 C 
ENDBRANCH  20  21
ENDBRANCH   6  20
TORSDOF 4
