REMARK  Name = ZINC64790391
REMARK  4 active torsions:
REMARK  status: ('A' for Active; 'I' for Inactive)
REMARK    1  A    between atoms: C_1  and  C_2
REMARK    2  A    between atoms: C_5  and  C_8
REMARK    3  A    between atoms: C_11  and  C_27
REMARK    4  A    between atoms: C_19  and  C_21
REMARK                            x       y       z     vdW  Elec       q    Type
REMARK                         _______ _______ _______ _____ _____    ______ ____
ROOT
ATOM      1  C   UNL     1       0.059  -4.275  -0.021  0.00  0.00    +0.147 C 
ATOM      2  C   UNL     1      -1.170  -4.814   0.719  0.00  0.00    +0.087 C 
ATOM      3  C   UNL     1      -0.995  -4.705   2.208  0.00  0.00    +0.055 C 
ATOM      4  N   UNL     1       0.166  -4.841   2.791  0.00  0.00    -0.215 NA
ATOM      5  C   UNL     1       1.270  -5.016   2.017  0.00  0.00    +0.251 A 
ATOM      6  N   UNL     1       1.253  -4.758   0.672  0.00  0.00    -0.220 N 
ATOM      7  N   UNL     1       2.527  -5.043   0.192  0.00  0.00    -0.131 NA
ATOM      8  C   UNL     1       3.246  -5.427   1.228  0.00  0.00    +0.243 A 
ATOM      9  N   UNL     1       2.483  -5.399   2.330  0.00  0.00    -0.176 NA
ATOM     10  N   UNL     1       4.590  -5.806   1.183  0.00  0.00    -0.249 N 
ATOM     11  C   UNL     1       5.222  -6.182   2.313  0.00  0.00    +0.250 C 
ATOM     12  O   UNL     1       4.622  -6.192   3.370  0.00  0.00    -0.270 OA
ATOM     13  H   UNL     1       5.069  -5.798   0.340  0.00  0.00    +0.158 HD
ENDROOT
BRANCH   1  18
ATOM     14  C   UNL     1      -0.018   1.503   0.010  0.00  0.00    +0.044 C 
ATOM     15  C   UNL     1       0.002  -0.004   0.002  0.00  0.00    -0.050 A 
ATOM     16  C   UNL     1       0.006  -0.689  -1.199  0.00  0.00    +0.004 A 
ATOM     17  C   UNL     1       0.025  -2.071  -1.206  0.00  0.00    +0.006 A 
ATOM     18  C   UNL     1       0.040  -2.768  -0.013  0.00  0.00    -0.023 A 
ATOM     19  C   UNL     1       0.037  -2.084   1.188  0.00  0.00    +0.006 A 
ATOM     20  C   UNL     1       0.023  -0.702   1.195  0.00  0.00    +0.004 A 
ENDBRANCH   1  18
BRANCH  11  21
ATOM     21  C   UNL     1       6.644  -6.582   2.266  0.00  0.00    +0.037 A 
ATOM     22  C   UNL     1       7.337  -6.566   1.054  0.00  0.00    +0.013 A 
ATOM     23  C   UNL     1       8.664  -6.940   1.018  0.00  0.00    +0.001 A 
ATOM     24  C   UNL     1       9.309  -7.331   2.178  0.00  0.00    +0.000 A 
ATOM     25  C   UNL     1       8.628  -7.349   3.382  0.00  0.00    +0.001 A 
ATOM     26  C   UNL     1       7.302  -6.972   3.434  0.00  0.00    +0.013 A 
ENDBRANCH  11  21
BRANCH   3  27
ATOM     27  C   UNL     1      -2.177  -4.435   3.041  0.00  0.00    -0.004 A 
ATOM     28  C   UNL     1      -3.436  -4.290   2.449  0.00  0.00    +0.010 A 
ATOM     29  C   UNL     1      -4.539  -4.037   3.237  0.00  0.00    +0.001 A 
ATOM     30  C   UNL     1      -4.403  -3.927   4.610  0.00  0.00    +0.000 A 
ATOM     31  C   UNL     1      -3.160  -4.069   5.203  0.00  0.00    +0.001 A 
ATOM     32  C   UNL     1      -2.049  -4.329   4.430  0.00  0.00    +0.010 A 
ENDBRANCH   3  27
TORSDOF 3
