REMARK  Name = ZINC27788801
REMARK  9 active torsions:
REMARK  status: ('A' for Active; 'I' for Inactive)
REMARK    1  A    between atoms: C_1  and  C_2
REMARK    2  A    between atoms: C_2  and  C_3
REMARK    3  A    between atoms: C_2  and  C_4
REMARK    4  A    between atoms: C_2  and  C_5
REMARK    5  A    between atoms: C_13  and  S_15
REMARK    6  A    between atoms: S_15  and  C_16
REMARK    7  A    between atoms: C_16  and  C_17
REMARK    8  A    between atoms: N_19  and  C_20
REMARK    9  A    between atoms: C_20  and  C_21
REMARK                            x       y       z     vdW  Elec       q    Type
REMARK                         _______ _______ _______ _____ _____    ______ ____
ROOT
ATOM      1  C   UNL     1       0.144  -3.904   9.455  0.00  0.00    +0.135 A 
ATOM      2  C   UNL     1       0.124  -3.272   8.207  0.00  0.00    +0.297 A 
ATOM      3  O   UNL     1       0.106  -2.053   8.131  0.00  0.00    -0.264 OA
ATOM      4  N   UNL     1       0.124  -4.037   7.074  0.00  0.00    -0.167 N 
ATOM      5  C   UNL     1       0.144  -5.388   7.276  0.00  0.00    +0.220 A 
ATOM      6  N   UNL     1       0.163  -5.936   8.466  0.00  0.00    -0.121 NA
ATOM      7  N   UNL     1       0.163  -5.218   9.537  0.00  0.00    -0.146 NA
ATOM      8  S   UNL     1       0.129  -6.028   5.617  0.00  0.00    -0.020 S 
ATOM      9  C   UNL     1       0.108  -4.461   4.761  0.00  0.00    +0.159 A 
ATOM     10  N   UNL     1       0.106  -3.607   5.753  0.00  0.00    -0.148 NA
ENDROOT
BRANCH   1  12
ATOM     11  C   UNL     1       0.168  -4.000  11.932  0.00  0.00    +0.017 C 
ATOM     12  C   UNL     1       0.145  -3.075  10.713  0.00  0.00    +0.012 C 
ATOM     13  C   UNL     1       1.382  -2.176  10.731  0.00  0.00    +0.017 C 
ATOM     14  C   UNL     1      -1.116  -2.209  10.754  0.00  0.00    +0.017 C 
ENDBRANCH   1  12
BRANCH   9  15
ATOM     15  S   UNL     1       0.087  -4.146   3.027  0.00  0.00    -0.088 S 
BRANCH  15  16
ATOM     16  C   UNL     1       0.063  -2.336   3.037  0.00  0.00    +0.172 C 
BRANCH  16  17
ATOM     17  C   UNL     1       0.042  -1.826   1.619  0.00  0.00    +0.224 C 
ATOM     18  O   UNL     1       0.044  -2.609   0.693  0.00  0.00    -0.275 OA
ATOM     19  N   UNL     1       0.022  -0.500   1.381  0.00  0.00    -0.311 N 
ATOM     20  H   UNL     1       0.020   0.210   2.220  0.00  0.00    +0.149 HD
BRANCH  19  21
ATOM     21  C   UNL     1       0.002  -0.004   0.002  0.00  0.00    +0.139 C 
BRANCH  21  22
ATOM     22  C   UNL     1      -0.018   1.503   0.010  0.00  0.00    -0.030 A 
ATOM     23  C   UNL     1      -1.225   2.178   0.020  0.00  0.00    +0.005 A 
ATOM     24  C   UNL     1      -1.244   3.560   0.032  0.00  0.00    +0.000 A 
ATOM     25  C   UNL     1      -0.056   4.267   0.025  0.00  0.00    +0.000 A 
ATOM     26  C   UNL     1       1.151   3.592   0.010  0.00  0.00    +0.000 A 
ATOM     27  C   UNL     1       1.169   2.210   0.003  0.00  0.00    +0.005 A 
ENDBRANCH  21  22
ENDBRANCH  19  21
ENDBRANCH  16  17
ENDBRANCH  15  16
ENDBRANCH   9  15
TORSDOF 6
