REMARK  Name = ZINC38935673
REMARK  4 active torsions:
REMARK  status: ('A' for Active; 'I' for Inactive)
REMARK    1  A    between atoms: C_4  and  O_22
REMARK    2  A    between atoms: C_5  and  C_7
REMARK    3  A    between atoms: N_8  and  N_9
REMARK    4  A    between atoms: C_10  and  C_16
REMARK                            x       y       z     vdW  Elec       q    Type
REMARK                         _______ _______ _______ _____ _____    ______ ____
ROOT
ATOM      1  N   UNL     1       2.417  -4.182   0.059  0.00  0.00    -0.175 N 
ATOM      2  C   UNL     1       3.600  -5.057   0.166  0.00  0.00    +0.239 C 
ATOM      3  N   UNL     1       3.022  -6.409   0.236  0.00  0.00    -0.171 NA
ATOM      4  N   UNL     1       1.794  -6.299   0.180  0.00  0.00    -0.097 NA
ATOM      5  C   UNL     1       1.368  -5.034   0.081  0.00  0.00    +0.198 C 
ATOM      6  S   UNL     1      -0.275  -4.562  -0.008  0.00  0.00    -0.013 S 
ENDROOT
BRANCH   2   7
ATOM      7  C   UNL     1       4.491  -4.912  -1.069  0.00  0.00    +0.035 C 
ATOM      8  C   UNL     1       5.708  -5.829  -0.930  0.00  0.00    +0.007 C 
ATOM      9  C   UNL     1       6.599  -5.684  -2.166  0.00  0.00    +0.000 C 
ATOM     10  C   UNL     1       7.066  -4.232  -2.290  0.00  0.00    +0.000 C 
ATOM     11  C   UNL     1       5.849  -3.315  -2.429  0.00  0.00    +0.000 C 
ATOM     12  C   UNL     1       4.958  -3.460  -1.194  0.00  0.00    +0.007 C 
ENDBRANCH   2   7
BRANCH   1  14
ATOM     13  C   UNL     1       1.251  -2.156  -0.006  0.00  0.00    +0.142 C 
ATOM     14  N   UNL     1       2.387  -2.785  -0.038  0.00  0.00    -0.183 NA
BRANCH  13  19
ATOM     15  C   UNL     1      -0.011   1.377   0.048  0.00  0.00    +0.001 A 
ATOM     16  C   UNL     1       1.175   2.090   0.025  0.00  0.00    +0.004 A 
ATOM     17  C   UNL     1       2.388   1.429  -0.008  0.00  0.00    +0.046 A 
ATOM     18  C   UNL     1       2.424   0.044  -0.019  0.00  0.00    +0.125 A 
ATOM     19  C   UNL     1       1.225  -0.683   0.005  0.00  0.00    +0.036 A 
ATOM     20  C   UNL     1       0.006  -0.002   0.038  0.00  0.00    +0.013 A 
BRANCH  18  21
ATOM     21  O   UNL     1       3.615  -0.607  -0.052  0.00  0.00    -0.506 OA
ATOM     22  H   UNL     1       3.982  -0.802   0.821  0.00  0.00    +0.292 HD
ENDBRANCH  18  21
ENDBRANCH  13  19
ENDBRANCH   1  14
TORSDOF 4
