REMARK  Name = ZINC07443620
REMARK  6 active torsions:
REMARK  status: ('A' for Active; 'I' for Inactive)
REMARK    1  A    between atoms: C_1  and  C_2
REMARK    2  A    between atoms: C_15  and  C_17
REMARK    3  A    between atoms: C_17  and  N_48
REMARK    4  A    between atoms: C_18  and  N_48
REMARK    5  A    between atoms: C_19  and  C_20
REMARK    6  A    between atoms: C_19  and  N_48
REMARK                            x       y       z     vdW  Elec       q    Type
REMARK                         _______ _______ _______ _____ _____    ______ ____
ROOT
ATOM      1  C   UNL     1      -2.960   4.210   2.303  0.00  0.00    +0.029 C 
ATOM      2  C   UNL     1      -1.545   3.761   2.671  0.00  0.00    +0.087 C 
ATOM      3  C   UNL     1      -0.774   4.944   3.260  0.00  0.00    +0.118 C 
ATOM      4  C   UNL     1       0.703   4.653   3.262  0.00  0.00    +0.219 C 
ATOM      5  O   UNL     1       1.258   4.365   4.301  0.00  0.00    -0.275 OA
ATOM      6  N   UNL     1       1.414   4.709   2.114  0.00  0.00    -0.284 N 
ATOM      7  C   UNL     1       0.776   4.954   0.892  0.00  0.00    +0.055 A 
ATOM      8  C   UNL     1       1.256   5.913   0.017  0.00  0.00    +0.025 A 
ATOM      9  C   UNL     1       0.625   6.113  -1.198  0.00  0.00    +0.002 A 
ATOM     10  C   UNL     1      -0.481   5.356  -1.540  0.00  0.00    +0.002 A 
ATOM     11  C   UNL     1      -0.974   4.405  -0.666  0.00  0.00    +0.025 A 
ATOM     12  C   UNL     1      -0.351   4.208   0.562  0.00  0.00    +0.058 A 
ATOM     13  N   UNL     1      -0.862   3.273   1.472  0.00  0.00    -0.268 N 
ATOM     14  C   UNL     1      -0.723   1.951   1.250  0.00  0.00    +0.204 C 
ATOM     15  O   UNL     1      -1.166   1.152   2.048  0.00  0.00    -0.277 OA
ATOM     16  H   UNL     1       2.376   4.580   2.137  0.00  0.00    +0.155 HD
ENDROOT
BRANCH  14  17
ATOM     17  C   UNL     1      -0.018   1.465   0.010  0.00  0.00    +0.019 C 
BRANCH  17  19
ATOM     18  C   UNL     1      -1.356  -0.548  -0.132  0.00  0.00    -0.095 C 
ATOM     19  N   UNL     1       0.013  -0.013   0.027  0.00  0.00    +0.386 N 
ATOM     20  H   UNL     1       0.391  -0.328   0.928  0.00  0.00    -0.081 HD
BRANCH  19  21
ATOM     21  C   UNL     1       0.881  -0.513  -1.060  0.00  0.00    -0.043 C 
BRANCH  21  22
ATOM     22  C   UNL     1       1.071  -1.998  -0.886  0.00  0.00    -0.064 A 
ATOM     23  C   UNL     1       2.116  -2.475  -0.118  0.00  0.00    +0.003 A 
ATOM     24  C   UNL     1       2.288  -3.837   0.045  0.00  0.00    +0.015 A 
ATOM     25  C   UNL     1       1.420  -4.722  -0.568  0.00  0.00    +0.018 A 
ATOM     26  C   UNL     1       0.377  -4.244  -1.341  0.00  0.00    +0.015 A 
ATOM     27  C   UNL     1       0.203  -2.882  -1.499  0.00  0.00    +0.003 A 
ATOM     28 BR   UNL     1       1.659  -6.585  -0.351  0.00  0.00    -0.050 Br
ENDBRANCH  21  22
ENDBRANCH  19  21
ENDBRANCH  17  19
ENDBRANCH  14  17
TORSDOF 4
