REMARK  Name = ZINC32714677
REMARK  5 active torsions:
REMARK  status: ('A' for Active; 'I' for Inactive)
REMARK    1  A    between atoms: C_1  and  C_2
REMARK    2  A    between atoms: C_4  and  C_21
REMARK    3  A    between atoms: C_6  and  N_8
REMARK    4  A    between atoms: C_11  and  C_13
REMARK    5  A    between atoms: C_17  and  C_20
REMARK                            x       y       z     vdW  Elec       q    Type
REMARK                         _______ _______ _______ _____ _____    ______ ____
ROOT
ATOM      1  N   UNL     1      -4.117   2.446   2.352  0.00  0.00    -0.215 N 
ATOM      2  C   UNL     1      -4.836   2.911   1.297  0.00  0.00    +0.146 A 
ATOM      3  C   UNL     1      -6.166   2.971   1.714  0.00  0.00    +0.087 A 
ATOM      4  C   UNL     1      -6.209   2.527   3.051  0.00  0.00    +0.073 A 
ATOM      5  N   UNL     1      -4.996   2.214   3.416  0.00  0.00    -0.169 NA
ATOM      6  C   UNL     1      -7.444   2.424   3.909  0.00  0.00    +0.068 C 
ATOM      7  C   UNL     1      -7.178   3.445   0.764  0.00  0.00    +0.193 A 
ATOM      8  O   UNL     1      -8.356   3.515   1.081  0.00  0.00    -0.287 OA
ATOM      9  C   UNL     1      -6.746   3.817  -0.532  0.00  0.00    +0.072 A 
ATOM     10  C   UNL     1      -5.440   3.728  -0.854  0.00  0.00    +0.018 A 
ATOM     11  N   UNL     1      -4.506   3.290   0.026  0.00  0.00    -0.343 N 
ATOM     12  H   UNL     1      -3.459   3.244  -0.307  0.00  0.00    +0.167 HD
ATOM     13  C   UNL     1      -5.003   4.129  -2.239  0.00  0.00    +0.063 C 
ENDROOT
BRANCH   1  19
ATOM     14  C   UNL     1      -0.013   1.086   0.008  0.00  0.00    +0.044 C 
ATOM     15  C   UNL     1      -0.718   1.572   1.248  0.00  0.00    -0.048 A 
ATOM     16  C   UNL     1       0.002   1.806   2.405  0.00  0.00    +0.006 A 
ATOM     17  C   UNL     1      -0.642   2.252   3.545  0.00  0.00    -0.048 A 
ATOM     18  C   UNL     1      -2.006   2.465   3.530  0.00  0.00    +0.031 A 
ATOM     19  C   UNL     1      -2.732   2.231   2.370  0.00  0.00    +0.068 A 
ATOM     20  C   UNL     1      -2.082   1.789   1.225  0.00  0.00    +0.031 A 
ATOM     21  C   UNL     1       0.146   2.504   4.804  0.00  0.00    +0.044 C 
ENDBRANCH   1  19
TORSDOF 1
