REMARK  Name = ZINC00502364
REMARK  3 active torsions:
REMARK  status: ('A' for Active; 'I' for Inactive)
REMARK    1  A    between atoms: C_10  and  N_11
REMARK    2  A    between atoms: N_11  and  C_12
REMARK    3  A    between atoms: C_12  and  C_22
REMARK                            x       y       z     vdW  Elec       q    Type
REMARK                         _______ _______ _______ _____ _____    ______ ____
ROOT
ATOM      1  C   UNL     1       1.000   2.044  -0.135  0.00  0.00    +0.223 C 
ATOM      2  C   UNL     1       0.399   3.430  -0.127  0.00  0.00    +0.020 A 
ATOM      3  C   UNL     1       0.938   4.684   0.049  0.00  0.00    +0.009 A 
ATOM      4  C   UNL     1       0.121   5.800   0.003  0.00  0.00    +0.000 A 
ATOM      5  C   UNL     1      -1.236   5.650  -0.221  0.00  0.00    +0.002 A 
ATOM      6  C   UNL     1      -1.779   4.395  -0.399  0.00  0.00    +0.024 A 
ATOM      7  C   UNL     1      -0.962   3.267  -0.353  0.00  0.00    +0.040 A 
ATOM      8  N   UNL     1      -1.266   1.913  -0.507  0.00  0.00    -0.282 N 
ATOM      9  C   UNL     1      -0.181   1.131  -0.387  0.00  0.00    +0.260 C 
ATOM     10  O   UNL     1      -0.151  -0.079  -0.471  0.00  0.00    -0.272 OA
ATOM     11  H   UNL     1      -2.160   1.576  -0.677  0.00  0.00    +0.155 HD
ENDROOT
BRANCH   1  12
ATOM     12  N   UNL     1       1.986   1.918  -1.211  0.00  0.00    -0.315 N 
ATOM     13  H   UNL     1       2.181   2.677  -1.782  0.00  0.00    +0.148 HD
BRANCH  12  23
ATOM     14  C   UNL     1       5.180   0.155  -4.697  0.00  0.00    +0.001 A 
ATOM     15  C   UNL     1       4.531   1.375  -4.513  0.00  0.00    +0.001 A 
ATOM     16  C   UNL     1       3.703   1.574  -3.450  0.00  0.00    +0.010 A 
ATOM     17  C   UNL     1       3.496   0.537  -2.527  0.00  0.00    +0.003 A 
ATOM     18  C   UNL     1       4.155  -0.703  -2.713  0.00  0.00    -0.016 A 
ATOM     19  C   UNL     1       5.004  -0.871  -3.821  0.00  0.00    +0.008 A 
ATOM     20  C   UNL     1       3.950  -1.741  -1.789  0.00  0.00    +0.008 A 
ATOM     21  C   UNL     1       3.123  -1.550  -0.724  0.00  0.00    +0.002 A 
ATOM     22  C   UNL     1       2.474  -0.335  -0.527  0.00  0.00    +0.023 A 
ATOM     23  C   UNL     1       2.645   0.707  -1.414  0.00  0.00    +0.037 A 
ENDBRANCH  12  23
ENDBRANCH   1  12
BRANCH   1  24
ATOM     24  C   UNL     1       1.616   1.742   1.168  0.00  0.00    +0.103 C 
ATOM     25  N   UNL     1       2.091   1.509   2.174  0.00  0.00    -0.193 NA
ENDBRANCH   1  24
TORSDOF 3
