REMARK  Name = ZINC59442977
REMARK  5 active torsions:
REMARK  status: ('A' for Active; 'I' for Inactive)
REMARK    1  A    between atoms: C_1  and  C_2
REMARK    2  A    between atoms: C_2  and  C_14
REMARK    3  A    between atoms: C_4  and  C_12
REMARK    4  A    between atoms: C_4  and  C_13
REMARK    5  A    between atoms: C_17  and  N_20
REMARK                            x       y       z     vdW  Elec       q    Type
REMARK                         _______ _______ _______ _____ _____    ______ ____
ROOT
ATOM      1  C   UNL     1      -0.005   1.527   0.019  0.00  0.00    +0.021 C 
ATOM      2  C   UNL     1       0.002  -0.004   0.002  0.00  0.00    +0.022 C 
ATOM      3  C   UNL     1      -1.414  -0.536  -0.146  0.00  0.00    +0.041 C 
ATOM      4  C   UNL     1      -2.111  -0.811   1.183  0.00  0.00    +0.028 C 
ATOM      5  N   UNL     1      -1.254  -1.669   2.011  0.00  0.00    -0.339 N 
ATOM      6  C   UNL     1       0.097  -1.338   2.150  0.00  0.00    +0.032 A 
ATOM      7  C   UNL     1       0.718  -0.524   1.215  0.00  0.00    -0.016 A 
ATOM      8  C   UNL     1       2.047  -0.176   1.408  0.00  0.00    +0.006 A 
ATOM      9  C   UNL     1       2.754  -0.672   2.487  0.00  0.00    +0.000 A 
ATOM     10  C   UNL     1       2.146  -1.530   3.383  0.00  0.00    +0.002 A 
ATOM     11  C   UNL     1       0.820  -1.870   3.209  0.00  0.00    +0.023 A 
ATOM     12  C   UNL     1      -2.435   0.483   1.929  0.00  0.00    +0.031 C 
ATOM     13  C   UNL     1      -3.428  -1.560   0.909  0.00  0.00    +0.031 C 
ATOM     14  H   UNL     1      -1.619  -2.451   2.454  0.00  0.00    +0.147 HD
ENDROOT
BRANCH   2  15
ATOM     15  C   UNL     1       0.780  -0.439  -1.213  0.00  0.00    -0.037 A 
ATOM     16  C   UNL     1       1.230   0.503  -2.119  0.00  0.00    +0.007 A 
ATOM     17  C   UNL     1       1.943   0.104  -3.234  0.00  0.00    +0.033 A 
ATOM     18  C   UNL     1       2.207  -1.237  -3.443  0.00  0.00    +0.126 A 
ATOM     19  C   UNL     1       1.757  -2.179  -2.536  0.00  0.00    +0.033 A 
ATOM     20  C   UNL     1       1.048  -1.780  -1.419  0.00  0.00    +0.007 A 
BRANCH  18  21
ATOM     21  N   UNL     1       2.970  -1.665  -4.637  0.00  0.00    +0.056 N 
ATOM     22  O   UNL     1       3.362  -0.841  -5.430  0.00  0.00    -0.126 OA
ATOM     23  O   UNL     1       3.200  -2.837  -4.819  0.00  0.00    -0.126 OA
ENDBRANCH  18  21
ENDBRANCH   2  15
TORSDOF 2
