REMARK  Name = ZINC01426133
REMARK  3 active torsions:
REMARK  status: ('A' for Active; 'I' for Inactive)
REMARK    1  A    between atoms: C_6  and  S_7
REMARK    2  A    between atoms: S_7  and  N_10
REMARK    3  A    between atoms: C_14  and  C_16
REMARK                            x       y       z     vdW  Elec       q    Type
REMARK                         _______ _______ _______ _____ _____    ______ ____
ROOT
ATOM      1  S   UNL     1       0.066   5.011  -0.170  0.00  0.00    +0.062 S 
ATOM      2  O   UNL     1      -1.184   4.342  -0.081  0.00  0.00    -0.153 OA
ATOM      3  O   UNL     1       1.034   4.688  -1.159  0.00  0.00    -0.153 OA
ENDROOT
BRANCH   1   9
ATOM      4  C   UNL     1       0.628   7.563  -0.959  0.00  0.00    +0.030 A 
ATOM      5  C   UNL     1       0.348   8.909  -1.107  0.00  0.00    +0.023 A 
ATOM      6  C   UNL     1      -0.856   9.418  -0.655  0.00  0.00    +0.059 A 
ATOM      7  C   UNL     1      -1.780   8.579  -0.054  0.00  0.00    +0.061 A 
ATOM      8  C   UNL     1      -1.497   7.233   0.094  0.00  0.00    +0.050 A 
ATOM      9  C   UNL     1      -0.293   6.726  -0.359  0.00  0.00    +0.107 A 
ATOM     10 CL   UNL     1      -3.291   9.217   0.514  0.00  0.00    -0.082 Cl
ATOM     11 CL   UNL     1      -1.210  11.107  -0.842  0.00  0.00    -0.082 Cl
ENDBRANCH   1   9
BRANCH   1  12
ATOM     12  N   UNL     1       0.809   4.825   1.298  0.00  0.00    -0.165 NA
ATOM     13  C   UNL     1       2.237   5.046   1.570  0.00  0.00    +0.110 C 
ATOM     14  C   UNL     1       2.474   4.727   3.061  0.00  0.00    +0.019 C 
ATOM     15  C   UNL     1       1.280   3.801   3.412  0.00  0.00    +0.031 C 
ATOM     16  C   UNL     1       0.147   4.417   2.550  0.00  0.00    +0.165 C 
BRANCH  16  17
ATOM     17  C   UNL     1      -0.916   3.387   2.269  0.00  0.00    +0.229 C 
ATOM     18  O   UNL     1      -0.726   2.532   1.431  0.00  0.00    -0.274 OA
ATOM     19  N   UNL     1      -2.079   3.416   2.950  0.00  0.00    -0.328 N 
ATOM     20  H   UNL     1      -2.231   4.100   3.621  0.00  0.00    +0.145 HD
ATOM     21  H   UNL     1      -2.764   2.753   2.770  0.00  0.00    +0.145 HD
ENDBRANCH  16  17
ENDBRANCH   1  12
TORSDOF 3
