REMARK  Name = ZINC01017487
REMARK  4 active torsions:
REMARK  status: ('A' for Active; 'I' for Inactive)
REMARK    1  A    between atoms: C_1  and  C_2
REMARK    2  A    between atoms: N_5  and  N_23
REMARK    3  A    between atoms: C_6  and  S_9
REMARK    4  A    between atoms: S_9  and  C_10
REMARK                            x       y       z     vdW  Elec       q    Type
REMARK                         _______ _______ _______ _____ _____    ______ ____
ROOT
ATOM      1  C   UNL     1      -0.652   5.436   0.139  0.00  0.00    +0.115 C 
ATOM      2  C   UNL     1      -0.848   3.949   0.307  0.00  0.00    -0.022 A 
ATOM      3  C   UNL     1       0.045   2.900   0.377  0.00  0.00    +0.005 A 
ATOM      4  C   UNL     1      -0.418   1.606   0.536  0.00  0.00    +0.000 A 
ATOM      5  C   UNL     1      -1.777   1.362   0.626  0.00  0.00    +0.001 A 
ATOM      6  C   UNL     1      -2.677   2.404   0.552  0.00  0.00    +0.009 A 
ATOM      7  C   UNL     1      -2.217   3.713   0.396  0.00  0.00    -0.013 A 
ATOM      8  C   UNL     1      -2.948   5.000   0.293  0.00  0.00    -0.013 A 
ATOM      9  C   UNL     1      -2.035   6.041   0.140  0.00  0.00    -0.022 A 
ATOM     10  C   UNL     1      -2.477   7.341   0.023  0.00  0.00    +0.005 A 
ATOM     11  C   UNL     1      -3.832   7.619   0.057  0.00  0.00    +0.000 A 
ATOM     12  C   UNL     1      -4.746   6.592   0.210  0.00  0.00    +0.001 A 
ATOM     13  C   UNL     1      -4.313   5.287   0.327  0.00  0.00    +0.009 A 
ENDROOT
BRANCH   1  14
ATOM     14  S   UNL     1       0.317   6.096   1.518  0.00  0.00    -0.072 S 
BRANCH  14  20
ATOM     15  C   UNL     1       1.681  11.363  -0.861  0.00  0.00    +0.073 C 
ATOM     16  C   UNL     1       1.352  10.038  -0.224  0.00  0.00    +0.126 A 
ATOM     17  C   UNL     1       1.724   9.779   1.113  0.00  0.00    +0.293 A 
ATOM     18  O   UNL     1       2.315  10.618   1.773  0.00  0.00    -0.264 OA
ATOM     19  N   UNL     1       1.407   8.575   1.643  0.00  0.00    -0.206 N 
ATOM     20  C   UNL     1       0.746   7.674   0.862  0.00  0.00    +0.211 A 
ATOM     21  N   UNL     1       0.430   7.975  -0.387  0.00  0.00    -0.122 NA
ATOM     22  N   UNL     1       0.718   9.114  -0.906  0.00  0.00    -0.146 NA
BRANCH  19  23
ATOM     23  N   UNL     1       1.741   8.270   2.932  0.00  0.00    -0.293 N 
ATOM     24  H   UNL     1       2.223   9.039   3.372  0.00  0.00    +0.163 HD
ATOM     25  H   UNL     1       0.926   8.002   3.463  0.00  0.00    +0.163 HD
ENDBRANCH  19  23
ENDBRANCH  14  20
ENDBRANCH   1  14
TORSDOF 3
