REMARK  Name = ZINC07739944
REMARK  9 active torsions:
REMARK  status: ('A' for Active; 'I' for Inactive)
REMARK    1  A    between atoms: C_1  and  O_2
REMARK    2  A    between atoms: O_2  and  C_3
REMARK    3  A    between atoms: C_6  and  C_11
REMARK    4  A    between atoms: C_7  and  O_9
REMARK    5  A    between atoms: O_9  and  C_10
REMARK    6  A    between atoms: C_16  and  C_17
REMARK    7  A    between atoms: C_16  and  N_47
REMARK    8  A    between atoms: N_19  and  C_20
REMARK    9  A    between atoms: C_21  and  C_25
REMARK                            x       y       z     vdW  Elec       q    Type
REMARK                         _______ _______ _______ _____ _____    ______ ____
ROOT
ATOM      1  C   UNL     1      -1.908   2.205  -0.512  0.00  0.00    -0.033 C 
ATOM      2  C   UNL     1      -1.645   2.430   0.998  0.00  0.00    -0.012 C 
ATOM      3  C   UNL     1      -1.009   1.075   1.414  0.00  0.00    -0.020 C 
ATOM      4  C   UNL     1      -0.183   0.685   0.170  0.00  0.00    -0.077 C 
ATOM      5  N   UNL     1      -0.746   1.424  -0.975  0.00  0.00    +0.390 N 
ATOM      6  H   UNL     1      -0.035   2.064  -1.349  0.00  0.00    -0.080 HD
ENDROOT
BRANCH   1  10
ATOM      7  C   UNL     1      -2.072   5.947  -2.577  0.00  0.00    +0.124 A 
ATOM      8  C   UNL     1      -0.887   5.225  -2.534  0.00  0.00    +0.046 A 
ATOM      9  C   UNL     1      -0.836   4.019  -1.861  0.00  0.00    +0.009 A 
ATOM     10  C   UNL     1      -1.966   3.523  -1.240  0.00  0.00    -0.019 A 
ATOM     11  C   UNL     1      -3.153   4.241  -1.280  0.00  0.00    +0.125 A 
ATOM     12  C   UNL     1      -3.206   5.454  -1.949  0.00  0.00    +0.091 A 
BRANCH   7  14
ATOM     13  C   UNL     1      -0.915   7.582  -3.857  0.00  0.00    +0.277 C 
ATOM     14  O   UNL     1      -2.121   7.136  -3.233  0.00  0.00    -0.495 OA
ENDBRANCH   7  14
BRANCH  11  15
ATOM     15  O   UNL     1      -4.263   3.755  -0.664  0.00  0.00    -0.495 OA
ATOM     16  C   UNL     1      -5.449   4.547  -0.746  0.00  0.00    +0.277 C 
ENDBRANCH  11  15
ENDBRANCH   1  10
BRANCH   5  17
ATOM     17  C   UNL     1      -1.155   0.475  -2.043  0.00  0.00    +0.020 C 
BRANCH  17  18
ATOM     18  C   UNL     1       0.069  -0.195  -2.612  0.00  0.00    +0.201 C 
ATOM     19  O   UNL     1       1.174   0.151  -2.249  0.00  0.00    -0.278 OA
ATOM     20  N   UNL     1      -0.063  -1.179  -3.523  0.00  0.00    -0.281 N 
ATOM     21  H   UNL     1      -0.947  -1.456  -3.813  0.00  0.00    +0.155 HD
BRANCH  20  22
ATOM     22  C   UNL     1       1.064  -1.796  -4.046  0.00  0.00    +0.089 A 
ATOM     23  C   UNL     1       1.131  -2.822  -4.981  0.00  0.00    +0.080 A 
ATOM     24  C   UNL     1       2.448  -3.277  -5.353  0.00  0.00    +0.028 A 
ATOM     25  C   UNL     1       3.496  -2.677  -4.759  0.00  0.00    +0.048 A 
ATOM     26  S   UNL     1       2.728  -1.480  -3.688  0.00  0.00    -0.081 S 
BRANCH  23  27
ATOM     27  C   UNL     1      -0.051  -3.398  -5.548  0.00  0.00    +0.102 C 
ATOM     28  N   UNL     1      -0.988  -3.855  -5.999  0.00  0.00    -0.191 NA
ENDBRANCH  23  27
ENDBRANCH  20  22
ENDBRANCH  17  18
ENDBRANCH   5  17
TORSDOF 7
