REMARK  Name = ZINC07057807
REMARK  5 active torsions:
REMARK  status: ('A' for Active; 'I' for Inactive)
REMARK    1  A    between atoms: C_1  and  N_2
REMARK    2  A    between atoms: N_2  and  C_3
REMARK    3  A    between atoms: N_2  and  S_9
REMARK    4  A    between atoms: S_9  and  C_12
REMARK    5  A    between atoms: C_15  and  N_18
REMARK                            x       y       z     vdW  Elec       q    Type
REMARK                         _______ _______ _______ _____ _____    ______ ____
ROOT
ATOM      1  C   UNL     1       0.002  -0.004   0.002  0.00  0.00    +0.106 A 
ATOM      2  C   UNL     1      -0.006  -0.688  -1.200  0.00  0.00    +0.030 A 
ATOM      3  C   UNL     1       0.018  -2.069  -1.211  0.00  0.00    +0.026 A 
ATOM      4  C   UNL     1       0.039  -2.771  -0.013  0.00  0.00    +0.045 A 
ATOM      5  C   UNL     1       0.041  -2.082   1.192  0.00  0.00    +0.026 A 
ATOM      6  C   UNL     1       0.023  -0.700   1.196  0.00  0.00    +0.030 A 
ENDROOT
BRANCH   4   7
ATOM      7  N   UNL     1       0.057  -4.172  -0.021  0.00  0.00    -0.202 N 
ATOM      8  C   UNL     1       0.083  -4.939   1.084  0.00  0.00    +0.258 C 
ATOM      9  O   UNL     1       0.095  -4.533   2.229  0.00  0.00    -0.269 OA
ATOM     10  C   UNL     1       0.092  -6.358   0.672  0.00  0.00    +0.050 A 
ATOM     11  C   UNL     1       0.113  -7.564   1.354  0.00  0.00    +0.014 A 
ATOM     12  C   UNL     1       0.122  -8.755   0.645  0.00  0.00    +0.001 A 
ATOM     13  C   UNL     1       0.109  -8.748  -0.737  0.00  0.00    +0.001 A 
ATOM     14  C   UNL     1       0.087  -7.549  -1.433  0.00  0.00    +0.014 A 
ATOM     15  C   UNL     1       0.078  -6.351  -0.738  0.00  0.00    +0.050 A 
ATOM     16  C   UNL     1       0.056  -4.927  -1.134  0.00  0.00    +0.258 C 
ATOM     17  O   UNL     1       0.040  -4.509  -2.274  0.00  0.00    -0.269 OA
ENDBRANCH   4   7
BRANCH   1  18
ATOM     18  S   UNL     1      -0.022   1.758   0.012  0.00  0.00    +0.061 S 
ATOM     19  O   UNL     1      -0.590   2.163  -1.226  0.00  0.00    -0.153 OA
ATOM     20  O   UNL     1      -0.566   2.150   1.264  0.00  0.00    -0.153 OA
BRANCH  18  22
ATOM     21  C   UNL     1       2.238   2.502  -1.275  0.00  0.00    +0.132 C 
ATOM     22  N   UNL     1       1.553   2.269  -0.001  0.00  0.00    -0.177 NA
BRANCH  22  23
ATOM     23  C   UNL     1       2.262   2.488   1.263  0.00  0.00    +0.080 C 
ATOM     24  C   UNL     1       2.714   3.947   1.347  0.00  0.00    +0.020 C 
ATOM     25  C   UNL     1       3.454   4.176   2.667  0.00  0.00    +0.002 C 
ATOM     26  C   UNL     1       4.677   3.259   2.731  0.00  0.00    +0.000 C 
ATOM     27  C   UNL     1       4.225   1.800   2.646  0.00  0.00    +0.002 C 
ATOM     28  C   UNL     1       3.485   1.571   1.327  0.00  0.00    +0.020 C 
ENDBRANCH  22  23
ENDBRANCH  18  22
ENDBRANCH   1  18
TORSDOF 4
