REMARK  Name = ZINC41248322
REMARK  4 active torsions:
REMARK  status: ('A' for Active; 'I' for Inactive)
REMARK    1  A    between atoms: C_1  and  C_2
REMARK    2  A    between atoms: C_6  and  C_7
REMARK    3  A    between atoms: C_14  and  O_19
REMARK    4  A    between atoms: C_15  and  C_18
REMARK                            x       y       z     vdW  Elec       q    Type
REMARK                         _______ _______ _______ _____ _____    ______ ____
ROOT
ATOM      1  C   UNL     1       0.030  -0.306   2.517  0.00  0.00    +0.065 C 
ATOM      2  C   UNL     1       0.052  -1.211   3.537  0.00  0.00    +0.177 C 
ATOM      3  C   UNL     1       0.055  -0.900   4.923  0.00  0.00    +0.231 C 
ATOM      4  O   UNL     1       0.039   0.208   5.434  0.00  0.00    -0.283 OA
ATOM      5  C   UNL     1       0.082  -2.202   5.611  0.00  0.00    +0.068 A 
ATOM      6  C   UNL     1       0.098  -2.579   6.954  0.00  0.00    +0.019 A 
ATOM      7  C   UNL     1       0.123  -3.904   7.288  0.00  0.00    +0.046 A 
ATOM      8  C   UNL     1       0.135  -4.878   6.293  0.00  0.00    +0.123 A 
ATOM      9  C   UNL     1       0.119  -4.518   4.955  0.00  0.00    +0.034 A 
ATOM     10  C   UNL     1       0.093  -3.177   4.599  0.00  0.00    +0.146 A 
ATOM     11  O   UNL     1       0.069  -2.558   3.399  0.00  0.00    -0.451 OA
ATOM     12  C   UNL     1       0.132  -5.582   3.888  0.00  0.00    +0.051 C 
ENDROOT
BRANCH   1  18
ATOM     13  C   UNL     1      -0.018   1.503   0.010  0.00  0.00    +0.045 C 
ATOM     14  C   UNL     1       0.002  -0.004   0.002  0.00  0.00    -0.036 A 
ATOM     15  C   UNL     1       0.007  -0.729  -1.164  0.00  0.00    +0.011 A 
ATOM     16  C   UNL     1       0.026  -2.084  -1.099  0.00  0.00    +0.046 A 
ATOM     17  S   UNL     1       0.038  -2.420   0.547  0.00  0.00    -0.097 S 
ATOM     18  C   UNL     1       0.023  -0.752   1.176  0.00  0.00    +0.019 A 
ENDBRANCH   1  18
BRANCH   8  19
ATOM     19  O   UNL     1       0.161  -6.191   6.637  0.00  0.00    -0.506 OA
ATOM     20  H   UNL     1      -0.715  -6.588   6.742  0.00  0.00    +0.292 HD
ENDBRANCH   8  19
TORSDOF 2
