REMARK  Name = ZINC12571200
REMARK  10 active torsions:
REMARK  status: ('A' for Active; 'I' for Inactive)
REMARK    1  A    between atoms: C_1  and  N_2
REMARK    2  A    between atoms: N_2  and  C_3
REMARK    3  A    between atoms: C_3  and  C_4
REMARK    4  A    between atoms: C_10  and  C_12
REMARK    5  A    between atoms: C_12  and  C_13
REMARK    6  A    between atoms: C_20  and  C_21
REMARK    7  A    between atoms: C_20  and  N_63
REMARK    8  A    between atoms: C_22  and  C_23
REMARK    9  A    between atoms: C_28  and  O_29
REMARK   10  A    between atoms: O_29  and  C_30
REMARK                            x       y       z     vdW  Elec       q    Type
REMARK                         _______ _______ _______ _____ _____    ______ ____
ROOT
ATOM      1  C   UNL     1       7.118   4.453   0.872  0.00  0.00    +0.028 C 
ATOM      2  C   UNL     1       8.230   3.788   1.632  0.00  0.00    +0.200 C 
ATOM      3  O   UNL     1       9.296   4.360   1.723  0.00  0.00    -0.278 OA
ATOM      4  N   UNL     1       8.095   2.591   2.212  0.00  0.00    -0.318 N 
ATOM      5  C   UNL     1       6.845   1.836   2.193  0.00  0.00    +0.085 C 
ATOM      6  C   UNL     1       5.930   2.365   1.087  0.00  0.00    -0.058 C 
ATOM      7  H   UNL     1       8.861   2.206   2.666  0.00  0.00    +0.149 HD
ATOM      8  N   UNL     1       5.831   3.831   1.238  0.00  0.00    +0.391 N 
ATOM      9  H   UNL     1       5.616   4.054   2.216  0.00  0.00    -0.080 HD
ENDROOT
BRANCH   1  10
ATOM     10  C   UNL     1       7.073   5.939   1.235  0.00  0.00    +0.090 C 
BRANCH  10  13
ATOM     11  C   UNL     1       6.595   8.496   2.364  0.00  0.00    +0.132 C 
ATOM     12  N   UNL     1       6.583   7.316   3.231  0.00  0.00    -0.304 N 
ATOM     13  C   UNL     1       6.755   6.089   2.701  0.00  0.00    +0.214 C 
ATOM     14  O   UNL     1       6.655   5.105   3.403  0.00  0.00    -0.276 OA
BRANCH  12  15
ATOM     15  C   UNL     1       6.383   7.469   4.674  0.00  0.00    +0.111 C 
BRANCH  15  16
ATOM     16  C   UNL     1       7.722   7.787   5.343  0.00  0.00    +0.011 C 
ATOM     17  C   UNL     1       8.649   6.572   5.239  0.00  0.00    +0.033 C 
ATOM     18  C   UNL     1       9.954   6.871   5.981  0.00  0.00    +0.160 C 
ATOM     19  O   UNL     1       9.665   7.200   7.341  0.00  0.00    -0.380 OA
ATOM     20  C   UNL     1       8.842   8.357   7.499  0.00  0.00    +0.160 C 
ATOM     21  C   UNL     1       7.491   8.117   6.821  0.00  0.00    +0.033 C 
ENDBRANCH  15  16
ENDBRANCH  12  15
ENDBRANCH  10  13
ENDBRANCH   1  10
BRANCH   8  22
ATOM     22  C   UNL     1       4.750   4.359   0.375  0.00  0.00    -0.050 C 
BRANCH  22  23
ATOM     23  C   UNL     1       3.480   3.596   0.651  0.00  0.00    -0.045 C 
ATOM     24  C   UNL     1       2.400   4.238   1.074  0.00  0.00    +0.005 C 
BRANCH  24  25
ATOM     25  C   UNL     1       1.191   3.479   1.454  0.00  0.00    +0.016 A 
ATOM     26  C   UNL     1       1.138   2.099   1.254  0.00  0.00    +0.011 A 
ATOM     27  C   UNL     1       0.006   1.396   1.611  0.00  0.00    +0.001 A 
ATOM     28  C   UNL     1      -1.080   2.054   2.162  0.00  0.00    +0.004 A 
ATOM     29  C   UNL     1      -1.037   3.420   2.369  0.00  0.00    +0.046 A 
ATOM     30  C   UNL     1       0.092   4.141   2.016  0.00  0.00    +0.127 A 
BRANCH  30  31
ATOM     31  O   UNL     1       0.134   5.484   2.215  0.00  0.00    -0.495 OA
ATOM     32  C   UNL     1      -1.024   6.090   2.793  0.00  0.00    +0.277 C 
ENDBRANCH  30  31
ENDBRANCH  24  25
ENDBRANCH  22  23
ENDBRANCH   8  22
TORSDOF 8
