REMARK  Name = ZINC04689557
REMARK  8 active torsions:
REMARK  status: ('A' for Active; 'I' for Inactive)
REMARK    1  A    between atoms: C_1  and  C_2
REMARK    2  A    between atoms: C_5  and  N_8
REMARK    3  A    between atoms: C_9  and  C_11
REMARK    4  A    between atoms: C_11  and  C_29
REMARK    5  A    between atoms: C_12  and  C_13
REMARK    6  A    between atoms: C_16  and  O_19
REMARK    7  A    between atoms: O_19  and  C_20
REMARK    8  A    between atoms: C_20  and  C_22
REMARK                            x       y       z     vdW  Elec       q    Type
REMARK                         _______ _______ _______ _____ _____    ______ ____
ROOT
ATOM      1  C   UNL     1       3.911  -6.311  -0.547  0.00  0.00    -0.023 A 
ATOM      2  C   UNL     1       2.769  -7.123  -0.526  0.00  0.00    +0.011 A 
ATOM      3  C   UNL     1       2.889  -8.475  -0.722  0.00  0.00    +0.047 A 
ATOM      4  C   UNL     1       4.142  -9.042  -0.932  0.00  0.00    +0.132 A 
ATOM      5  C   UNL     1       5.279  -8.242  -0.948  0.00  0.00    +0.047 A 
ATOM      6  C   UNL     1       5.172  -6.888  -0.758  0.00  0.00    +0.011 A 
ENDROOT
BRANCH   1   8
ATOM      7  C   UNL     1       2.692  -4.191  -0.831  0.00  0.00    +0.114 C 
ATOM      8  C   UNL     1       3.790  -4.865  -0.344  0.00  0.00    +0.032 C 
BRANCH   7  10
ATOM      9  N   UNL     1       1.535  -2.069  -1.179  0.00  0.00    -0.281 N 
ATOM     10  C   UNL     1       2.610  -2.728  -0.702  0.00  0.00    +0.259 C 
ATOM     11  O   UNL     1       3.512  -2.113  -0.165  0.00  0.00    -0.269 OA
ATOM     12  H   UNL     1       0.777  -2.564  -1.527  0.00  0.00    +0.155 HD
BRANCH   9  17
ATOM     13  C   UNL     1       1.445   3.603  -1.150  0.00  0.00    +0.044 C 
ATOM     14  C   UNL     1       1.469   2.096  -1.157  0.00  0.00    -0.050 A 
ATOM     15  C   UNL     1       2.678   1.426  -1.202  0.00  0.00    +0.005 A 
ATOM     16  C   UNL     1       2.703   0.045  -1.209  0.00  0.00    +0.023 A 
ATOM     17  C   UNL     1       1.513  -0.670  -1.171  0.00  0.00    +0.034 A 
ATOM     18  C   UNL     1       0.301   0.006  -1.127  0.00  0.00    +0.023 A 
ATOM     19  C   UNL     1       0.283   1.387  -1.120  0.00  0.00    +0.005 A 
ENDBRANCH   9  17
ENDBRANCH   7  10
BRANCH   7  20
ATOM     20  C   UNL     1       1.630  -4.915  -1.464  0.00  0.00    +0.104 C 
ATOM     21  N   UNL     1       0.788  -5.489  -1.965  0.00  0.00    -0.191 NA
ENDBRANCH   7  20
ENDBRANCH   1   8
BRANCH   4  22
ATOM     22  O   UNL     1       4.255 -10.381  -1.121  0.00  0.00    -0.422 OA
BRANCH  22  23
ATOM     23  C   UNL     1       4.734 -11.106  -0.090  0.00  0.00    +0.344 C 
ATOM     24  O   UNL     1       4.955 -10.571   0.978  0.00  0.00    -0.245 OA
BRANCH  23  25
ATOM     25  C   UNL     1       4.989 -12.550  -0.260  0.00  0.00    +0.059 A 
ATOM     26  C   UNL     1       4.730 -13.169  -1.484  0.00  0.00    +0.016 A 
ATOM     27  C   UNL     1       4.976 -14.517  -1.638  0.00  0.00    +0.021 A 
ATOM     28  C   UNL     1       5.468 -15.260  -0.577  0.00  0.00    +0.041 A 
ATOM     29  C   UNL     1       5.722 -14.652   0.642  0.00  0.00    +0.021 A 
ATOM     30  C   UNL     1       5.486 -13.304   0.806  0.00  0.00    +0.016 A 
ATOM     31 CL   UNL     1       5.769 -16.958  -0.776  0.00  0.00    -0.084 Cl
ENDBRANCH  23  25
ENDBRANCH  22  23
ENDBRANCH   4  22
TORSDOF 7
