REMARK  Name = ZINC20751579
REMARK  4 active torsions:
REMARK  status: ('A' for Active; 'I' for Inactive)
REMARK    1  A    between atoms: C_1  and  C_2
REMARK    2  A    between atoms: C_5  and  N_29
REMARK    3  A    between atoms: C_9  and  C_18
REMARK    4  A    between atoms: C_27  and  O_28
REMARK                            x       y       z     vdW  Elec       q    Type
REMARK                         _______ _______ _______ _____ _____    ______ ____
ROOT
ATOM      1  C   UNL     1       0.324  -2.558  -3.015  0.00  0.00    +0.045 C 
ATOM      2  C   UNL     1      -0.296  -1.510  -3.904  0.00  0.00    -0.029 A 
ATOM      3  C   UNL     1      -0.990  -1.891  -5.033  0.00  0.00    +0.007 A 
ATOM      4  C   UNL     1      -1.558  -0.928  -5.847  0.00  0.00    +0.033 A 
ATOM      5  C   UNL     1      -1.429   0.409  -5.529  0.00  0.00    +0.132 A 
ATOM      6  C   UNL     1      -0.732   0.803  -4.395  0.00  0.00    +0.011 A 
ATOM      7  C   UNL     1      -0.165  -0.160  -3.579  0.00  0.00    +0.037 A 
ATOM      8  N   UNL     1       0.542   0.169  -2.422  0.00  0.00    -0.336 N 
ATOM      9  C   UNL     1       1.121   1.510  -2.490  0.00  0.00    +0.109 C 
ATOM     10  C   UNL     1       0.009   2.535  -2.727  0.00  0.00    +0.029 C 
ATOM     11  C   UNL     1      -0.627   2.272  -4.109  0.00  0.00    +0.051 C 
ATOM     12  C   UNL     1       0.317   2.938  -5.082  0.00  0.00    -0.023 C 
ATOM     13  C   UNL     1       1.043   3.841  -4.471  0.00  0.00    -0.030 C 
ATOM     14  C   UNL     1       0.680   3.910  -3.001  0.00  0.00    +0.033 C 
ATOM     15  H   UNL     1       0.691  -0.450  -1.525  0.00  0.00    +0.147 HD
ENDROOT
BRANCH   9  16
ATOM     16  C   UNL     1       1.823   1.821  -1.194  0.00  0.00    +0.022 A 
ATOM     17  C   UNL     1       3.098   2.410  -1.204  0.00  0.00    -0.009 A 
ATOM     18  C   UNL     1       3.748   2.722  -2.411  0.00  0.00    +0.009 A 
ATOM     19  C   UNL     1       4.983   3.292  -2.384  0.00  0.00    +0.001 A 
ATOM     20  C   UNL     1       5.617   3.573  -1.175  0.00  0.00    +0.001 A 
ATOM     21  C   UNL     1       5.019   3.285   0.014  0.00  0.00    +0.008 A 
ATOM     22  C   UNL     1       3.743   2.695   0.026  0.00  0.00    -0.017 A 
ATOM     23  C   UNL     1       3.095   2.385   1.234  0.00  0.00    +0.012 A 
ATOM     24  C   UNL     1       1.858   1.820   1.210  0.00  0.00    +0.046 A 
ATOM     25  C   UNL     1       1.223   1.532  -0.001  0.00  0.00    +0.122 A 
BRANCH  25  26
ATOM     26  O   UNL     1      -0.011   0.963   0.007  0.00  0.00    -0.506 OA
ATOM     27  H   UNL     1      -0.501   0.727   0.963  0.00  0.00    +0.292 HD
ENDBRANCH  25  26
ENDBRANCH   9  16
BRANCH   5  28
ATOM     28  N   UNL     1      -2.040   1.432  -6.406  0.00  0.00    +0.057 N 
ATOM     29  O   UNL     1      -2.653   1.093  -7.403  0.00  0.00    -0.126 OA
ATOM     30  O   UNL     1      -1.931   2.614  -6.131  0.00  0.00    -0.126 OA
ENDBRANCH   5  28
TORSDOF 3
