REMARK  Name = ZINC04132274
REMARK  4 active torsions:
REMARK  status: ('A' for Active; 'I' for Inactive)
REMARK    1  A    between atoms: C_1  and  O_2
REMARK    2  A    between atoms: O_2  and  C_3
REMARK    3  A    between atoms: C_5  and  N_25
REMARK    4  A    between atoms: C_10  and  C_19
REMARK                            x       y       z     vdW  Elec       q    Type
REMARK                         _______ _______ _______ _____ _____    ______ ____
ROOT
ATOM      1  C   UNL     1       3.059   1.897  -3.432  0.00  0.00    +0.143 A 
ATOM      2  C   UNL     1       2.321   2.884  -4.060  0.00  0.00    +0.080 A 
ATOM      3  C   UNL     1       1.304   3.520  -3.374  0.00  0.00    +0.130 A 
ATOM      4  C   UNL     1       1.027   3.172  -2.068  0.00  0.00    +0.039 A 
ATOM      5  C   UNL     1       1.762   2.181  -1.427  0.00  0.00    -0.014 A 
ATOM      6  C   UNL     1       2.778   1.542  -2.109  0.00  0.00    +0.074 A 
ATOM      7  N   UNL     1       3.552   0.537  -1.521  0.00  0.00    -0.334 N 
ATOM      8  C   UNL     1       3.636   0.701  -0.069  0.00  0.00    +0.105 C 
ATOM      9  C   UNL     1       2.241   0.682   0.536  0.00  0.00    +0.029 C 
ATOM     10  C   UNL     1       1.400   1.858  -0.001  0.00  0.00    +0.049 C 
ATOM     11  C   UNL     1      -0.016   1.305   0.009  0.00  0.00    -0.023 C 
ATOM     12  C   UNL     1       0.002  -0.004   0.002  0.00  0.00    -0.030 C 
ATOM     13  C   UNL     1       1.430  -0.516  -0.015  0.00  0.00    +0.033 C 
ATOM     14  H   UNL     1       4.471   0.501  -1.935  0.00  0.00    +0.147 HD
ENDROOT
BRANCH   8  15
ATOM     15  C   UNL     1       4.450  -0.424   0.515  0.00  0.00    -0.027 A 
ATOM     16  C   UNL     1       4.292  -1.712   0.039  0.00  0.00    +0.005 A 
ATOM     17  C   UNL     1       5.042  -2.744   0.571  0.00  0.00    +0.000 A 
ATOM     18  C   UNL     1       5.944  -2.489   1.587  0.00  0.00    +0.000 A 
ATOM     19  C   UNL     1       6.099  -1.202   2.067  0.00  0.00    +0.000 A 
ATOM     20  C   UNL     1       5.352  -0.170   1.532  0.00  0.00    +0.005 A 
ENDBRANCH   8  15
BRANCH   3  21
ATOM     21  N   UNL     1       0.511   4.578  -4.040  0.00  0.00    +0.057 N 
ATOM     22  O   UNL     1      -0.385   5.139  -3.436  0.00  0.00    -0.126 OA
ATOM     23  O   UNL     1       0.755   4.886  -5.193  0.00  0.00    -0.126 OA
ENDBRANCH   3  21
BRANCH   1  25
ATOM     24  C   UNL     1       4.295   1.679  -5.453  0.00  0.00    +0.277 C 
ATOM     25  O   UNL     1       4.061   1.268  -4.104  0.00  0.00    -0.493 OA
ENDBRANCH   1  25
TORSDOF 3
