REMARK  Name = ZINC28686715
REMARK  6 active torsions:
REMARK  status: ('A' for Active; 'I' for Inactive)
REMARK    1  A    between atoms: C_1  and  C_2
REMARK    2  A    between atoms: C_7  and  S_15
REMARK    3  A    between atoms: C_12  and  C_14
REMARK    4  A    between atoms: S_15  and  N_18
REMARK    5  A    between atoms: N_18  and  N_19
REMARK    6  A    between atoms: C_23  and  C_26
REMARK                            x       y       z     vdW  Elec       q    Type
REMARK                         _______ _______ _______ _____ _____    ______ ____
ROOT
ATOM      1  S   UNL     1      -0.070  -0.021   0.861  0.00  0.00    +0.074 S 
ATOM      2  O   UNL     1      -1.276  -0.532   0.311  0.00  0.00    -0.152 OA
ATOM      3  O   UNL     1       1.211  -0.454   0.424  0.00  0.00    -0.152 OA
ENDROOT
BRANCH   1   9
ATOM      4  C   UNL     1      -2.227   6.686  -1.368  0.00  0.00    +0.029 C 
ATOM      5  C   UNL     1      -1.883   6.080  -0.007  0.00  0.00    +0.083 C 
ATOM      6  C   UNL     1      -2.529   4.692   0.138  0.00  0.00    +0.059 C 
ATOM      7  C   UNL     1      -1.363   3.746   0.316  0.00  0.00    -0.022 A 
ATOM      8  C   UNL     1      -1.326   2.375   0.487  0.00  0.00    +0.034 A 
ATOM      9  C   UNL     1      -0.114   1.726   0.635  0.00  0.00    +0.107 A 
ATOM     10  C   UNL     1       1.063   2.451   0.601  0.00  0.00    +0.030 A 
ATOM     11  C   UNL     1       1.032   3.818   0.425  0.00  0.00    +0.026 A 
ATOM     12  C   UNL     1      -0.189   4.481   0.280  0.00  0.00    +0.040 A 
ATOM     13  N   UNL     1      -0.440   5.844   0.095  0.00  0.00    -0.268 N 
ATOM     14  C   UNL     1       0.506   6.801   0.020  0.00  0.00    +0.217 C 
ATOM     15  O   UNL     1       1.679   6.494  -0.002  0.00  0.00    -0.276 OA
ATOM     16  C   UNL     1       0.106   8.253  -0.037  0.00  0.00    +0.109 C 
ENDBRANCH   1   9
BRANCH   1  17
ATOM     17  N   UNL     1      -0.135  -0.306   2.491  0.00  0.00    -0.109 NA
ATOM     18  H   UNL     1       0.589  -0.780   2.930  0.00  0.00    +0.172 HD
BRANCH  17  19
ATOM     19  N   UNL     1      -1.235   0.138   3.236  0.00  0.00    -0.246 N 
ATOM     20  C   UNL     1      -1.958  -0.761   4.011  0.00  0.00    +0.133 A 
ATOM     21  C   UNL     1      -3.050  -0.314   4.748  0.00  0.00    +0.045 A 
ATOM     22  C   UNL     1      -3.761  -1.220   5.515  0.00  0.00    +0.017 A 
ATOM     23  C   UNL     1      -3.355  -2.548   5.517  0.00  0.00    +0.073 A 
ATOM     24  C   UNL     1      -2.262  -2.922   4.762  0.00  0.00    +0.125 A 
ATOM     25  N   UNL     1      -1.606  -2.037   4.035  0.00  0.00    -0.239 NA
ATOM     26  H   UNL     1      -1.526   1.199   3.209  0.00  0.00    +0.169 HD
BRANCH  23  27
ATOM     27  C   UNL     1      -4.099  -3.570   6.338  0.00  0.00    +0.419 C 
ATOM     28  F   UNL     1      -5.123  -4.130   5.567  0.00  0.00    -0.166 F 
ATOM     29  F   UNL     1      -3.216  -4.576   6.743  0.00  0.00    -0.166 F 
ATOM     30  F   UNL     1      -4.650  -2.951   7.465  0.00  0.00    -0.166 F 
ENDBRANCH  23  27
ENDBRANCH  17  19
ENDBRANCH   1  17
TORSDOF 4
