REMARK  Name = ZINC06435733
REMARK  5 active torsions:
REMARK  status: ('A' for Active; 'I' for Inactive)
REMARK    1  A    between atoms: C_1  and  C_2
REMARK    2  A    between atoms: C_7  and  N_12
REMARK    3  A    between atoms: C_9  and  C_11
REMARK    4  A    between atoms: C_13  and  C_15
REMARK    5  A    between atoms: N_24  and  C_26
REMARK                            x       y       z     vdW  Elec       q    Type
REMARK                         _______ _______ _______ _____ _____    ______ ____
ROOT
ATOM      1  N   UNL     1      -1.659   5.950   0.050  0.00  0.00    -0.307 N 
ATOM      2  C   UNL     1      -0.415   5.432   0.035  0.00  0.00    +0.265 C 
ATOM      3  O   UNL     1       0.551   6.170   0.029  0.00  0.00    -0.268 OA
ATOM      4  H   UNL     1      -2.429   5.361   0.054  0.00  0.00    +0.149 HD
ENDROOT
BRANCH   2   5
ATOM      5  C   UNL     1      -0.225   3.967   0.026  0.00  0.00    +0.154 A 
ATOM      6  C   UNL     1       1.130   3.392   0.009  0.00  0.00    +0.020 A 
ATOM      7  C   UNL     1       2.280   4.173   0.003  0.00  0.00    +0.011 A 
ATOM      8  C   UNL     1       3.515   3.560  -0.011  0.00  0.00    +0.001 A 
ATOM      9  C   UNL     1       3.621   2.175  -0.020  0.00  0.00    +0.001 A 
ATOM     10  C   UNL     1       2.493   1.382  -0.014  0.00  0.00    +0.014 A 
ATOM     11  C   UNL     1       1.238   1.982   0.001  0.00  0.00    +0.050 A 
ATOM     12  C   UNL     1      -0.014   1.213   0.009  0.00  0.00    +0.275 A 
ATOM     13  O   UNL     1       0.002  -0.004   0.002  0.00  0.00    -0.266 OA
ATOM     14  N   UNL     1      -1.183   1.888   0.018  0.00  0.00    -0.231 N 
ATOM     15  N   UNL     1      -1.261   3.164   0.031  0.00  0.00    -0.163 NA
ATOM     16  C   UNL     1      -2.428   1.116   0.019  0.00  0.00    +0.176 C 
ENDBRANCH   2   5
BRANCH   1  22
ATOM     17  C   UNL     1      -5.673   7.419   0.488  0.00  0.00    +0.008 C 
ATOM     18  C   UNL     1      -4.317   7.084  -0.137  0.00  0.00    -0.009 C 
ATOM     19  C   UNL     1      -4.272   7.613  -1.571  0.00  0.00    +0.003 C 
ATOM     20  C   UNL     1      -2.916   7.278  -2.196  0.00  0.00    +0.002 C 
ATOM     21  C   UNL     1      -1.802   7.932  -1.376  0.00  0.00    +0.022 C 
ATOM     22  C   UNL     1      -1.847   7.403   0.059  0.00  0.00    +0.076 C 
ATOM     23  C   UNL     1      -3.203   7.737   0.683  0.00  0.00    +0.009 C 
ATOM     24  C   UNL     1      -3.248   7.208   2.118  0.00  0.00    +0.009 C 
ENDBRANCH   1  22
TORSDOF 2
