REMARK  Name = ZINC08156915
REMARK  4 active torsions:
REMARK  status: ('A' for Active; 'I' for Inactive)
REMARK    1  A    between atoms: C_1  and  C_2
REMARK    2  A    between atoms: N_11  and  C_15
REMARK    3  A    between atoms: C_15  and  C_16
REMARK    4  A    between atoms: N_21  and  C_24
REMARK                            x       y       z     vdW  Elec       q    Type
REMARK                         _______ _______ _______ _____ _____    ______ ____
ROOT
ATOM      1  C   UNL     1       2.453   1.440  -0.014  0.00  0.00    +0.213 C 
ENDROOT
BRANCH   1  11
ATOM      2  C   UNL     1      -0.712   3.293   2.520  0.00  0.00    +0.010 C 
ATOM      3  C   UNL     1      -1.213   4.053   1.290  0.00  0.00    +0.018 C 
ATOM      4  C   UNL     1      -2.743   4.086   1.300  0.00  0.00    +0.006 C 
ATOM      5  C   UNL     1      -3.244   4.828   0.059  0.00  0.00    +0.000 C 
ATOM      6  C   UNL     1      -2.767   4.099  -1.199  0.00  0.00    +0.003 C 
ATOM      7  C   UNL     1      -1.237   4.066  -1.219  0.00  0.00    +0.035 C 
ATOM      8  C   UNL     1      -0.725   3.352   0.027  0.00  0.00    +0.115 C 
ATOM      9  C   UNL     1       0.785   3.285   0.012  0.00  0.00    +0.247 C 
ATOM     10  O   UNL     1       1.561   4.217   0.010  0.00  0.00    -0.273 OA
ATOM     11  N   UNL     1       1.088   1.971   0.002  0.00  0.00    -0.215 N 
ATOM     12  C   UNL     1      -0.014   1.211   0.009  0.00  0.00    +0.310 C 
ATOM     13  O   UNL     1       0.002  -0.004   0.002  0.00  0.00    -0.252 OA
ATOM     14  N   UNL     1      -1.144   1.945   0.018  0.00  0.00    -0.285 N 
ATOM     15  H   UNL     1      -2.054   1.610   0.019  0.00  0.00    +0.151 HD
ENDBRANCH   1  11
BRANCH   1  16
ATOM     16  C   UNL     1       2.907   1.266  -1.441  0.00  0.00    +0.234 C 
ATOM     17  O   UNL     1       2.163   1.556  -2.354  0.00  0.00    -0.274 OA
ATOM     18  N   UNL     1       4.140   0.787  -1.702  0.00  0.00    -0.297 N 
ATOM     19  C   UNL     1       5.060   0.435  -0.610  0.00  0.00    +0.126 C 
ATOM     20  C   UNL     1       5.582  -0.989  -0.861  0.00  0.00    +0.124 C 
ATOM     21  N   UNL     1       6.161  -1.062  -2.208  0.00  0.00    -0.327 N 
ATOM     22  C   UNL     1       5.145  -0.816  -3.240  0.00  0.00    +0.124 C 
ATOM     23  C   UNL     1       4.603   0.610  -3.087  0.00  0.00    +0.126 C 
BRANCH  21  24
ATOM     24  C   UNL     1       6.793  -2.285  -2.414  0.00  0.00    +0.033 A 
ATOM     25  C   UNL     1       6.435  -3.105  -3.484  0.00  0.00    +0.040 A 
ATOM     26  C   UNL     1       7.089  -4.307  -3.656  0.00  0.00    +0.084 A 
ATOM     27  C   UNL     1       8.398  -3.944  -1.789  0.00  0.00    +0.084 A 
ATOM     28  C   UNL     1       7.797  -2.726  -1.551  0.00  0.00    +0.040 A 
ATOM     29  N   UNL     1       8.071  -4.759  -2.829  0.00  0.00    -0.367 N 
ATOM     30  H   UNL     1       8.537  -5.662  -2.980  0.00  0.00    +0.165 HD
ENDBRANCH  21  24
ENDBRANCH   1  16
TORSDOF 3
