REMARK  Name = ZINC13315812
REMARK  7 active torsions:
REMARK  status: ('A' for Active; 'I' for Inactive)
REMARK    1  A    between atoms: C_1  and  C_2
REMARK    2  A    between atoms: C_5  and  C_23
REMARK    3  A    between atoms: C_6  and  O_8
REMARK    4  A    between atoms: O_8  and  C_9
REMARK    5  A    between atoms: C_9  and  C_11
REMARK    6  A    between atoms: C_9  and  C_12
REMARK    7  A    between atoms: N_14  and  C_15
REMARK                            x       y       z     vdW  Elec       q    Type
REMARK                         _______ _______ _______ _____ _____    ______ ____
ROOT
ATOM      1  C   UNL     1      -2.453   5.267   0.029  0.00  0.00    +0.256 C 
ATOM      2  C   UNL     1      -2.379   6.038  -1.291  0.00  0.00    +0.062 C 
ENDROOT
BRANCH   1   3
ATOM      3  C   UNL     1      -3.613   5.777   0.845  0.00  0.00    +0.258 C 
ATOM      4  O   UNL     1      -4.508   5.023   1.163  0.00  0.00    -0.271 OA
ATOM      5  N   UNL     1      -3.655   7.070   1.220  0.00  0.00    -0.282 N 
ATOM      6  H   UNL     1      -2.978   7.689   0.905  0.00  0.00    +0.155 HD
BRANCH   5   7
ATOM      7  C   UNL     1      -4.677   7.520   2.066  0.00  0.00    +0.035 A 
ATOM      8  C   UNL     1      -5.166   8.813   1.938  0.00  0.00    +0.026 A 
ATOM      9  C   UNL     1      -6.178   9.254   2.769  0.00  0.00    +0.041 A 
ATOM     10  C   UNL     1      -6.696   8.411   3.738  0.00  0.00    +0.142 A 
ATOM     11  C   UNL     1      -6.205   7.122   3.872  0.00  0.00    +0.078 A 
ATOM     12  C   UNL     1      -5.197   6.676   3.038  0.00  0.00    +0.046 A 
ATOM     13 CL   UNL     1      -6.857   6.068   5.087  0.00  0.00    -0.081 Cl
ATOM     14  F   UNL     1      -7.681   8.846   4.553  0.00  0.00    -0.204 F 
ENDBRANCH   5   7
ENDBRANCH   1   3
BRANCH   1  15
ATOM     15  O   UNL     1      -2.635   3.876  -0.242  0.00  0.00    -0.479 OA
BRANCH  15  21
ATOM     16  C   UNL     1       2.190   3.705  -0.926  0.00  0.00    +0.044 C 
ATOM     17  C   UNL     1       0.851   3.021  -0.825  0.00  0.00    -0.047 A 
ATOM     18  C   UNL     1       0.766   1.647  -0.980  0.00  0.00    +0.004 A 
ATOM     19  C   UNL     1      -0.452   1.010  -0.890  0.00  0.00    +0.019 A 
ATOM     20  C   UNL     1      -1.610   1.754  -0.646  0.00  0.00    +0.105 A 
ATOM     21  C   UNL     1      -1.519   3.144  -0.484  0.00  0.00    +0.136 A 
ATOM     22  C   UNL     1      -0.284   3.767  -0.579  0.00  0.00    +0.050 A 
BRANCH  20  23
ATOM     23  C   UNL     1      -2.918   1.081  -0.554  0.00  0.00    +0.390 C 
ATOM     24  O   UNL     1      -3.922   1.731  -0.342  0.00  0.00    -0.240 OA
ATOM     25  O   UNL     1      -3.000  -0.256  -0.706  0.00  0.00    -0.240 OA
ENDBRANCH  20  23
ENDBRANCH  15  21
ENDBRANCH   1  15
TORSDOF 5
