REMARK  Name = ZINC40521726
REMARK  2 active torsions:
REMARK  status: ('A' for Active; 'I' for Inactive)
REMARK    1  A    between atoms: C_9  and  C_12
REMARK    2  A    between atoms: N_14  and  C_15
REMARK                            x       y       z     vdW  Elec       q    Type
REMARK                         _______ _______ _______ _____ _____    ______ ____
ROOT
ATOM      1  C   UNL     1       6.124  -0.545   0.274  0.00  0.00    +0.244 C 
ATOM      2  O   UNL     1       6.242  -1.716  -0.035  0.00  0.00    -0.270 OA
ATOM      3  N   UNL     1       7.213   0.179   0.599  0.00  0.00    -0.300 N 
ATOM      4  H   UNL     1       7.120   1.113   0.845  0.00  0.00    +0.150 HD
ENDROOT
BRANCH   1  13
ATOM      5  C   UNL     1      -0.017   1.382   0.010  0.00  0.00    +0.023 A 
ATOM      6  C   UNL     1       1.164   2.103   0.002  0.00  0.00    +0.048 A 
ATOM      7  C   UNL     1       2.376   1.438  -0.013  0.00  0.00    +0.128 A 
ATOM      8  C   UNL     1       2.399   0.032  -0.020  0.00  0.00    +0.019 A 
ATOM      9  C   UNL     1       1.204  -0.685  -0.013  0.00  0.00    +0.031 A 
ATOM     10  C   UNL     1       0.002  -0.004   0.002  0.00  0.00    +0.042 A 
ATOM     11 CL   UNL     1      -1.492  -0.888   0.011  0.00  0.00    -0.084 Cl
ATOM     12  C   UNL     1       3.703  -0.649  -0.035  0.00  0.00    +0.023 C 
ATOM     13  C   UNL     1       4.801   0.077   0.291  0.00  0.00    +0.052 C 
ATOM     14  C   UNL     1       4.651   1.527   0.673  0.00  0.00    +0.269 C 
ATOM     15  O   UNL     1       3.551   2.115  -0.021  0.00  0.00    -0.487 OA
ENDBRANCH   1  13
BRANCH   3  16
ATOM     16  C   UNL     1       8.539  -0.444   0.581  0.00  0.00    +0.159 C 
ATOM     17  C   UNL     1       9.610   0.631   0.374  0.00  0.00    +0.032 C 
ATOM     18  C   UNL     1      10.862   0.031  -0.238  0.00  0.00    +0.004 C 
ATOM     19  C   UNL     1      11.589  -0.936   0.678  0.00  0.00    +0.019 C 
ATOM     20  C   UNL     1      10.752  -2.194   0.918  0.00  0.00    +0.104 C 
ATOM     21  N   UNL     1       9.842  -1.946   2.048  0.00  0.00    -0.314 N 
ATOM     22  C   UNL     1       8.795  -1.133   1.905  0.00  0.00    +0.233 C 
ATOM     23  O   UNL     1       8.047  -0.943   2.840  0.00  0.00    -0.274 OA
ATOM     24  H   UNL     1      10.004  -2.378   2.901  0.00  0.00    +0.149 HD
ENDBRANCH   3  16
TORSDOF 2
