REMARK  Name = ZINC08622890
REMARK  7 active torsions:
REMARK  status: ('A' for Active; 'I' for Inactive)
REMARK    1  A    between atoms: C_1  and  C_2
REMARK    2  A    between atoms: C_2  and  C_4
REMARK    3  A    between atoms: C_2  and  N_9
REMARK    4  A    between atoms: C_10  and  C_12
REMARK    5  A    between atoms: C_12  and  N_13
REMARK    6  A    between atoms: C_16  and  C_20
REMARK    7  A    between atoms: C_16  and  C_21
REMARK                            x       y       z     vdW  Elec       q    Type
REMARK                         _______ _______ _______ _____ _____    ______ ____
ROOT
ATOM      1  N   UNL     1       1.274   1.894   0.000  0.00  0.00    -0.215 N 
ATOM      2  C   UNL     1      -0.018   1.512   0.010  0.00  0.00    +0.251 C 
ATOM      3  O   UNL     1      -0.995   2.231   0.019  0.00  0.00    -0.272 OA
ATOM      4  C   UNL     1       0.002  -0.004   0.002  0.00  0.00    +0.135 C 
ATOM      5  N   UNL     1       1.438  -0.331  -0.013  0.00  0.00    -0.281 N 
ATOM      6  C   UNL     1       2.099   0.841  -0.013  0.00  0.00    +0.310 C 
ATOM      7  O   UNL     1       3.311   0.933  -0.025  0.00  0.00    -0.252 OA
ATOM      8  C   UNL     1      -0.686  -0.545  -1.253  0.00  0.00    +0.047 C 
ATOM      9  H   UNL     1       1.831  -1.218  -0.022  0.00  0.00    +0.152 HD
ENDROOT
BRANCH   4  10
ATOM     10  C   UNL     1      -0.652  -0.550   1.245  0.00  0.00    -0.015 A 
ATOM     11  C   UNL     1      -1.662   0.163   1.864  0.00  0.00    +0.007 A 
ATOM     12  C   UNL     1      -2.266  -0.340   3.001  0.00  0.00    +0.020 A 
ATOM     13  C   UNL     1      -1.853  -1.552   3.525  0.00  0.00    +0.041 A 
ATOM     14  C   UNL     1      -0.840  -2.262   2.908  0.00  0.00    +0.020 A 
ATOM     15  C   UNL     1      -0.240  -1.761   1.768  0.00  0.00    +0.007 A 
ATOM     16 CL   UNL     1      -2.608  -2.181   4.956  0.00  0.00    -0.084 Cl
ENDBRANCH   4  10
BRANCH   1  17
ATOM     17  C   UNL     1       1.720   3.289   0.002  0.00  0.00    +0.213 C 
BRANCH  17  19
ATOM     18  N   UNL     1       2.291   5.022   1.672  0.00  0.00    -0.307 N 
ATOM     19  C   UNL     1       1.886   3.761   1.424  0.00  0.00    +0.231 C 
ATOM     20  O   UNL     1       1.655   3.006   2.344  0.00  0.00    -0.274 OA
ATOM     21  H   UNL     1       2.476   5.626   0.936  0.00  0.00    +0.149 HD
BRANCH  18  23
ATOM     22  C   UNL     1       3.842   5.090   3.562  0.00  0.00    +0.033 C 
ATOM     23  C   UNL     1       2.453   5.481   3.054  0.00  0.00    +0.107 C 
BRANCH  23  24
ATOM     24  C   UNL     1       2.301   6.979   3.107  0.00  0.00    +0.010 A 
ATOM     25  C   UNL     1       1.673   7.742   4.035  0.00  0.00    +0.013 A 
ATOM     26  C   UNL     1       1.661   9.115   3.878  0.00  0.00    +0.008 A 
ATOM     27  C   UNL     1       2.278   9.659   2.800  0.00  0.00    +0.045 A 
ATOM     28  S   UNL     1       2.910   8.212   1.967  0.00  0.00    -0.100 S 
ENDBRANCH  23  24
ENDBRANCH  18  23
ENDBRANCH  17  19
ENDBRANCH   1  17
TORSDOF 5
