REMARK  Name = ZINC11998938
REMARK  5 active torsions:
REMARK  status: ('A' for Active; 'I' for Inactive)
REMARK    1  A    between atoms: C_1  and  O_2
REMARK    2  A    between atoms: O_2  and  C_3
REMARK    3  A    between atoms: C_6  and  N_10
REMARK    4  A    between atoms: C_23  and  C_24
REMARK    5  A    between atoms: C_23  and  N_49
REMARK                            x       y       z     vdW  Elec       q    Type
REMARK                         _______ _______ _______ _____ _____    ______ ____
ROOT
ATOM      1  N   UNL     1      -2.019   1.884  -3.599  0.00  0.00    -0.270 N 
ATOM      2  C   UNL     1      -0.567   2.016  -3.602  0.00  0.00    +0.090 C 
ATOM      3  C   UNL     1      -0.015   1.439  -4.928  0.00  0.00    +0.187 C 
ATOM      4  S   UNL     1       0.401  -0.294  -4.474  0.00  0.00    -0.031 S 
ATOM      5  O   UNL     1       1.802  -0.485  -4.615  0.00  0.00    -0.174 OA
ATOM      6  O   UNL     1      -0.495  -1.174  -5.139  0.00  0.00    -0.174 OA
ATOM      7  C   UNL     1      -0.021  -0.251  -2.681  0.00  0.00    +0.152 C 
ATOM      8  C   UNL     1       0.050   1.277  -2.409  0.00  0.00    -0.023 C 
ATOM      9  C   UNL     1      -2.062   1.014  -1.266  0.00  0.00    +0.020 C 
ATOM     10  C   UNL     1      -2.717   1.442  -2.549  0.00  0.00    +0.203 C 
ATOM     11  O   UNL     1      -3.926   1.385  -2.635  0.00  0.00    -0.277 OA
ATOM     12  N   UNL     1      -0.711   1.605  -1.188  0.00  0.00    +0.392 N 
ATOM     13  H   UNL     1      -0.796   2.625  -1.112  0.00  0.00    -0.080 HD
ENDROOT
BRANCH   1  17
ATOM     14  C   UNL     1      -4.104   2.945  -7.051  0.00  0.00    +0.138 A 
ATOM     15  C   UNL     1      -3.453   3.918  -6.308  0.00  0.00    +0.049 A 
ATOM     16  C   UNL     1      -2.766   3.568  -5.162  0.00  0.00    +0.027 A 
ATOM     17  C   UNL     1      -2.719   2.240  -4.759  0.00  0.00    +0.038 A 
ATOM     18  C   UNL     1      -3.371   1.266  -5.503  0.00  0.00    +0.047 A 
ATOM     19  C   UNL     1      -4.062   1.618  -6.646  0.00  0.00    +0.084 A 
ATOM     20 CL   UNL     1      -4.878   0.400  -7.577  0.00  0.00    -0.080 Cl
BRANCH  14  22
ATOM     21  C   UNL     1      -4.785   4.675  -8.534  0.00  0.00    +0.277 C 
ATOM     22  O   UNL     1      -4.784   3.291  -8.177  0.00  0.00    -0.494 OA
ENDBRANCH  14  22
ENDBRANCH   1  17
BRANCH  12  23
ATOM     23  C   UNL     1      -0.002   1.091   0.003  0.00  0.00    -0.042 C 
BRANCH  23  24
ATOM     24  C   UNL     1      -0.677   1.627   1.240  0.00  0.00    -0.064 A 
ATOM     25  C   UNL     1      -0.271   2.832   1.781  0.00  0.00    +0.004 A 
ATOM     26  C   UNL     1      -0.892   3.327   2.912  0.00  0.00    +0.038 A 
ATOM     27  C   UNL     1      -1.915   2.609   3.510  0.00  0.00    +0.123 A 
ATOM     28  C   UNL     1      -2.317   1.399   2.970  0.00  0.00    +0.038 A 
ATOM     29  C   UNL     1      -1.698   0.909   1.835  0.00  0.00    +0.004 A 
ATOM     30  F   UNL     1      -2.519   3.089   4.618  0.00  0.00    -0.205 F 
ENDBRANCH  23  24
ENDBRANCH  12  23
TORSDOF 4
