REMARK  Name = ZINC45697779
REMARK  6 active torsions:
REMARK  status: ('A' for Active; 'I' for Inactive)
REMARK    1  A    between atoms: C_1  and  C_2
REMARK    2  A    between atoms: N_5  and  C_11
REMARK    3  A    between atoms: C_7  and  C_9
REMARK    4  A    between atoms: C_7  and  C_10
REMARK    5  A    between atoms: C_12  and  C_20
REMARK    6  A    between atoms: C_20  and  O_21
REMARK                            x       y       z     vdW  Elec       q    Type
REMARK                         _______ _______ _______ _____ _____    ______ ____
ROOT
ATOM      1  C   UNL     1      -2.150  -2.758  -0.718  0.00  0.00    +0.146 A 
ATOM      2  C   UNL     1      -3.334  -3.357  -0.430  0.00  0.00    +0.090 A 
ATOM      3  N   UNL     1      -3.599  -4.235  -1.449  0.00  0.00    -0.300 N 
ATOM      4  C   UNL     1      -4.636  -5.091  -1.682  0.00  0.00    +0.093 A 
ATOM      5  C   UNL     1      -4.654  -5.863  -2.789  0.00  0.00    +0.018 A 
ATOM      6  C   UNL     1      -3.604  -5.795  -3.718  0.00  0.00    +0.005 A 
ATOM      7  C   UNL     1      -2.564  -4.944  -3.498  0.00  0.00    +0.047 A 
ATOM      8  C   UNL     1      -2.560  -4.146  -2.338  0.00  0.00    +0.140 A 
ATOM      9  N   UNL     1      -1.700  -3.245  -1.879  0.00  0.00    -0.213 NA
ENDROOT
BRANCH   1  13
ATOM     10  C   UNL     1      -0.715   1.895  -0.262  0.00  0.00    +0.039 C 
ATOM     11  C   UNL     1      -0.462   0.386  -0.263  0.00  0.00    +0.133 C 
ATOM     12  C   UNL     1      -1.795  -0.357  -0.118  0.00  0.00    +0.138 C 
ATOM     13  N   UNL     1      -1.511  -1.789   0.066  0.00  0.00    -0.309 N 
ATOM     14  C   UNL     1      -0.536  -2.173   1.099  0.00  0.00    +0.141 C 
ATOM     15  C   UNL     1       0.736  -1.341   0.895  0.00  0.00    +0.080 C 
ATOM     16  O   UNL     1       0.389   0.044   0.834  0.00  0.00    -0.368 OA
ATOM     17  C   UNL     1       1.693  -1.577   2.066  0.00  0.00    +0.043 C 
ATOM     18  C   UNL     1       1.414  -1.756  -0.412  0.00  0.00    +0.043 C 
ENDBRANCH   1  13
BRANCH   2  19
ATOM     19  C   UNL     1      -4.194  -3.104   0.781  0.00  0.00    +0.213 C 
BRANCH  19  20
ATOM     20  O   UNL     1      -3.836  -4.019   1.819  0.00  0.00    -0.389 OA
ATOM     21  H   UNL     1      -4.350  -3.914   2.631  0.00  0.00    +0.210 HD
ENDBRANCH  19  20
ENDBRANCH   2  19
TORSDOF 3
