REMARK  Name = ZINC67066917
REMARK  5 active torsions:
REMARK  status: ('A' for Active; 'I' for Inactive)
REMARK    1  A    between atoms: C_1  and  S_2
REMARK    2  A    between atoms: S_2  and  C_5
REMARK    3  A    between atoms: C_5  and  C_6
REMARK    4  A    between atoms: C_6  and  N_7
REMARK    5  A    between atoms: C_14  and  C_17
REMARK                            x       y       z     vdW  Elec       q    Type
REMARK                         _______ _______ _______ _____ _____    ______ ____
ROOT
ATOM      1  N   UNL     1       1.474  -4.491  -2.512  0.00  0.00    -0.298 N 
ATOM      2  C   UNL     1       1.907  -3.491  -3.305  0.00  0.00    +0.302 C 
ATOM      3  O   UNL     1       1.632  -2.338  -3.035  0.00  0.00    -0.253 OA
ATOM      4  N   UNL     1       2.644  -3.770  -4.399  0.00  0.00    -0.281 N 
ATOM      5  C   UNL     1       3.228  -2.693  -5.213  0.00  0.00    +0.137 C 
ATOM      6  C   UNL     1       2.862  -2.943  -6.680  0.00  0.00    +0.179 C 
ATOM      7  O   UNL     1       3.229  -4.279  -7.036  0.00  0.00    -0.369 OA
ATOM      8  C   UNL     1       2.539  -5.291  -6.300  0.00  0.00    +0.166 C 
ATOM      9  C   UNL     1       2.893  -5.161  -4.810  0.00  0.00    +0.145 C 
ATOM     10  H   UNL     1       1.631  -5.414  -2.765  0.00  0.00    +0.150 HD
ENDROOT
BRANCH   8  11
ATOM     11  C   UNL     1       2.958  -6.650  -6.799  0.00  0.00    -0.016 A 
ATOM     12  C   UNL     1       4.282  -6.892  -7.115  0.00  0.00    +0.008 A 
ATOM     13  C   UNL     1       4.667  -8.138  -7.574  0.00  0.00    +0.022 A 
ATOM     14  C   UNL     1       3.727  -9.143  -7.716  0.00  0.00    +0.059 A 
ATOM     15  C   UNL     1       2.401  -8.901  -7.399  0.00  0.00    +0.060 A 
ATOM     16  C   UNL     1       2.019  -7.655  -6.935  0.00  0.00    +0.027 A 
ATOM     17 CL   UNL     1       1.221 -10.161  -7.578  0.00  0.00    -0.082 Cl
ATOM     18 CL   UNL     1       4.210 -10.708  -8.292  0.00  0.00    -0.082 Cl
ENDBRANCH   8  11
BRANCH   1  19
ATOM     19  C   UNL     1       0.766  -4.184  -1.266  0.00  0.00    +0.128 C 
BRANCH  19  20
ATOM     20  C   UNL     1       0.387  -5.487  -0.559  0.00  0.00    +0.184 C 
BRANCH  20  22
ATOM     21  C   UNL     1      -0.845  -6.751   1.658  0.00  0.00    +0.194 C 
ATOM     22  S   UNL     1      -0.488  -5.106   0.983  0.00  0.00    -0.032 S 
ATOM     23  O   UNL     1      -1.720  -4.477   0.656  0.00  0.00    -0.175 OA
ATOM     24  O   UNL     1       0.413  -4.445   1.860  0.00  0.00    -0.175 OA
ENDBRANCH  20  22
ENDBRANCH  19  20
ENDBRANCH   1  19
TORSDOF 4
