REMARK  Name = ZINC04354839
REMARK  8 active torsions:
REMARK  status: ('A' for Active; 'I' for Inactive)
REMARK    1  A    between atoms: C_1  and  C_2
REMARK    2  A    between atoms: C_7  and  N_8
REMARK    3  A    between atoms: C_13  and  N_17
REMARK    4  A    between atoms: N_17  and  C_18
REMARK    5  A    between atoms: C_18  and  C_19
REMARK    6  A    between atoms: C_19  and  C_20
REMARK    7  A    between atoms: C_23  and  O_26
REMARK    8  A    between atoms: O_26  and  C_27
REMARK                            x       y       z     vdW  Elec       q    Type
REMARK                         _______ _______ _______ _____ _____    ______ ____
ROOT
ATOM      1  N   UNL     1       0.168   0.117   2.335  0.00  0.00    -0.214 N 
ATOM      2  C   UNL     1       0.379  -0.374   3.592  0.00  0.00    +0.168 A 
ATOM      3  C   UNL     1       0.378   0.735   4.461  0.00  0.00    +0.079 A 
ATOM      4  C   UNL     1       0.159   1.882   3.667  0.00  0.00    +0.148 A 
ATOM      5  N   UNL     1       0.043   1.509   2.424  0.00  0.00    -0.172 NA
ATOM      6  C   UNL     1       0.578   0.505   5.835  0.00  0.00    +0.133 A 
ATOM      7  N   UNL     1       0.759  -0.746   6.247  0.00  0.00    -0.220 NA
ATOM      8  C   UNL     1       0.752  -1.754   5.393  0.00  0.00    +0.225 A 
ATOM      9  N   UNL     1       0.569  -1.589   4.101  0.00  0.00    -0.216 NA
ENDROOT
BRANCH   1  16
ATOM     10  C   UNL     1      -1.978   0.629   0.538  0.00  0.00    +0.046 C 
ATOM     11  C   UNL     1      -0.937  -0.423   0.255  0.00  0.00    -0.025 A 
ATOM     12  C   UNL     1      -1.004  -1.168  -0.907  0.00  0.00    +0.007 A 
ATOM     13  C   UNL     1      -0.050  -2.133  -1.167  0.00  0.00    +0.020 A 
ATOM     14  C   UNL     1       0.977  -2.356  -0.266  0.00  0.00    +0.043 A 
ATOM     15  C   UNL     1       1.050  -1.614   0.897  0.00  0.00    +0.048 A 
ATOM     16  C   UNL     1       0.094  -0.640   1.159  0.00  0.00    +0.072 A 
ATOM     17 CL   UNL     1       2.173  -3.570  -0.597  0.00  0.00    -0.083 Cl
ENDBRANCH   1  16
BRANCH   6  18
ATOM     18  N   UNL     1       0.587   1.554   6.734  0.00  0.00    -0.328 N 
ATOM     19  H   UNL     1       0.454   2.462   6.421  0.00  0.00    +0.147 HD
BRANCH  18  20
ATOM     20  C   UNL     1       0.797   1.294   8.160  0.00  0.00    +0.107 C 
BRANCH  20  21
ATOM     21  C   UNL     1       0.761   2.616   8.930  0.00  0.00    +0.054 C 
BRANCH  21  22
ATOM     22  C   UNL     1       0.977   2.349  10.397  0.00  0.00    -0.046 A 
ATOM     23  C   UNL     1      -0.106   2.101  11.220  0.00  0.00    +0.007 A 
ATOM     24  C   UNL     1       0.089   1.856  12.566  0.00  0.00    +0.046 A 
ATOM     25  C   UNL     1       1.374   1.860  13.091  0.00  0.00    +0.120 A 
ATOM     26  C   UNL     1       2.458   2.109  12.263  0.00  0.00    +0.046 A 
ATOM     27  C   UNL     1       2.258   2.348  10.917  0.00  0.00    +0.007 A 
BRANCH  25  28
ATOM     28  O   UNL     1       1.568   1.620  14.414  0.00  0.00    -0.495 OA
ATOM     29  C   UNL     1       2.917   1.639  14.886  0.00  0.00    +0.277 C 
ENDBRANCH  25  28
ENDBRANCH  21  22
ENDBRANCH  20  21
ENDBRANCH  18  20
ENDBRANCH   6  18
TORSDOF 6
