REMARK  Name = ZINC21869849
REMARK  7 active torsions:
REMARK  status: ('A' for Active; 'I' for Inactive)
REMARK    1  A    between atoms: C_1  and  C_2
REMARK    2  A    between atoms: C_5  and  N_8
REMARK    3  A    between atoms: N_12  and  S_24
REMARK    4  A    between atoms: C_14  and  C_15
REMARK    5  A    between atoms: C_14  and  C_16
REMARK    6  A    between atoms: N_18  and  C_19
REMARK    7  A    between atoms: S_24  and  C_27
REMARK                            x       y       z     vdW  Elec       q    Type
REMARK                         _______ _______ _______ _____ _____    ______ ____
ROOT
ATOM      1  N   UNL     1       2.516   0.322   3.523  0.00  0.00    -0.255 N 
ATOM      2  C   UNL     1       1.232   0.647   3.363  0.00  0.00    +0.236 C 
ATOM      3  O   UNL     1       0.569   0.890   4.349  0.00  0.00    -0.274 OA
ATOM      4  C   UNL     1       0.568   0.728   2.015  0.00  0.00    +0.205 C 
ATOM      5  N   UNL     1       1.605   0.701   0.972  0.00  0.00    -0.170 NA
ATOM      6  C   UNL     1       2.706  -0.262   1.139  0.00  0.00    +0.145 C 
ATOM      7  C   UNL     1       3.453   0.094   2.432  0.00  0.00    +0.129 C 
ATOM      8  C   UNL     1       4.280   1.361   2.205  0.00  0.00    +0.043 C 
ENDROOT
BRANCH   1  13
ATOM      9  C   UNL     1       4.459  -0.211   8.826  0.00  0.00    +0.044 C 
ATOM     10  C   UNL     1       3.943  -0.070   7.417  0.00  0.00    -0.050 A 
ATOM     11  C   UNL     1       4.391   0.967   6.619  0.00  0.00    +0.005 A 
ATOM     12  C   UNL     1       3.920   1.100   5.328  0.00  0.00    +0.024 A 
ATOM     13  C   UNL     1       2.995   0.191   4.831  0.00  0.00    +0.037 A 
ATOM     14  C   UNL     1       2.543  -0.846   5.636  0.00  0.00    +0.024 A 
ATOM     15  C   UNL     1       3.022  -0.976   6.925  0.00  0.00    +0.005 A 
ENDBRANCH   1  13
BRANCH   7  16
ATOM     16  C   UNL     1       4.375  -1.040   2.799  0.00  0.00    +0.238 C 
ATOM     17  O   UNL     1       5.554  -0.976   2.523  0.00  0.00    -0.273 OA
ATOM     18  N   UNL     1       3.889  -2.125   3.433  0.00  0.00    -0.311 N 
ATOM     19  H   UNL     1       2.837  -2.150   3.753  0.00  0.00    +0.149 HD
BRANCH  18  20
ATOM     20  C   UNL     1       4.761  -3.273   3.695  0.00  0.00    +0.073 C 
ATOM     21  C   UNL     1       4.819  -4.187   2.454  0.00  0.00    +0.022 C 
ATOM     22  C   UNL     1       4.865  -5.621   3.041  0.00  0.00    +0.002 C 
ATOM     23  C   UNL     1       3.912  -5.523   4.258  0.00  0.00    +0.002 C 
ATOM     24  C   UNL     1       4.185  -4.122   4.842  0.00  0.00    +0.022 C 
ENDBRANCH  18  20
ENDBRANCH   7  16
BRANCH   5  25
ATOM     25  S   UNL     1       1.532   1.707  -0.341  0.00  0.00    +0.029 S 
ATOM     26  O   UNL     1       0.149   1.994  -0.501  0.00  0.00    -0.158 OA
ATOM     27  O   UNL     1       2.253   1.027  -1.360  0.00  0.00    -0.158 OA
ATOM     28  C   UNL     1       2.426   3.201   0.167  0.00  0.00    +0.215 C 
ENDBRANCH   5  25
TORSDOF 4
