REMARK  Name = ZINC13898547
REMARK  3 active torsions:
REMARK  status: ('A' for Active; 'I' for Inactive)
REMARK    1  A    between atoms: C_1  and  C_2
REMARK    2  A    between atoms: C_2  and  C_5
REMARK    3  A    between atoms: N_3  and  O_4
REMARK                            x       y       z     vdW  Elec       q    Type
REMARK                         _______ _______ _______ _____ _____    ______ ____
ROOT
ATOM      1  C   UNL     1      -0.000  -0.733  -1.277  0.00  0.00    +0.084 A 
ATOM      2  C   UNL     1      -0.015  -0.061  -2.489  0.00  0.00    +0.028 A 
ATOM      3  C   UNL     1      -0.049  -0.833  -3.681  0.00  0.00    +0.019 A 
ATOM      4  C   UNL     1       0.136  -0.223  -4.929  0.00  0.00    +0.026 A 
ATOM      5  C   UNL     1       0.142  -0.985  -6.063  0.00  0.00    +0.019 A 
ATOM      6  C   UNL     1      -0.041  -2.359  -5.991  0.00  0.00    +0.019 A 
ATOM      7  C   UNL     1      -0.244  -2.977  -4.775  0.00  0.00    +0.048 A 
ATOM      8  C   UNL     1      -0.261  -2.222  -3.610  0.00  0.00    +0.139 A 
ATOM      9  O   UNL     1      -0.502  -2.812  -2.414  0.00  0.00    -0.422 OA
ATOM     10  C   UNL     1       0.020  -2.208  -1.319  0.00  0.00    +0.346 A 
ATOM     11  O   UNL     1       0.484  -2.857  -0.401  0.00  0.00    -0.244 OA
ATOM     12 BR   UNL     1       0.402  -0.160  -7.745  0.00  0.00    -0.050 Br
ENDROOT
BRANCH   1  14
ATOM     13  C   UNL     1      -0.018   1.503   0.010  0.00  0.00    +0.070 C 
ATOM     14  C   UNL     1       0.002  -0.004   0.002  0.00  0.00    +0.091 C 
ATOM     15  N   UNL     1       0.022  -0.658   1.120  0.00  0.00    -0.092 NA
BRANCH  15  16
ATOM     16  O   UNL     1       0.024   0.044   2.350  0.00  0.00    -0.409 OA
ATOM     17  H   UNL     1       0.039  -0.529   3.129  0.00  0.00    +0.328 HD
ENDBRANCH  15  16
ENDBRANCH   1  14
TORSDOF 2
