REMARK  Name = ZINC00268919
REMARK  3 active torsions:
REMARK  status: ('A' for Active; 'I' for Inactive)
REMARK    1  A    between atoms: C_1  and  C_2
REMARK    2  A    between atoms: N_12  and  C_15
REMARK    3  A    between atoms: C_15  and  C_16
REMARK                            x       y       z     vdW  Elec       q    Type
REMARK                         _______ _______ _______ _____ _____    ______ ____
ROOT
ATOM      1  C   UNL     1       0.536   4.315  -2.540  0.00  0.00    +0.019 C 
ATOM      2  C   UNL     1       1.210   5.539  -1.918  0.00  0.00    +0.090 C 
ATOM      3  C   UNL     1       2.720   5.304  -1.847  0.00  0.00    +0.126 C 
ATOM      4  N   UNL     1       3.030   4.396  -0.741  0.00  0.00    -0.272 N 
ATOM      5  C   UNL     1       2.213   3.274  -0.543  0.00  0.00    +0.057 A 
ATOM      6  C   UNL     1       2.669   2.005  -0.861  0.00  0.00    +0.025 A 
ATOM      7  C   UNL     1       1.838   0.913  -0.689  0.00  0.00    +0.002 A 
ATOM      8  C   UNL     1       0.551   1.084  -0.214  0.00  0.00    +0.002 A 
ATOM      9  C   UNL     1       0.091   2.346   0.113  0.00  0.00    +0.025 A 
ATOM     10  C   UNL     1       0.922   3.443  -0.043  0.00  0.00    +0.058 A 
ATOM     11  N   UNL     1       0.491   4.727   0.313  0.00  0.00    -0.265 N 
ATOM     12  C   UNL     1       0.655   5.764  -0.537  0.00  0.00    +0.224 C 
ATOM     13  O   UNL     1       0.352   6.885  -0.185  0.00  0.00    -0.275 OA
ATOM     14  C   UNL     1       4.079   4.634   0.070  0.00  0.00    +0.332 C 
ATOM     15  O   UNL     1       4.778   5.608  -0.112  0.00  0.00    -0.279 OA
ENDROOT
BRANCH  11  16
ATOM     16  C   UNL     1      -0.141   4.947   1.616  0.00  0.00    +0.148 C 
BRANCH  16  17
ATOM     17  C   UNL     1       0.923   5.168   2.660  0.00  0.00    -0.030 A 
ATOM     18  C   UNL     1       1.443   4.093   3.355  0.00  0.00    +0.005 A 
ATOM     19  C   UNL     1       2.422   4.295   4.310  0.00  0.00    +0.000 A 
ATOM     20  C   UNL     1       2.875   5.574   4.575  0.00  0.00    +0.000 A 
ATOM     21  C   UNL     1       2.351   6.650   3.883  0.00  0.00    +0.000 A 
ATOM     22  C   UNL     1       1.375   6.447   2.925  0.00  0.00    +0.005 A 
ENDBRANCH  16  17
ENDBRANCH  11  16
TORSDOF 2
