REMARK  Name = ZINC04373233
REMARK  6 active torsions:
REMARK  status: ('A' for Active; 'I' for Inactive)
REMARK    1  A    between atoms: C_6  and  C_24
REMARK    2  A    between atoms: C_7  and  N_9
REMARK    3  A    between atoms: C_10  and  C_12
REMARK    4  A    between atoms: C_12  and  S_13
REMARK    5  A    between atoms: S_13  and  C_14
REMARK    6  A    between atoms: N_18  and  C_19
REMARK                            x       y       z     vdW  Elec       q    Type
REMARK                         _______ _______ _______ _____ _____    ______ ____
ROOT
ATOM      1  N   UNL     1       1.958  -3.300   3.383  0.00  0.00    -0.278 N 
ATOM      2  C   UNL     1       2.879  -3.390   4.363  0.00  0.00    +0.228 C 
ATOM      3  O   UNL     1       3.556  -2.425   4.649  0.00  0.00    -0.275 OA
ATOM      4  H   UNL     1       1.417  -4.072   3.154  0.00  0.00    +0.155 HD
ENDROOT
BRANCH   1  11
ATOM      5  C   UNL     1      -0.019   1.526   0.010  0.00  0.00    +0.005 C 
ATOM      6  C   UNL     1       1.414   2.067  -0.000  0.00  0.00    +0.005 C 
ATOM      7  C   UNL     1       2.067   1.773   1.358  0.00  0.00    +0.043 C 
ATOM      8  C   UNL     1       1.810   0.338   1.702  0.00  0.00    -0.004 A 
ATOM      9  C   UNL     1       0.907  -0.485   1.127  0.00  0.00    -0.018 A 
ATOM     10  C   UNL     1       0.893  -1.829   1.677  0.00  0.00    +0.084 A 
ATOM     11  C   UNL     1       1.783  -2.103   2.702  0.00  0.00    +0.090 A 
ATOM     12  S   UNL     1       2.603  -0.656   2.932  0.00  0.00    -0.077 S 
ATOM     13  C   UNL     1       0.002  -0.004   0.002  0.00  0.00    +0.037 C 
BRANCH  10  14
ATOM     14  C   UNL     1      -0.004  -2.829   1.181  0.00  0.00    +0.102 C 
ATOM     15  N   UNL     1      -0.716  -3.622   0.788  0.00  0.00    -0.191 NA
ENDBRANCH  10  14
ENDBRANCH   1  11
BRANCH   2  16
ATOM     16  C   UNL     1       3.069  -4.689   5.102  0.00  0.00    +0.173 C 
BRANCH  16  17
ATOM     17  S   UNL     1       4.371  -4.491   6.349  0.00  0.00    -0.075 S 
BRANCH  17  18
ATOM     18  C   UNL     1       4.471  -6.074   7.116  0.00  0.00    +0.210 A 
ATOM     19  N   UNL     1       3.752  -7.134   6.818  0.00  0.00    -0.101 NA
ATOM     20  N   UNL     1       4.077  -8.124   7.568  0.00  0.00    -0.022 NA
ATOM     21  N   UNL     1       5.010  -7.778   8.387  0.00  0.00    -0.043 NA
ATOM     22  N   UNL     1       5.307  -6.430   8.120  0.00  0.00    -0.217 N 
BRANCH  22  23
ATOM     23  C   UNL     1       6.305  -5.590   8.787  0.00  0.00    +0.112 C 
ATOM     24  C   UNL     1       7.702  -6.235   8.670  0.00  0.00    +0.027 C 
ATOM     25  C   UNL     1       8.377  -5.927  10.030  0.00  0.00    +0.002 C 
ATOM     26  C   UNL     1       7.208  -6.079  11.034  0.00  0.00    +0.002 C 
ATOM     27  C   UNL     1       5.991  -5.491  10.290  0.00  0.00    +0.027 C 
ENDBRANCH  22  23
ENDBRANCH  17  18
ENDBRANCH  16  17
ENDBRANCH   2  16
TORSDOF 6
