REMARK  Name = ZINC14744358
REMARK  9 active torsions:
REMARK  status: ('A' for Active; 'I' for Inactive)
REMARK    1  A    between atoms: C_1  and  C_2
REMARK    2  A    between atoms: C_3  and  C_8
REMARK    3  A    between atoms: N_6  and  C_7
REMARK    4  A    between atoms: C_8  and  N_68
REMARK    5  A    between atoms: N_16  and  C_24
REMARK    6  A    between atoms: N_19  and  C_20
REMARK    7  A    between atoms: C_20  and  C_21
REMARK    8  A    between atoms: C_21  and  C_22
REMARK    9  A    between atoms: C_21  and  C_23
REMARK                            x       y       z     vdW  Elec       q    Type
REMARK                         _______ _______ _______ _____ _____    ______ ____
ROOT
ATOM      1  C   UNL     1       9.001   1.558  -1.839  0.00  0.00    -0.076 C 
ATOM      2  C   UNL     1       8.028   1.591  -0.656  0.00  0.00    +0.017 C 
ATOM      3  C   UNL     1       7.085   2.779  -0.812  0.00  0.00    +0.112 C 
ATOM      4  C   UNL     1       7.877   4.077  -0.937  0.00  0.00    +0.017 C 
ATOM      5  C   UNL     1       8.855   3.963  -2.110  0.00  0.00    -0.076 C 
ATOM      6  C   UNL     1       6.130   2.858   0.356  0.00  0.00    +0.247 C 
ATOM      7  O   UNL     1       6.411   3.012   1.525  0.00  0.00    -0.273 OA
ATOM      8  N   UNL     1       4.898   2.718  -0.177  0.00  0.00    -0.220 N 
ATOM      9  C   UNL     1       4.950   2.571  -1.506  0.00  0.00    +0.312 C 
ATOM     10  O   UNL     1       3.968   2.431  -2.210  0.00  0.00    -0.252 OA
ATOM     11  N   UNL     1       6.212   2.595  -1.977  0.00  0.00    -0.271 N 
ATOM     12  N   UNL     1       9.765   2.823  -1.865  0.00  0.00    +0.383 N 
ATOM     13  H   UNL     1      10.224   2.954  -0.956  0.00  0.00    -0.081 HD
ENDROOT
BRANCH   8  14
ATOM     14  C   UNL     1       3.657   2.731   0.602  0.00  0.00    +0.094 C 
ATOM     15  C   UNL     1       2.803   1.483   0.294  0.00  0.00    +0.058 C 
ATOM     16  C   UNL     1       1.368   1.960   0.358  0.00  0.00    -0.042 A 
ATOM     17  C   UNL     1       0.188   1.244   0.480  0.00  0.00    +0.004 A 
ATOM     18  C   UNL     1      -1.025   1.904   0.513  0.00  0.00    +0.000 A 
ATOM     19  C   UNL     1      -1.062   3.283   0.434  0.00  0.00    +0.000 A 
ATOM     20  C   UNL     1       0.112   3.999   0.313  0.00  0.00    +0.004 A 
ATOM     21  C   UNL     1       1.330   3.339   0.275  0.00  0.00    -0.042 A 
ATOM     22  C   UNL     1       2.736   3.883   0.148  0.00  0.00    +0.058 C 
ENDBRANCH   8  14
BRANCH  12  23
ATOM     23  C   UNL     1      10.798   2.767  -2.920  0.00  0.00    -0.040 C 
BRANCH  23  26
ATOM     24  C   UNL     1      13.123   3.101  -0.855  0.00  0.00    +0.065 C 
ATOM     25  C   UNL     1      12.703   4.112  -1.889  0.00  0.00    +0.037 A 
ATOM     26  C   UNL     1      11.697   3.969  -2.783  0.00  0.00    -0.024 A 
ATOM     27  C   UNL     1      11.643   5.130  -3.561  0.00  0.00    +0.136 A 
ATOM     28  N   UNL     1      12.577   5.945  -3.143  0.00  0.00    -0.179 NA
ATOM     29  N   UNL     1      13.262   5.324  -2.090  0.00  0.00    -0.271 N 
ATOM     30  C   UNL     1      14.387   5.889  -1.341  0.00  0.00    +0.172 C 
ENDBRANCH  23  26
ENDBRANCH  12  23
BRANCH  11  31
ATOM     31  C   UNL     1       6.629   2.463  -3.375  0.00  0.00    +0.113 C 
BRANCH  31  32
ATOM     32  C   UNL     1       5.990   3.578  -4.206  0.00  0.00    +0.000 C 
ATOM     33  C   UNL     1       6.528   4.932  -3.742  0.00  0.00    +0.009 C 
ATOM     34  C   UNL     1       6.330   3.372  -5.683  0.00  0.00    +0.009 C 
ENDBRANCH  31  32
ENDBRANCH  11  31
TORSDOF 5
