REMARK  Name = ZINC25505626
REMARK  8 active torsions:
REMARK  status: ('A' for Active; 'I' for Inactive)
REMARK    1  A    between atoms: C_1  and  C_2
REMARK    2  A    between atoms: C_2  and  O_3
REMARK    3  A    between atoms: O_3  and  C_4
REMARK    4  A    between atoms: C_12  and  C_14
REMARK    5  A    between atoms: C_14  and  C_16
REMARK    6  A    between atoms: C_14  and  N_17
REMARK    7  A    between atoms: N_20  and  C_23
REMARK    8  A    between atoms: C_26  and  O_29
REMARK                            x       y       z     vdW  Elec       q    Type
REMARK                         _______ _______ _______ _____ _____    ______ ____
ROOT
ATOM      1  C   UNL     1       0.050   1.640   0.057  0.00  0.00    +0.016 C 
ATOM      2  C   UNL     1      -0.680   2.316   1.220  0.00  0.00    -0.004 C 
ENDROOT
BRANCH   1  11
ATOM      3  C   UNL     1       2.594  -2.365   3.962  0.00  0.00    +0.403 C 
ATOM      4  O   UNL     1       2.416  -3.556   4.126  0.00  0.00    -0.226 OA
ATOM      5  N   UNL     1       1.721  -1.649   3.227  0.00  0.00    -0.264 N 
ATOM      6  C   UNL     1       0.550  -2.294   2.617  0.00  0.00    +0.130 C 
ATOM      7  C   UNL     1       0.565  -2.012   1.109  0.00  0.00    +0.127 C 
ATOM      8  N   UNL     1       0.766  -0.571   0.903  0.00  0.00    -0.300 N 
ATOM      9  C   UNL     1       1.940   0.073   1.508  0.00  0.00    +0.127 C 
ATOM     10  C   UNL     1       1.923  -0.207   3.020  0.00  0.00    +0.130 C 
ATOM     11  C   UNL     1      -0.107   0.145   0.168  0.00  0.00    +0.202 C 
ATOM     12  O   UNL     1      -1.018  -0.413  -0.406  0.00  0.00    -0.277 OA
BRANCH   3  13
ATOM     13  O   UNL     1       3.663  -1.762   4.515  0.00  0.00    -0.451 OA
BRANCH  13  15
ATOM     14  C   UNL     1       5.707  -1.740   5.839  0.00  0.00    +0.048 C 
ATOM     15  C   UNL     1       4.561  -2.595   5.295  0.00  0.00    +0.230 C 
ENDBRANCH  13  15
ENDBRANCH   3  13
ENDBRANCH   1  11
BRANCH   1  16
ATOM     16  N   UNL     1      -0.523   2.100  -1.215  0.00  0.00    +0.389 N 
ATOM     17  C   UNL     1       0.127   1.440  -2.355  0.00  0.00    -0.059 C 
ATOM     18  C   UNL     1      -0.550   1.885  -3.653  0.00  0.00    +0.086 C 
ATOM     19  N   UNL     1      -0.459   3.347  -3.773  0.00  0.00    -0.333 N 
ATOM     20  C   UNL     1      -1.110   4.007  -2.633  0.00  0.00    +0.086 C 
ATOM     21  C   UNL     1      -0.433   3.562  -1.335  0.00  0.00    -0.059 C 
ATOM     22  H   UNL     1      -1.588   1.824  -1.224  0.00  0.00    -0.081 HD
BRANCH  19  23
ATOM     23  C   UNL     1      -1.005   3.785  -4.985  0.00  0.00    +0.030 A 
ATOM     24  C   UNL     1      -2.030   4.722  -4.987  0.00  0.00    +0.026 A 
ATOM     25  C   UNL     1      -2.564   5.158  -6.184  0.00  0.00    +0.047 A 
ATOM     26  C   UNL     1      -2.085   4.652  -7.383  0.00  0.00    +0.117 A 
ATOM     27  C   UNL     1      -1.065   3.712  -7.382  0.00  0.00    +0.047 A 
ATOM     28  C   UNL     1      -0.526   3.279  -6.186  0.00  0.00    +0.026 A 
BRANCH  26  29
ATOM     29  O   UNL     1      -2.616   5.077  -8.561  0.00  0.00    -0.507 OA
ATOM     30  H   UNL     1      -2.236   4.676  -9.512  0.00  0.00    +0.292 HD
ENDBRANCH  26  29
ENDBRANCH  19  23
ENDBRANCH   1  16
TORSDOF 6
