REMARK  Name = ZINC27519123
REMARK  9 active torsions:
REMARK  status: ('A' for Active; 'I' for Inactive)
REMARK    1  A    between atoms: C_1  and  C_2
REMARK    2  A    between atoms: C_7  and  C_35
REMARK    3  A    between atoms: C_8  and  C_9
REMARK    4  A    between atoms: C_14  and  C_17
REMARK    5  A    between atoms: C_14  and  N_18
REMARK    6  A    between atoms: C_21  and  C_24
REMARK    7  A    between atoms: C_24  and  C_28
REMARK    8  A    between atoms: N_25  and  O_26
REMARK    9  A    between atoms: O_26  and  C_27
REMARK                            x       y       z     vdW  Elec       q    Type
REMARK                         _______ _______ _______ _____ _____    ______ ____
ROOT
ATOM      1  C   UNL     1       0.068   0.017  -0.063  0.00  0.00    +0.249 C 
ATOM      2  O   UNL     1       0.108  -0.602   0.982  0.00  0.00    -0.270 OA
ATOM      3  N   UNL     1       0.056  -0.644  -1.238  0.00  0.00    -0.298 N 
ATOM      4  C   UNL     1       0.002   0.090  -2.510  0.00  0.00    +0.107 C 
ATOM      5  C   UNL     1      -1.169  -0.437  -3.338  0.00  0.00    +0.007 C 
ATOM      6  C   UNL     1      -1.039  -1.954  -3.493  0.00  0.00    -0.066 C 
ATOM      7  C   UNL     1      -1.087  -2.615  -2.114  0.00  0.00    +0.007 C 
ATOM      8  C   UNL     1       0.090  -2.113  -1.271  0.00  0.00    +0.107 C 
ATOM      9  C   UNL     1       0.291  -2.285  -4.172  0.00  0.00    -0.010 C 
ENDROOT
BRANCH   1  17
ATOM     10  C   UNL     1       2.560   1.545  -0.106  0.00  0.00    +0.044 C 
ATOM     11  C   UNL     1       1.221   2.235  -0.067  0.00  0.00    -0.035 A 
ATOM     12  C   UNL     1       1.134   3.616  -0.051  0.00  0.00    +0.025 A 
ATOM     13  C   UNL     1      -0.112   4.216  -0.015  0.00  0.00    +0.134 A 
ATOM     14  N   UNL     1      -1.216   3.493   0.004  0.00  0.00    -0.143 N 
ATOM     15  O   UNL     1      -2.469   4.151   0.040  0.00  0.00    -0.164 OA
ATOM     16  C   UNL     1      -1.185   2.175  -0.016  0.00  0.00    +0.071 A 
ATOM     17  C   UNL     1       0.033   1.495  -0.047  0.00  0.00    +0.062 A 
ATOM     18  C   UNL     1      -2.475   1.397   0.001  0.00  0.00    +0.068 C 
ENDBRANCH   1  17
BRANCH   6  19
ATOM     19  N   UNL     1      -2.147  -2.458  -4.315  0.00  0.00    +0.383 N 
ATOM     20  C   UNL     1      -3.438  -2.247  -3.647  0.00  0.00    -0.077 C 
ATOM     21  C   UNL     1      -4.550  -2.912  -4.460  0.00  0.00    -0.009 C 
ATOM     22  C   UNL     1      -4.578  -2.307  -5.867  0.00  0.00    +0.038 C 
ATOM     23  C   UNL     1      -3.208  -2.497  -6.523  0.00  0.00    -0.009 C 
ATOM     24  C   UNL     1      -2.134  -1.845  -5.649  0.00  0.00    -0.077 C 
ATOM     25  H   UNL     1      -2.009  -3.542  -4.444  0.00  0.00    -0.081 HD
BRANCH  22  26
ATOM     26  C   UNL     1      -5.632  -2.999  -6.692  0.00  0.00    +0.090 C 
ATOM     27  N   UNL     1      -6.655  -2.335  -7.124  0.00  0.00    -0.089 NA
BRANCH  26  28
ATOM     28  C   UNL     1      -5.498  -4.435  -7.007  0.00  0.00    -0.000 A 
ATOM     29  C   UNL     1      -4.457  -5.180  -6.451  0.00  0.00    +0.011 A 
ATOM     30  C   UNL     1      -4.339  -6.522  -6.745  0.00  0.00    +0.020 A 
ATOM     31  C   UNL     1      -5.246  -7.129  -7.598  0.00  0.00    +0.041 A 
ATOM     32  C   UNL     1      -6.278  -6.394  -8.157  0.00  0.00    +0.020 A 
ATOM     33  C   UNL     1      -6.409  -5.052  -7.866  0.00  0.00    +0.011 A 
ATOM     34 CL   UNL     1      -5.088  -8.817  -7.969  0.00  0.00    -0.084 Cl
ENDBRANCH  26  28
BRANCH  27  35
ATOM     35  O   UNL     1      -6.731  -0.936  -6.913  0.00  0.00    -0.397 OA
ATOM     36  C   UNL     1      -7.913  -0.333  -7.443  0.00  0.00    +0.313 C 
ENDBRANCH  27  35
ENDBRANCH  22  26
ENDBRANCH   6  19
TORSDOF 5
