REMARK  Name = ZINC37296407
REMARK  4 active torsions:
REMARK  status: ('A' for Active; 'I' for Inactive)
REMARK    1  A    between atoms: C_3  and  S_8
REMARK    2  A    between atoms: C_6  and  O_7
REMARK    3  A    between atoms: S_8  and  N_11
REMARK    4  A    between atoms: N_11  and  C_12
REMARK                            x       y       z     vdW  Elec       q    Type
REMARK                         _______ _______ _______ _____ _____    ______ ____
ROOT
ATOM      1  N   UNL     1       4.310   2.695   1.533  0.00  0.00    -0.184 NA
ATOM      2  H   UNL     1       4.288   3.618   1.831  0.00  0.00    +0.149 HD
ENDROOT
BRANCH   1   3
ATOM      3  C   UNL     1       4.748   1.641   2.451  0.00  0.00    +0.041 C 
ATOM      4  C   UNL     1       6.065   1.044   1.950  0.00  0.00    +0.027 C 
ATOM      5  C   UNL     1       6.523  -0.058   2.909  0.00  0.00    -0.009 C 
ATOM      6  C   UNL     1       6.729   0.534   4.304  0.00  0.00    +0.007 C 
ATOM      7  C   UNL     1       5.412   1.130   4.805  0.00  0.00    -0.009 C 
ATOM      8  C   UNL     1       4.954   2.232   3.847  0.00  0.00    +0.027 C 
ATOM      9  C   UNL     1       4.346   0.034   4.867  0.00  0.00    +0.007 C 
ATOM     10  C   UNL     1       4.141  -0.558   3.471  0.00  0.00    -0.009 C 
ATOM     11  C   UNL     1       5.458  -1.154   2.971  0.00  0.00    +0.007 C 
ATOM     12  C   UNL     1       3.683   0.544   2.513  0.00  0.00    +0.027 C 
ENDBRANCH   1   3
BRANCH   1  13
ATOM     13  S   UNL     1       3.851   2.312  -0.011  0.00  0.00    +0.059 S 
ATOM     14  O   UNL     1       4.832   1.415  -0.515  0.00  0.00    -0.153 OA
ATOM     15  O   UNL     1       3.536   3.537  -0.657  0.00  0.00    -0.153 OA
BRANCH  13  18
ATOM     16  C   UNL     1      -0.016   1.344   0.482  0.00  0.00    +0.047 A 
ATOM     17  C   UNL     1       1.164   2.056   0.392  0.00  0.00    +0.032 A 
ATOM     18  C   UNL     1       2.347   1.401   0.103  0.00  0.00    +0.105 A 
ATOM     19  C   UNL     1       2.352   0.033  -0.097  0.00  0.00    +0.032 A 
ATOM     20  C   UNL     1       1.174  -0.683  -0.009  0.00  0.00    +0.047 A 
ATOM     21  C   UNL     1      -0.014  -0.029   0.281  0.00  0.00    +0.117 A 
BRANCH  21  22
ATOM     22  O   UNL     1      -1.174  -0.731   0.369  0.00  0.00    -0.507 OA
ATOM     23  H   UNL     1      -1.652  -0.809  -0.468  0.00  0.00    +0.292 HD
ENDBRANCH  21  22
ENDBRANCH  13  18
ENDBRANCH   1  13
TORSDOF 4
