REMARK  Name = ZINC66253104
REMARK  4 active torsions:
REMARK  status: ('A' for Active; 'I' for Inactive)
REMARK    1  A    between atoms: C_1  and  C_2
REMARK    2  A    between atoms: C_2  and  C_3
REMARK    3  A    between atoms: N_12  and  S_13
REMARK    4  A    between atoms: S_13  and  C_16
REMARK                            x       y       z     vdW  Elec       q    Type
REMARK                         _______ _______ _______ _____ _____    ______ ____
ROOT
ATOM      1  C   UNL     1       0.718  -0.497  -1.257  0.00  0.00    -0.006 C 
ATOM      2  C   UNL     1       0.843  -2.024  -1.213  0.00  0.00    +0.010 C 
ATOM      3  C   UNL     1       1.757  -2.502  -2.341  0.00  0.00    +0.054 C 
ATOM      4  C   UNL     1       1.257  -1.926  -3.664  0.00  0.00    +0.028 A 
ATOM      5  C   UNL     1       0.439  -0.866  -3.673  0.00  0.00    +0.013 A 
ATOM      6  S   UNL     1       0.138  -0.567  -5.395  0.00  0.00    -0.053 S 
ATOM      7  C   UNL     1       1.139  -1.898  -6.042  0.00  0.00    +0.192 A 
ATOM      8  N   UNL     1       1.619  -2.459  -4.883  0.00  0.00    -0.336 N 
ATOM      9  N   UNL     1       1.357  -2.247  -7.286  0.00  0.00    -0.103 NA
ATOM     10  C   UNL     1      -0.094  -0.105  -2.500  0.00  0.00    +0.047 C 
ATOM     11  H   UNL     1       2.211  -3.227  -4.922  0.00  0.00    +0.168 HD
ENDROOT
BRANCH   9  12
ATOM     12  S   UNL     1       2.338  -3.536  -7.625  0.00  0.00    +0.103 S 
ATOM     13  O   UNL     1       3.647  -3.171  -7.210  0.00  0.00    -0.146 OA
ATOM     14  O   UNL     1       1.677  -4.692  -7.129  0.00  0.00    -0.146 OA
BRANCH  12  15
ATOM     15  C   UNL     1       2.394  -3.702  -9.379  0.00  0.00    +0.133 A 
ATOM     16  C   UNL     1       1.466  -4.493 -10.038  0.00  0.00    +0.070 A 
ATOM     17  C   UNL     1       1.549  -4.594 -11.421  0.00  0.00    +0.143 A 
ATOM     18  C   UNL     1       2.547  -3.905 -12.088  0.00  0.00    +0.149 A 
ATOM     19  N   UNL     1       3.411  -3.162 -11.425  0.00  0.00    -0.258 NA
ATOM     20  C   UNL     1       3.359  -3.039 -10.113  0.00  0.00    +0.140 A 
ATOM     21  F   UNL     1       0.666  -5.355 -12.105  0.00  0.00    -0.204 F 
ENDBRANCH  12  15
ENDBRANCH   9  12
BRANCH   1  23
ATOM     22  C   UNL     1      -0.019   1.526   0.010  0.00  0.00    +0.004 C 
ATOM     23  C   UNL     1       0.002  -0.004   0.002  0.00  0.00    +0.000 C 
ENDBRANCH   1  23
TORSDOF 3
