REMARK  Name = ZINC18063542
REMARK  10 active torsions:
REMARK  status: ('A' for Active; 'I' for Inactive)
REMARK    1  A    between atoms: C_1  and  C_2
REMARK    2  A    between atoms: C_8  and  N_9
REMARK    3  A    between atoms: C_8  and  N_63
REMARK    4  A    between atoms: C_16  and  C_19
REMARK    5  A    between atoms: C_16  and  O_31
REMARK    6  A    between atoms: C_19  and  C_20
REMARK    7  A    between atoms: C_20  and  C_22
REMARK    8  A    between atoms: C_25  and  C_28
REMARK    9  A    between atoms: C_28  and  C_29
REMARK   10  A    between atoms: C_28  and  C_30
REMARK                            x       y       z     vdW  Elec       q    Type
REMARK                         _______ _______ _______ _____ _____    ______ ____
ROOT
ATOM      1  N   UNL     1       0.468  -2.219  -0.722  0.00  0.00    -0.285 N 
ATOM      2  C   UNL     1       0.482  -0.840  -0.929  0.00  0.00    +0.041 A 
ATOM      3  C   UNL     1       1.536   0.072  -0.928  0.00  0.00    +0.024 A 
ATOM      4  C   UNL     1       1.296   1.409  -1.163  0.00  0.00    +0.002 A 
ATOM      5  C   UNL     1       0.009   1.857  -1.401  0.00  0.00    +0.000 A 
ATOM      6  C   UNL     1      -1.043   0.958  -1.405  0.00  0.00    +0.009 A 
ATOM      7  C   UNL     1      -0.806  -0.378  -1.171  0.00  0.00    +0.014 A 
ATOM      8  C   UNL     1      -1.710  -1.587  -1.108  0.00  0.00    +0.175 C 
ATOM      9  C   UNL     1      -0.770  -2.735  -0.808  0.00  0.00    +0.255 C 
ATOM     10  O   UNL     1      -1.076  -3.900  -0.672  0.00  0.00    -0.272 OA
ENDROOT
BRANCH   8  11
ATOM     11  O   UNL     1      -2.670  -1.439  -0.060  0.00  0.00    -0.374 OA
ATOM     12  H   UNL     1      -3.277  -2.188   0.026  0.00  0.00    +0.211 HD
ENDBRANCH   8  11
BRANCH   1  13
ATOM     13  C   UNL     1       1.666  -3.015  -0.442  0.00  0.00    +0.039 C 
BRANCH  13  20
ATOM     14  C   UNL     1       2.018  -5.774  -0.864  0.00  0.00    -0.013 C 
ATOM     15  C   UNL     1       2.957  -4.758  -1.516  0.00  0.00    -0.070 C 
ATOM     16  C   UNL     1       3.422  -5.292  -2.873  0.00  0.00    -0.016 C 
ATOM     17  C   UNL     1       4.345  -4.263  -3.531  0.00  0.00    -0.003 C 
ATOM     18  C   UNL     1       3.597  -2.934  -3.673  0.00  0.00    -0.019 C 
ATOM     19  C   UNL     1       3.127  -2.469  -2.293  0.00  0.00    -0.076 C 
ATOM     20  N   UNL     1       2.224  -3.492  -1.724  0.00  0.00    +0.392 N 
ATOM     21  H   UNL     1       1.453  -3.658  -2.382  0.00  0.00    -0.079 HD
ENDBRANCH  13  20
ENDBRANCH   1  13
BRANCH   8  22
ATOM     22  C   UNL     1      -2.410  -1.804  -2.451  0.00  0.00    +0.129 C 
BRANCH  22  23
ATOM     23  C   UNL     1      -3.305  -3.013  -2.362  0.00  0.00    +0.167 C 
ATOM     24  O   UNL     1      -3.375  -3.640  -1.326  0.00  0.00    -0.292 OA
BRANCH  23  25
ATOM     25  C   UNL     1      -4.092  -3.434  -3.532  0.00  0.00    +0.018 A 
ATOM     26  C   UNL     1      -4.018  -2.710  -4.726  0.00  0.00    +0.011 A 
ATOM     27  C   UNL     1      -4.755  -3.114  -5.819  0.00  0.00    +0.004 A 
ATOM     28  C   UNL     1      -5.576  -4.225  -5.733  0.00  0.00    -0.045 A 
ATOM     29  C   UNL     1      -5.659  -4.943  -4.553  0.00  0.00    +0.004 A 
ATOM     30  C   UNL     1      -4.923  -4.556  -3.453  0.00  0.00    +0.011 A 
BRANCH  28  31
ATOM     31  C   UNL     1      -6.383  -4.655  -6.931  0.00  0.00    +0.013 C 
ATOM     32  C   UNL     1      -7.329  -3.524  -7.341  0.00  0.00    +0.012 C 
ATOM     33  C   UNL     1      -5.440  -4.977  -8.092  0.00  0.00    +0.012 C 
ENDBRANCH  28  31
ENDBRANCH  23  25
ENDBRANCH  22  23
ENDBRANCH   8  22
TORSDOF 7
