REMARK  Name = ZINC63827804
REMARK  9 active torsions:
REMARK  status: ('A' for Active; 'I' for Inactive)
REMARK    1  A    between atoms: C_1  and  C_2
REMARK    2  A    between atoms: C_5  and  C_12
REMARK    3  A    between atoms: C_6  and  C_11
REMARK    4  A    between atoms: N_7  and  C_8
REMARK    5  A    between atoms: C_8  and  C_9
REMARK    6  A    between atoms: C_12  and  C_14
REMARK    7  A    between atoms: C_14  and  S_15
REMARK    8  A    between atoms: S_15  and  C_16
REMARK    9  A    between atoms: C_19  and  C_21
REMARK                            x       y       z     vdW  Elec       q    Type
REMARK                         _______ _______ _______ _____ _____    ______ ____
ROOT
ATOM      1  C   UNL     1       3.401  -2.655  -5.649  0.00  0.00    +0.278 A 
ATOM      2  N   UNL     1       2.338  -2.044  -6.151  0.00  0.00    -0.101 NA
ATOM      3  N   UNL     1       2.342  -2.164  -7.432  0.00  0.00    -0.107 NA
ATOM      4  C   UNL     1       3.408  -2.856  -7.802  0.00  0.00    +0.248 A 
ATOM      5  O   UNL     1       4.095  -3.172  -6.678  0.00  0.00    -0.411 OA
ENDROOT
BRANCH   4   6
ATOM      6  C   UNL     1       3.763  -3.196  -9.116  0.00  0.00    +0.044 C 
ATOM      7  C   UNL     1       3.076  -2.871 -10.286  0.00  0.00    +0.008 A 
ATOM      8  C   UNL     1       1.887  -2.149 -10.524  0.00  0.00    +0.010 A 
ATOM      9  C   UNL     1       1.442  -1.985 -11.796  0.00  0.00    +0.001 A 
ATOM     10  C   UNL     1       2.135  -2.515 -12.887  0.00  0.00    +0.002 A 
ATOM     11  C   UNL     1       3.283  -3.219 -12.732  0.00  0.00    +0.026 A 
ATOM     12  C   UNL     1       3.810  -3.432 -11.432  0.00  0.00    +0.043 A 
ATOM     13  N   UNL     1       4.888  -4.070 -11.022  0.00  0.00    -0.380 N 
ATOM     14  C   UNL     1       4.974  -3.986  -9.560  0.00  0.00    +0.154 C 
ATOM     15  H   UNL     1       5.527  -4.520 -11.596  0.00  0.00    +0.160 HD
ENDBRANCH   4   6
BRANCH   1  16
ATOM     16  S   UNL     1       3.830  -2.764  -3.944  0.00  0.00    -0.058 S 
BRANCH  16  17
ATOM     17  C   UNL     1       2.496  -1.873  -3.098  0.00  0.00    +0.158 C 
BRANCH  17  18
ATOM     18  C   UNL     1       2.744  -1.891  -1.611  0.00  0.00    +0.171 C 
ATOM     19  O   UNL     1       3.726  -2.451  -1.166  0.00  0.00    -0.291 OA
BRANCH  18  23
ATOM     20  C   UNL     1       0.031   1.529   0.307  0.00  0.00    +0.028 C 
ATOM     21  C   UNL     1       0.022   0.004   0.184  0.00  0.00    +0.075 C 
ATOM     22  C   UNL     1       0.645  -0.432  -1.156  0.00  0.00    +0.062 C 
ATOM     23  C   UNL     1       1.841  -1.261  -0.742  0.00  0.00    +0.014 C 
ATOM     24  C   UNL     1       1.891  -1.292   0.605  0.00  0.00    +0.010 C 
ATOM     25  N   UNL     1       0.892  -0.598   1.204  0.00  0.00    -0.326 N 
ATOM     26  C   UNL     1       2.957  -2.029   1.374  0.00  0.00    +0.061 C 
BRANCH  25  27
ATOM     27  C   UNL     1       0.706  -0.466   2.651  0.00  0.00    +0.131 C 
BRANCH  27  28
ATOM     28  C   UNL     1      -0.169  -1.587   3.150  0.00  0.00    -0.016 C 
ATOM     29  C   UNL     1       0.251  -2.365   4.117  0.00  0.00    +0.005 C 
ENDBRANCH  27  28
ENDBRANCH  25  27
ENDBRANCH  18  23
ENDBRANCH  17  18
ENDBRANCH  16  17
ENDBRANCH   1  16
TORSDOF 7
