REMARK  Name = ZINC67538503
REMARK  6 active torsions:
REMARK  status: ('A' for Active; 'I' for Inactive)
REMARK    1  A    between atoms: C_1  and  C_2
REMARK    2  A    between atoms: C_2  and  C_4
REMARK    3  A    between atoms: C_2  and  N_11
REMARK    4  A    between atoms: C_8  and  O_10
REMARK    5  A    between atoms: N_11  and  C_12
REMARK    6  A    between atoms: N_15  and  C_16
REMARK                            x       y       z     vdW  Elec       q    Type
REMARK                         _______ _______ _______ _____ _____    ______ ____
ROOT
ATOM      1  N   UNL     1       0.858  -0.380   1.115  0.00  0.00    -0.282 N 
ATOM      2  C   UNL     1       0.379  -0.205   2.488  0.00  0.00    +0.134 C 
ATOM      3  C   UNL     1       2.104  -0.841   0.889  0.00  0.00    +0.307 C 
ATOM      4  O   UNL     1       2.501  -0.986  -0.251  0.00  0.00    -0.252 OA
ATOM      5  N   UNL     1       2.910  -1.141   1.926  0.00  0.00    -0.268 N 
ATOM      6  H   UNL     1       2.620  -0.959   2.834  0.00  0.00    +0.156 HD
ENDROOT
BRANCH   5   7
ATOM      7  C   UNL     1       4.167  -1.717   1.694  0.00  0.00    +0.057 A 
ATOM      8  C   UNL     1       4.891  -1.370   0.562  0.00  0.00    +0.074 A 
ATOM      9  C   UNL     1       6.134  -1.939   0.332  0.00  0.00    +0.164 A 
ATOM     10  C   UNL     1       6.655  -2.855   1.238  0.00  0.00    +0.164 A 
ATOM     11  C   UNL     1       5.929  -3.201   2.368  0.00  0.00    +0.071 A 
ATOM     12  C   UNL     1       4.691  -2.630   2.600  0.00  0.00    +0.066 A 
ATOM     13 CL   UNL     1       3.789  -3.060   4.019  0.00  0.00    -0.081 Cl
ATOM     14  O   UNL     1       7.878  -3.418   1.034  0.00  0.00    -0.485 OA
ATOM     15  C   UNL     1       8.413  -3.332  -0.292  0.00  0.00    +0.270 C 
ATOM     16  C   UNL     1       8.229  -1.893  -0.791  0.00  0.00    +0.270 C 
ATOM     17  O   UNL     1       6.830  -1.591  -0.785  0.00  0.00    -0.485 OA
ENDBRANCH   5   7
BRANCH   1  19
ATOM     18  C   UNL     1      -0.525   1.383   0.134  0.00  0.00    +0.033 C 
ATOM     19  C   UNL     1      -0.018  -0.053  -0.013  0.00  0.00    +0.104 C 
BRANCH  19  20
ATOM     20  C   UNL     1      -1.190  -1.001  -0.030  0.00  0.00    -0.024 A 
ATOM     21  C   UNL     1      -1.431  -1.781  -1.146  0.00  0.00    +0.006 A 
ATOM     22  C   UNL     1      -2.505  -2.651  -1.165  0.00  0.00    +0.004 A 
ATOM     23  C   UNL     1      -3.341  -2.743  -0.068  0.00  0.00    +0.045 A 
ATOM     24  C   UNL     1      -3.100  -1.961   1.052  0.00  0.00    +0.117 A 
ATOM     25  C   UNL     1      -2.018  -1.093   1.071  0.00  0.00    +0.050 A 
BRANCH  24  26
ATOM     26  O   UNL     1      -3.921  -2.050   2.132  0.00  0.00    -0.507 OA
ATOM     27  H   UNL     1      -3.647  -2.714   2.780  0.00  0.00    +0.292 HD
ENDBRANCH  24  26
ENDBRANCH  19  20
ENDBRANCH   1  19
TORSDOF 4
