REMARK  Name = ZINC11812696
REMARK  8 active torsions:
REMARK  status: ('A' for Active; 'I' for Inactive)
REMARK    1  A    between atoms: C_4  and  C_7
REMARK    2  A    between atoms: C_7  and  C_8
REMARK    3  A    between atoms: C_8  and  C_9
REMARK    4  A    between atoms: C_9  and  N_55
REMARK    5  A    between atoms: C_11  and  N_27
REMARK    6  A    between atoms: C_14  and  C_16
REMARK    7  A    between atoms: N_18  and  C_19
REMARK    8  A    between atoms: C_19  and  C_20
REMARK                            x       y       z     vdW  Elec       q    Type
REMARK                         _______ _______ _______ _____ _____    ______ ____
ROOT
ATOM      1  C   UNL     1      -0.110  -4.547  -3.471  0.00  0.00    -0.051 C 
ATOM      2  C   UNL     1      -0.119  -5.542  -4.651  0.00  0.00    +0.093 C 
ATOM      3  C   UNL     1       0.938  -6.606  -4.286  0.00  0.00    +0.019 C 
ATOM      4  C   UNL     1       1.495  -6.163  -2.916  0.00  0.00    +0.021 C 
ATOM      5  N   UNL     1       1.220  -4.729  -2.880  0.00  0.00    +0.389 N 
ATOM      6  H   UNL     1       1.923  -4.223  -3.433  0.00  0.00    -0.081 HD
ENDROOT
BRANCH   2   7
ATOM      7  N   UNL     1      -1.439  -6.162  -4.785  0.00  0.00    -0.231 N 
ATOM      8  C   UNL     1      -2.310  -6.411  -3.789  0.00  0.00    +0.245 A 
ATOM      9  N   UNL     1      -3.361  -6.969  -4.339  0.00  0.00    -0.117 NA
ATOM     10  N   UNL     1      -3.147  -7.058  -5.606  0.00  0.00    -0.023 NA
ATOM     11  N   UNL     1      -1.989  -6.566  -5.880  0.00  0.00    -0.044 NA
ENDBRANCH   2   7
BRANCH   4  12
ATOM     12  C   UNL     1       2.975  -6.437  -2.838  0.00  0.00    +0.200 C 
ATOM     13  O   UNL     1       3.758  -5.516  -2.744  0.00  0.00    -0.278 OA
ATOM     14  N   UNL     1       3.429  -7.706  -2.873  0.00  0.00    -0.312 N 
ATOM     15  H   UNL     1       2.802  -8.443  -2.948  0.00  0.00    +0.149 HD
BRANCH  14  16
ATOM     16  C   UNL     1       4.867  -7.972  -2.796  0.00  0.00    +0.141 C 
BRANCH  16  17
ATOM     17  C   UNL     1       5.107  -9.459  -2.855  0.00  0.00    -0.012 A 
ATOM     18  C   UNL     1       5.354 -10.165  -1.693  0.00  0.00    +0.006 A 
ATOM     19  C   UNL     1       5.570 -11.530  -1.746  0.00  0.00    +0.000 A 
ATOM     20  C   UNL     1       5.548 -12.187  -2.963  0.00  0.00    +0.001 A 
ATOM     21  C   UNL     1       5.305 -11.480  -4.125  0.00  0.00    +0.020 A 
ATOM     22  C   UNL     1       5.085 -10.116  -4.072  0.00  0.00    +0.046 A 
ATOM     23 CL   UNL     1       4.781  -9.227  -5.533  0.00  0.00    -0.083 Cl
ENDBRANCH  16  17
ENDBRANCH  14  16
ENDBRANCH   4  12
BRANCH   5  24
ATOM     24  C   UNL     1       1.242  -4.219  -1.473  0.00  0.00    -0.077 C 
BRANCH  24  25
ATOM     25  C   UNL     1       1.221  -2.689  -1.465  0.00  0.00    -0.014 C 
BRANCH  25  26
ATOM     26  C   UNL     1       1.229  -2.186  -0.021  0.00  0.00    +0.033 C 
BRANCH  26  30
ATOM     27  C   UNL     1       1.171   2.086   0.002  0.00  0.00    +0.000 A 
ATOM     28  C   UNL     1      -0.017   1.378   0.010  0.00  0.00    +0.000 A 
ATOM     29  C   UNL     1       0.002  -0.004   0.002  0.00  0.00    +0.003 A 
ATOM     30  C   UNL     1       1.208  -0.679  -0.013  0.00  0.00    -0.047 A 
ATOM     31  C   UNL     1       2.396   0.029  -0.021  0.00  0.00    +0.003 A 
ATOM     32  C   UNL     1       2.377   1.411  -0.015  0.00  0.00    +0.000 A 
ENDBRANCH  26  30
ENDBRANCH  25  26
ENDBRANCH  24  25
ENDBRANCH   5  24
TORSDOF 8
