REMARK  Name = ZINC37523493
REMARK  5 active torsions:
REMARK  status: ('A' for Active; 'I' for Inactive)
REMARK    1  A    between atoms: C_1  and  C_2
REMARK    2  A    between atoms: C_5  and  S_8
REMARK    3  A    between atoms: S_8  and  N_11
REMARK    4  A    between atoms: N_14  and  C_20
REMARK    5  A    between atoms: C_17  and  C_19
REMARK                            x       y       z     vdW  Elec       q    Type
REMARK                         _______ _______ _______ _____ _____    ______ ____
ROOT
ATOM      1  N   UNL     1       1.651  -4.999  -0.034  0.00  0.00    -0.163 NA
ATOM      2  C   UNL     1       2.381  -5.204  -1.297  0.00  0.00    +0.129 C 
ATOM      3  C   UNL     1       3.548  -4.216  -1.339  0.00  0.00    +0.131 C 
ATOM      4  N   UNL     1       4.272  -4.218  -0.075  0.00  0.00    -0.267 N 
ATOM      5  C   UNL     1       3.762  -4.626   1.089  0.00  0.00    +0.238 C 
ATOM      6  O   UNL     1       4.436  -4.505   2.090  0.00  0.00    -0.273 OA
ATOM      7  C   UNL     1       2.392  -5.223   1.216  0.00  0.00    +0.163 C 
ATOM      8  C   UNL     1       2.514  -6.726   1.477  0.00  0.00    +0.036 C 
ENDROOT
BRANCH   4   9
ATOM      9  C   UNL     1       5.595  -3.759  -0.081  0.00  0.00    +0.055 A 
ATOM     10  C   UNL     1       5.866  -2.416   0.144  0.00  0.00    +0.026 A 
ATOM     11  C   UNL     1       7.172  -1.966   0.137  0.00  0.00    +0.022 A 
ATOM     12  C   UNL     1       8.210  -2.852  -0.093  0.00  0.00    +0.042 A 
ATOM     13  C   UNL     1       7.943  -4.191  -0.317  0.00  0.00    +0.041 A 
ATOM     14  C   UNL     1       6.638  -4.648  -0.306  0.00  0.00    +0.064 A 
ATOM     15 CL   UNL     1       6.304  -6.330  -0.580  0.00  0.00    -0.082 Cl
ATOM     16 CL   UNL     1       9.850  -2.282  -0.101  0.00  0.00    -0.083 Cl
ENDBRANCH   4   9
BRANCH   1  17
ATOM     17  S   UNL     1       0.063  -4.530  -0.023  0.00  0.00    +0.062 S 
ATOM     18  O   UNL     1      -0.476  -4.950   1.223  0.00  0.00    -0.153 OA
ATOM     19  O   UNL     1      -0.490  -4.937  -1.267  0.00  0.00    -0.153 OA
BRANCH  17  24
ATOM     20  C   UNL     1      -0.018   1.503   0.010  0.00  0.00    +0.044 C 
ATOM     21  C   UNL     1       0.002  -0.004   0.002  0.00  0.00    -0.050 A 
ATOM     22  C   UNL     1       0.006  -0.689  -1.199  0.00  0.00    +0.005 A 
ATOM     23  C   UNL     1       0.025  -2.071  -1.206  0.00  0.00    +0.029 A 
ATOM     24  C   UNL     1       0.040  -2.768  -0.013  0.00  0.00    +0.106 A 
ATOM     25  C   UNL     1       0.037  -2.084   1.188  0.00  0.00    +0.029 A 
ATOM     26  C   UNL     1       0.023  -0.702   1.195  0.00  0.00    +0.005 A 
ENDBRANCH  17  24
ENDBRANCH   1  17
TORSDOF 3
