REMARK  Name = ZINC08997195
REMARK  4 active torsions:
REMARK  status: ('A' for Active; 'I' for Inactive)
REMARK    1  A    between atoms: C_1  and  O_2
REMARK    2  A    between atoms: O_2  and  C_3
REMARK    3  A    between atoms: C_3  and  C_4
REMARK    4  A    between atoms: C_4  and  N_5
REMARK                            x       y       z     vdW  Elec       q    Type
REMARK                         _______ _______ _______ _____ _____    ______ ____
ROOT
ATOM      1  N   UNL     1       2.314   0.338   2.440  0.00  0.00    -0.223 N 
ATOM      2  C   UNL     1       1.325   1.233   2.570  0.00  0.00    +0.240 C 
ATOM      3  O   UNL     1       1.606   2.392   2.786  0.00  0.00    -0.274 OA
ATOM      4  C   UNL     1      -0.123   0.842   2.457  0.00  0.00    +0.146 C 
ATOM      5  C   UNL     1      -0.855   1.220   3.746  0.00  0.00    +0.064 C 
ATOM      6  C   UNL     1      -2.323   0.935   3.545  0.00  0.00    -0.025 A 
ATOM      7  C   UNL     1      -3.107   0.691   4.659  0.00  0.00    +0.005 A 
ATOM      8  C   UNL     1      -4.453   0.413   4.516  0.00  0.00    +0.000 A 
ATOM      9  C   UNL     1      -5.014   0.380   3.253  0.00  0.00    +0.002 A 
ATOM     10  C   UNL     1      -4.238   0.629   2.144  0.00  0.00    +0.023 A 
ATOM     11  C   UNL     1      -2.875   0.918   2.276  0.00  0.00    +0.033 A 
ATOM     12  N   UNL     1      -2.174   1.172   1.101  0.00  0.00    -0.325 N 
ATOM     13  C   UNL     1      -0.754   1.594   1.281  0.00  0.00    +0.098 C 
ATOM     14  C   UNL     1      -0.013   1.086   0.008  0.00  0.00    +0.024 C 
ATOM     15  C   UNL     1      -0.753   1.591  -1.203  0.00  0.00    +0.002 C 
ATOM     16  C   UNL     1      -2.108   0.985  -1.356  0.00  0.00    +0.002 C 
ATOM     17  C   UNL     1      -3.237   1.969  -0.983  0.00  0.00    +0.019 C 
ATOM     18  C   UNL     1      -2.801   2.369   0.464  0.00  0.00    +0.105 C 
ATOM     19  C   UNL     1      -0.252  -0.638   2.221  0.00  0.00    +0.238 C 
ATOM     20  O   UNL     1      -1.358  -1.123   2.127  0.00  0.00    -0.274 OA
ATOM     21  N   UNL     1       0.820  -1.435   2.113  0.00  0.00    -0.239 N 
ATOM     22  C   UNL     1       2.071  -0.962   2.214  0.00  0.00    +0.315 C 
ATOM     23  O   UNL     1       3.006  -1.728   2.098  0.00  0.00    -0.252 OA
ATOM     24  H   UNL     1       0.688  -2.512   1.935  0.00  0.00    +0.159 HD
ENDROOT
BRANCH   1  25
ATOM     25  C   UNL     1       3.702   0.793   2.548  0.00  0.00    +0.146 C 
BRANCH  25  26
ATOM     26  C   UNL     1       4.217   1.193   1.164  0.00  0.00    +0.179 C 
BRANCH  26  28
ATOM     27  C   UNL     1       3.888   2.782  -0.600  0.00  0.00    +0.194 C 
ATOM     28  O   UNL     1       3.484   2.325   0.692  0.00  0.00    -0.381 OA
ENDBRANCH  26  28
ENDBRANCH  25  26
ENDBRANCH   1  25
TORSDOF 3
