REMARK  Name = ZINC64143423
REMARK  7 active torsions:
REMARK  status: ('A' for Active; 'I' for Inactive)
REMARK    1  A    between atoms: C_1  and  C_2
REMARK    2  A    between atoms: C_4  and  C_23
REMARK    3  A    between atoms: C_9  and  C_22
REMARK    4  A    between atoms: N_10  and  C_11
REMARK    5  A    between atoms: C_11  and  C_12
REMARK    6  A    between atoms: C_12  and  C_13
REMARK    7  A    between atoms: N_25  and  C_26
REMARK                            x       y       z     vdW  Elec       q    Type
REMARK                         _______ _______ _______ _____ _____    ______ ____
ROOT
ATOM      1  C   UNL     1       0.337   1.673  -0.105  0.00  0.00    +0.029 C 
ATOM      2  C   UNL     1       0.171   0.156  -0.000  0.00  0.00    +0.089 C 
ATOM      3  C   UNL     1       0.621  -0.506  -1.308  0.00  0.00    +0.165 C 
ATOM      4  C   UNL     1       2.119  -0.379  -1.431  0.00  0.00    +0.171 C 
ATOM      5  O   UNL     1       2.634  -0.357  -2.532  0.00  0.00    -0.292 OA
ATOM      6  C   UNL     1       2.920  -0.287  -0.287  0.00  0.00    +0.065 C 
ATOM      7  C   UNL     1       2.371  -0.287   0.950  0.00  0.00    +0.007 C 
ATOM      8  N   UNL     1       1.013  -0.361   1.089  0.00  0.00    -0.329 N 
ATOM      9  C   UNL     1       3.252  -0.207   2.170  0.00  0.00    +0.060 C 
ENDROOT
BRANCH   3  10
ATOM     10  C   UNL     1      -0.043   0.178  -2.475  0.00  0.00    +0.226 C 
ATOM     11  O   UNL     1       0.456   1.172  -2.959  0.00  0.00    -0.275 OA
ATOM     12  N   UNL     1      -1.191  -0.314  -2.981  0.00  0.00    -0.312 N 
ATOM     13  H   UNL     1      -1.590  -1.109  -2.594  0.00  0.00    +0.149 HD
BRANCH  12  14
ATOM     14  C   UNL     1      -1.837   0.351  -4.115  0.00  0.00    +0.073 C 
ATOM     15  C   UNL     1      -2.667   1.540  -3.590  0.00  0.00    +0.022 C 
ATOM     16  C   UNL     1      -2.898   2.501  -4.725  0.00  0.00    +0.002 C 
ATOM     17  C   UNL     1      -4.238   2.252  -5.444  0.00  0.00    +0.000 C 
ATOM     18  C   UNL     1      -4.534   0.754  -5.654  0.00  0.00    +0.000 C 
ATOM     19  C   UNL     1      -3.317  -0.018  -6.085  0.00  0.00    +0.002 C 
ATOM     20  C   UNL     1      -2.650  -0.620  -4.831  0.00  0.00    +0.022 C 
ENDBRANCH  12  14
ENDBRANCH   3  10
BRANCH   8  21
ATOM     21  C   UNL     1       0.410  -0.942   2.292  0.00  0.00    +0.109 C 
BRANCH  21  22
ATOM     22  C   UNL     1       0.209  -2.445   2.087  0.00  0.00    +0.052 C 
BRANCH  22  23
ATOM     23  C   UNL     1      -0.410  -3.042   3.324  0.00  0.00    -0.040 C 
ATOM     24  C   UNL     1      -1.725  -3.268   3.547  0.00  0.00    -0.001 A 
ATOM     25  C   UNL     1      -2.926  -3.034   2.737  0.00  0.00    +0.010 A 
ATOM     26  C   UNL     1      -4.134  -3.371   3.242  0.00  0.00    +0.001 A 
ATOM     27  C   UNL     1      -4.268  -3.937   4.517  0.00  0.00    +0.002 A 
ATOM     28  C   UNL     1      -3.212  -4.183   5.321  0.00  0.00    +0.026 A 
ATOM     29  C   UNL     1      -1.893  -3.868   4.891  0.00  0.00    +0.043 A 
ATOM     30  N   UNL     1      -0.728  -4.007   5.475  0.00  0.00    -0.380 N 
ATOM     31  C   UNL     1       0.313  -3.517   4.565  0.00  0.00    +0.144 C 
ATOM     32  H   UNL     1      -0.579  -4.376   6.359  0.00  0.00    +0.160 HD
ENDBRANCH  22  23
ENDBRANCH  21  22
ENDBRANCH   8  21
TORSDOF 5
