REMARK  Name = ZINC41197141
REMARK  3 active torsions:
REMARK  status: ('A' for Active; 'I' for Inactive)
REMARK    1  A    between atoms: C_9  and  N_11
REMARK    2  A    between atoms: C_12  and  C_14
REMARK    3  A    between atoms: N_16  and  C_17
REMARK                            x       y       z     vdW  Elec       q    Type
REMARK                         _______ _______ _______ _____ _____    ______ ____
ROOT
ATOM      1  C   UNL     1       6.559   0.836  -1.594  0.00  0.00    +0.303 C 
ATOM      2  O   UNL     1       6.541   0.418  -2.733  0.00  0.00    -0.265 OA
ATOM      3  N   UNL     1       7.504   1.719  -1.215  0.00  0.00    -0.276 N 
ATOM      4  H   UNL     1       7.471   2.114  -0.330  0.00  0.00    +0.155 HD
ENDROOT
BRANCH   3   5
ATOM      5  C   UNL     1       8.532   2.064  -2.098  0.00  0.00    +0.056 A 
ATOM      6  C   UNL     1       8.903   1.186  -3.109  0.00  0.00    +0.072 A 
ATOM      7  C   UNL     1       9.920   1.530  -3.981  0.00  0.00    +0.144 A 
ATOM      8  C   UNL     1      10.570   2.757  -3.843  0.00  0.00    +0.077 A 
ATOM      9  C   UNL     1      10.199   3.631  -2.834  0.00  0.00    +0.048 A 
ATOM     10  C   UNL     1       9.178   3.288  -1.966  0.00  0.00    +0.064 A 
ATOM     11 CL   UNL     1       8.706   4.386  -0.707  0.00  0.00    -0.082 Cl
ATOM     12  N   UNL     1      11.601   3.090  -4.735  0.00  0.00    -0.280 N 
ATOM     13  C   UNL     1      11.731   2.383  -5.878  0.00  0.00    +0.255 C 
ATOM     14  O   UNL     1      12.633   2.634  -6.650  0.00  0.00    -0.272 OA
ATOM     15  C   UNL     1      10.750   1.282  -6.193  0.00  0.00    +0.325 C 
ATOM     16  O   UNL     1      10.294   0.683  -4.977  0.00  0.00    -0.481 OA
ATOM     17  H   UNL     1      12.211   3.817  -4.533  0.00  0.00    +0.155 HD
ENDBRANCH   3   5
BRANCH   1  19
ATOM     18  N   UNL     1       4.588  -0.509  -0.992  0.00  0.00    -0.301 N 
ATOM     19  C   UNL     1       5.533   0.373  -0.613  0.00  0.00    +0.300 C 
ATOM     20  O   UNL     1       5.551   0.791   0.527  0.00  0.00    -0.265 OA
ATOM     21  H   UNL     1       4.573  -0.844  -1.902  0.00  0.00    +0.150 HD
BRANCH  18  30
ATOM     22  C   UNL     1      -0.009   1.340   0.048  0.00  0.00    +0.000 A 
ATOM     23  C   UNL     1       1.177   2.051   0.037  0.00  0.00    +0.000 A 
ATOM     24  C   UNL     1       2.383   1.379   0.013  0.00  0.00    +0.006 A 
ATOM     25  C   UNL     1       2.410  -0.005  -0.001  0.00  0.00    -0.024 A 
ATOM     26  C   UNL     1       1.225  -0.717   0.009  0.00  0.00    -0.042 A 
ATOM     27  C   UNL     1       0.016  -0.041   0.034  0.00  0.00    +0.004 A 
ATOM     28  C   UNL     1       1.518  -2.201  -0.010  0.00  0.00    +0.037 C 
ATOM     29  C   UNL     1       2.986  -2.317  -0.474  0.00  0.00    +0.032 C 
ATOM     30  C   UNL     1       3.581  -0.964  -0.029  0.00  0.00    +0.104 C 
ENDBRANCH  18  30
ENDBRANCH   1  19
TORSDOF 3
