REMARK  Name = ZINC06553509
REMARK  2 active torsions:
REMARK  status: ('A' for Active; 'I' for Inactive)
REMARK    1  A    between atoms: C_4  and  C_7
REMARK    2  A    between atoms: N_11  and  C_12
REMARK                            x       y       z     vdW  Elec       q    Type
REMARK                         _______ _______ _______ _____ _____    ______ ____
ROOT
ATOM      1  C   UNL     1       3.694  -0.691  -0.093  0.00  0.00    +0.163 A 
ATOM      2  N   UNL     1       4.872  -0.137  -0.170  0.00  0.00    -0.153 NA
ATOM      3  N   UNL     1       5.835  -1.151  -0.081  0.00  0.00    -0.254 N 
ATOM      4  C   UNL     1       5.180  -2.322   0.051  0.00  0.00    +0.176 A 
ATOM      5  N   UNL     1       3.859  -2.054   0.051  0.00  0.00    -0.296 N 
ATOM      6  S   UNL     1       5.897  -3.870   0.199  0.00  0.00    -0.011 S 
ATOM      7  H   UNL     1       6.797  -1.032  -0.109  0.00  0.00    +0.191 HD
ENDROOT
BRANCH   1  11
ATOM      8  C   UNL     1      -0.025   1.357  -0.244  0.00  0.00    +0.000 A 
ATOM      9  C   UNL     1       1.057   1.940   0.390  0.00  0.00    +0.001 A 
ATOM     10  C   UNL     1       2.267   1.280   0.443  0.00  0.00    +0.011 A 
ATOM     11  C   UNL     1       2.399   0.022  -0.146  0.00  0.00    +0.019 A 
ATOM     12  C   UNL     1       1.304  -0.561  -0.784  0.00  0.00    +0.011 A 
ATOM     13  C   UNL     1       0.098   0.110  -0.830  0.00  0.00    +0.001 A 
ENDBRANCH   1  11
BRANCH   5  14
ATOM     14  C   UNL     1       2.783  -3.040   0.177  0.00  0.00    +0.114 C 
ATOM     15  C   UNL     1       2.888  -3.733   1.537  0.00  0.00    +0.030 C 
ATOM     16  C   UNL     1       1.927  -4.929   1.548  0.00  0.00    +0.006 C 
ATOM     17  C   UNL     1       2.442  -5.973   0.554  0.00  0.00    +0.027 C 
ATOM     18  C   UNL     1       2.748  -5.324  -0.764  0.00  0.00    -0.029 C 
ATOM     19  C   UNL     1       2.903  -4.051  -0.926  0.00  0.00    -0.006 C 
ENDBRANCH   5  14
TORSDOF 2
