REMARK  Name = ZINC08352375
REMARK  6 active torsions:
REMARK  status: ('A' for Active; 'I' for Inactive)
REMARK    1  A    between atoms: C_1  and  C_2
REMARK    2  A    between atoms: N_11  and  C_15
REMARK    3  A    between atoms: C_15  and  C_16
REMARK    4  A    between atoms: N_18  and  C_19
REMARK    5  A    between atoms: N_18  and  C_20
REMARK    6  A    between atoms: C_20  and  C_26
REMARK                            x       y       z     vdW  Elec       q    Type
REMARK                         _______ _______ _______ _____ _____    ______ ____
ROOT
ATOM      1  C   UNL     1      -0.712   3.293   2.520  0.00  0.00    +0.010 C 
ATOM      2  C   UNL     1      -1.213   4.053   1.290  0.00  0.00    +0.018 C 
ATOM      3  C   UNL     1      -2.743   4.086   1.300  0.00  0.00    +0.006 C 
ATOM      4  C   UNL     1      -3.244   4.828   0.059  0.00  0.00    +0.000 C 
ATOM      5  C   UNL     1      -2.767   4.099  -1.199  0.00  0.00    +0.003 C 
ATOM      6  C   UNL     1      -1.237   4.066  -1.219  0.00  0.00    +0.035 C 
ATOM      7  C   UNL     1      -0.725   3.352   0.027  0.00  0.00    +0.115 C 
ATOM      8  C   UNL     1       0.785   3.285   0.012  0.00  0.00    +0.247 C 
ATOM      9  O   UNL     1       1.561   4.217   0.010  0.00  0.00    -0.273 OA
ATOM     10  N   UNL     1       1.088   1.971   0.002  0.00  0.00    -0.215 N 
ATOM     11  C   UNL     1      -0.014   1.211   0.009  0.00  0.00    +0.310 C 
ATOM     12  O   UNL     1       0.002  -0.004   0.002  0.00  0.00    -0.252 OA
ATOM     13  N   UNL     1      -1.144   1.945   0.018  0.00  0.00    -0.285 N 
ATOM     14  H   UNL     1      -2.054   1.610   0.019  0.00  0.00    +0.151 HD
ENDROOT
BRANCH  10  15
ATOM     15  C   UNL     1       2.453   1.440  -0.013  0.00  0.00    +0.213 C 
BRANCH  15  16
ATOM     16  C   UNL     1       2.909   1.266  -1.439  0.00  0.00    +0.234 C 
ATOM     17  O   UNL     1       2.166   1.556  -2.352  0.00  0.00    -0.274 OA
ATOM     18  N   UNL     1       4.141   0.787  -1.699  0.00  0.00    -0.285 N 
ATOM     19  C   UNL     1       5.039   0.436  -0.595  0.00  0.00    +0.133 C 
BRANCH  18  20
ATOM     20  C   UNL     1       4.584   0.617  -3.085  0.00  0.00    +0.124 C 
ATOM     21  C   UNL     1       3.650  -0.359  -3.803  0.00  0.00    +0.041 C 
ATOM     22  C   UNL     1       4.112  -0.536  -5.250  0.00  0.00    +0.003 C 
ATOM     23  C   UNL     1       5.538  -1.090  -5.266  0.00  0.00    +0.000 C 
ATOM     24  C   UNL     1       6.473  -0.114  -4.548  0.00  0.00    +0.003 C 
ATOM     25  C   UNL     1       6.010   0.063  -3.101  0.00  0.00    +0.041 C 
BRANCH  20  26
ATOM     26  C   UNL     1       4.556   1.919  -3.772  0.00  0.00    +0.089 C 
ATOM     27  N   UNL     1       4.534   2.924  -4.302  0.00  0.00    -0.194 NA
ENDBRANCH  20  26
ENDBRANCH  18  20
ENDBRANCH  15  16
ENDBRANCH  10  15
TORSDOF 4
