REMARK  Name = ZINC21117134
REMARK  3 active torsions:
REMARK  status: ('A' for Active; 'I' for Inactive)
REMARK    1  A    between atoms: C_10  and  O_14
REMARK    2  A    between atoms: O_14  and  C_15
REMARK    3  A    between atoms: C_15  and  C_16
REMARK                            x       y       z     vdW  Elec       q    Type
REMARK                         _______ _______ _______ _____ _____    ______ ____
ROOT
ATOM      1  C   UNL     1      -0.013   1.076   0.008  0.00  0.00    +0.001 A 
ATOM      2  C   UNL     1       1.180   1.784   0.000  0.00  0.00    +0.004 A 
ATOM      3  C   UNL     1       1.178   3.162   0.008  0.00  0.00    +0.047 A 
ATOM      4  C   UNL     1      -0.026   3.857   0.023  0.00  0.00    +0.138 A 
ATOM      5  C   UNL     1      -1.231   3.139   0.030  0.00  0.00    +0.046 A 
ATOM      6  C   UNL     1      -1.216   1.747   0.017  0.00  0.00    +0.014 A 
ATOM      7  C   UNL     1      -2.300   4.152   0.047  0.00  0.00    +0.124 A 
ATOM      8  C   UNL     1      -1.646   5.391   0.048  0.00  0.00    +0.216 A 
ATOM      9  O   UNL     1      -0.315   5.177   0.034  0.00  0.00    -0.448 OA
ATOM     10  C   UNL     1      -2.434   6.545   0.062  0.00  0.00    +0.262 A 
ATOM     11  N   UNL     1      -3.755   6.416   0.073  0.00  0.00    -0.198 NA
ATOM     12  C   UNL     1      -4.329   5.228   0.071  0.00  0.00    +0.225 A 
ATOM     13  N   UNL     1      -3.629   4.113   0.059  0.00  0.00    -0.231 NA
ENDROOT
BRANCH  10  14
ATOM     14  O   UNL     1      -1.860   7.773   0.064  0.00  0.00    -0.465 OA
BRANCH  14  15
ATOM     15  C   UNL     1      -2.739   8.899   0.079  0.00  0.00    +0.344 C 
BRANCH  15  16
ATOM     16  C   UNL     1      -1.915  10.189   0.079  0.00  0.00    +0.424 C 
ATOM     17  F   UNL     1      -1.118  10.233  -1.070  0.00  0.00    -0.167 F 
ATOM     18  F   UNL     1      -2.775  11.292   0.093  0.00  0.00    -0.167 F 
ATOM     19  F   UNL     1      -1.098  10.220   1.214  0.00  0.00    -0.167 F 
ENDBRANCH  15  16
ENDBRANCH  14  15
ENDBRANCH  10  14
TORSDOF 3
