REMARK  Name = ZINC01640538
REMARK  7 active torsions:
REMARK  status: ('A' for Active; 'I' for Inactive)
REMARK    1  A    between atoms: C_1  and  C_2
REMARK    2  A    between atoms: C_2  and  C_3
REMARK    3  A    between atoms: C_2  and  C_21
REMARK    4  A    between atoms: C_2  and  C_28
REMARK    5  A    between atoms: C_3  and  N_68
REMARK    6  A    between atoms: N_11  and  C_20
REMARK    7  A    between atoms: N_13  and  C_14
REMARK                            x       y       z     vdW  Elec       q    Type
REMARK                         _______ _______ _______ _____ _____    ______ ____
ROOT
ATOM      1  C   UNL     1       0.589   4.260  -1.892  0.00  0.00    -0.076 C 
ATOM      2  C   UNL     1       1.572   3.086  -1.886  0.00  0.00    +0.017 C 
ATOM      3  C   UNL     1       1.260   2.172  -0.704  0.00  0.00    +0.109 C 
ATOM      4  C   UNL     1       1.304   2.961   0.602  0.00  0.00    +0.017 C 
ATOM      5  C   UNL     1       0.329   4.138   0.515  0.00  0.00    -0.076 C 
ATOM      6  C   UNL     1      -0.090   1.522  -0.882  0.00  0.00    +0.240 C 
ATOM      7  O   UNL     1      -1.164   2.055  -0.698  0.00  0.00    -0.273 OA
ATOM      8  N   UNL     1       0.101   0.249  -1.289  0.00  0.00    -0.287 N 
ATOM      9  C   UNL     1       1.540  -0.015  -1.418  0.00  0.00    +0.216 C 
ATOM     10  N   UNL     1       2.226   1.055  -0.656  0.00  0.00    -0.300 N 
ATOM     11  C   UNL     1      -0.963  -0.720  -1.560  0.00  0.00    +0.133 C 
ATOM     12  N   UNL     1       0.722   5.001  -0.620  0.00  0.00    +0.380 N 
ATOM     13  H   UNL     1       1.701   5.284  -0.500  0.00  0.00    -0.082 HD
ENDROOT
BRANCH  10  14
ATOM     14  C   UNL     1       3.432   1.410  -1.266  0.00  0.00    +0.032 A 
ATOM     15  C   UNL     1       3.916   0.666  -2.334  0.00  0.00    +0.023 A 
ATOM     16  C   UNL     1       5.106   1.022  -2.938  0.00  0.00    +0.002 A 
ATOM     17  C   UNL     1       5.820   2.111  -2.474  0.00  0.00    +0.000 A 
ATOM     18  C   UNL     1       5.343   2.851  -1.408  0.00  0.00    +0.002 A 
ATOM     19  C   UNL     1       4.151   2.504  -0.802  0.00  0.00    +0.023 A 
ENDBRANCH  10  14
BRANCH  12  20
ATOM     20  C   UNL     1      -0.126   6.211  -0.650  0.00  0.00    -0.063 C 
BRANCH  20  22
ATOM     21  C   UNL     1       1.995   7.492  -0.333  0.00  0.00    +0.019 C 
ATOM     22  C   UNL     1       0.561   7.306   0.168  0.00  0.00    +0.029 C 
BRANCH  22  23
ATOM     23  C   UNL     1      -0.197   8.599   0.014  0.00  0.00    -0.038 A 
ATOM     24  C   UNL     1      -1.325   8.648  -0.784  0.00  0.00    +0.007 A 
ATOM     25  C   UNL     1      -2.023   9.832  -0.922  0.00  0.00    +0.038 A 
ATOM     26  C   UNL     1      -1.587  10.973  -0.270  0.00  0.00    +0.123 A 
ATOM     27  C   UNL     1      -0.454  10.924   0.525  0.00  0.00    +0.038 A 
ATOM     28  C   UNL     1       0.240   9.737   0.666  0.00  0.00    +0.007 A 
ATOM     29  F   UNL     1      -2.267  12.132  -0.408  0.00  0.00    -0.205 F 
ENDBRANCH  22  23
BRANCH  22  30
ATOM     30  C   UNL     1       0.585   6.901   1.643  0.00  0.00    +0.258 C 
ATOM     31  O   UNL     1      -0.754   6.708   2.106  0.00  0.00    -0.350 OA
ATOM     32  C   UNL     1      -0.840   6.352   3.489  0.00  0.00    +0.165 C 
ATOM     33  C   UNL     1      -0.172   7.447   4.327  0.00  0.00    +0.056 C 
ATOM     34  C   UNL     1       1.257   7.660   3.814  0.00  0.00    +0.165 C 
ATOM     35  O   UNL     1       1.210   7.933   2.410  0.00  0.00    -0.350 OA
ENDBRANCH  22  30
ENDBRANCH  20  22
ENDBRANCH  12  20
TORSDOF 5
