REMARK  Name = ZINC42332612
REMARK  2 active torsions:
REMARK  status: ('A' for Active; 'I' for Inactive)
REMARK    1  A    between atoms: C_4  and  O_18
REMARK    2  A    between atoms: C_5  and  C_7
REMARK                            x       y       z     vdW  Elec       q    Type
REMARK                         _______ _______ _______ _____ _____    ______ ____
ROOT
ATOM      1  C   UNL     1       1.248  -2.161  -0.021  0.00  0.00    +0.112 A 
ATOM      2  N   UNL     1       2.279  -2.981  -0.030  0.00  0.00    -0.243 NA
ATOM      3  C   UNL     1       2.151  -4.313  -0.037  0.00  0.00    +0.055 A 
ATOM      4  C   UNL     1       0.886  -4.800  -0.027  0.00  0.00    +0.034 A 
ATOM      5  S   UNL     1      -0.110  -3.324  -0.014  0.00  0.00    -0.070 S 
ATOM      6  C   UNL     1       0.381  -6.209  -0.014  0.00  0.00    +0.210 C 
ATOM      7  S   UNL     1       1.747  -7.313  -0.491  0.00  0.00    -0.026 S 
ATOM      8  O   UNL     1       2.010  -7.143  -1.877  0.00  0.00    -0.174 OA
ATOM      9  O   UNL     1       1.480  -8.615   0.013  0.00  0.00    -0.174 OA
ATOM     10  C   UNL     1       3.119  -6.587   0.458  0.00  0.00    +0.172 C 
ATOM     11  C   UNL     1       3.399  -5.185  -0.066  0.00  0.00    +0.079 C 
ENDROOT
BRANCH   1  16
ATOM     12  C   UNL     1      -0.017   1.375   0.010  0.00  0.00    +0.001 A 
ATOM     13  C   UNL     1       1.169   2.089   0.002  0.00  0.00    +0.004 A 
ATOM     14  C   UNL     1       2.382   1.427  -0.013  0.00  0.00    +0.046 A 
ATOM     15  C   UNL     1       2.418   0.042  -0.021  0.00  0.00    +0.127 A 
ATOM     16  C   UNL     1       1.221  -0.683  -0.013  0.00  0.00    +0.049 A 
ATOM     17  C   UNL     1       0.002  -0.004   0.002  0.00  0.00    +0.014 A 
BRANCH  15  18
ATOM     18  O   UNL     1       3.610  -0.609  -0.037  0.00  0.00    -0.506 OA
ATOM     19  H   UNL     1       3.964  -0.802   0.842  0.00  0.00    +0.292 HD
ENDBRANCH  15  18
ENDBRANCH   1  16
TORSDOF 2
