REMARK  Name = ZINC20438366
REMARK  5 active torsions:
REMARK  status: ('A' for Active; 'I' for Inactive)
REMARK    1  A    between atoms: N_14  and  C_17
REMARK    2  A    between atoms: C_17  and  C_18
REMARK    3  A    between atoms: C_18  and  C_19
REMARK    4  A    between atoms: C_19  and  N_20
REMARK    5  A    between atoms: N_23  and  C_26
REMARK                            x       y       z     vdW  Elec       q    Type
REMARK                         _______ _______ _______ _____ _____    ______ ____
ROOT
ATOM      1  C   UNL     1       3.390   2.513  -0.016  0.00  0.00    +0.022 A 
ATOM      2  C   UNL     1       2.472   1.487  -0.013  0.00  0.00    +0.028 A 
ATOM      3  C   UNL     1       1.109   1.771   0.001  0.00  0.00    +0.049 A 
ATOM      4  C   UNL     1       0.685   3.111   0.012  0.00  0.00    +0.027 A 
ATOM      5  C   UNL     1       1.627   4.141   0.009  0.00  0.00    +0.032 A 
ATOM      6  C   UNL     1       2.971   3.837  -0.005  0.00  0.00    +0.042 A 
ATOM      7 CL   UNL     1       4.146   5.115  -0.009  0.00  0.00    -0.084 Cl
ATOM      8  C   UNL     1      -0.784   3.084   0.026  0.00  0.00    +0.103 A 
ATOM      9  C   UNL     1      -1.154   1.742   0.016  0.00  0.00    +0.131 A 
ATOM     10  N   UNL     1      -0.011   0.966   0.007  0.00  0.00    -0.349 N 
ATOM     11  H   UNL     1       0.099  -0.129   0.005  0.00  0.00    +0.166 HD
ATOM     12  C   UNL     1      -2.533   1.428   0.034  0.00  0.00    +0.278 A 
ATOM     13  O   UNL     1      -2.910   0.268   0.032  0.00  0.00    -0.265 OA
ATOM     14  N   UNL     1      -3.424   2.443   0.048  0.00  0.00    -0.297 N 
ATOM     15  C   UNL     1      -2.998   3.732   0.051  0.00  0.00    +0.202 A 
ATOM     16  N   UNL     1      -1.732   4.038   0.041  0.00  0.00    -0.235 NA
ENDROOT
BRANCH  14  17
ATOM     17  C   UNL     1      -4.859   2.152   0.060  0.00  0.00    +0.127 C 
BRANCH  17  18
ATOM     18  C   UNL     1      -5.373   2.058  -1.378  0.00  0.00    +0.037 C 
BRANCH  18  19
ATOM     19  C   UNL     1      -6.872   1.754  -1.365  0.00  0.00    +0.086 C 
BRANCH  19  20
ATOM     20  N   UNL     1      -7.366   1.665  -2.746  0.00  0.00    -0.306 NA
ATOM     21  C   UNL     1      -7.282   2.967  -3.420  0.00  0.00    +0.066 C 
ATOM     22  C   UNL     1      -7.729   2.815  -4.876  0.00  0.00    -0.063 C 
ATOM     23  N   UNL     1      -9.103   2.293  -4.912  0.00  0.00    +0.383 N 
ATOM     24  C   UNL     1      -9.186   0.990  -4.238  0.00  0.00    -0.063 C 
ATOM     25  C   UNL     1      -8.739   1.143  -2.782  0.00  0.00    +0.066 C 
ATOM     26  H   UNL     1      -9.748   2.999  -4.369  0.00  0.00    -0.081 HD
BRANCH  23  27
ATOM     27  C   UNL     1      -9.596   2.204  -6.293  0.00  0.00    -0.068 C 
ATOM     28  C   UNL     1      -8.676   1.289  -7.105  0.00  0.00    -0.015 C 
ATOM     29  C   UNL     1      -9.190   1.196  -8.543  0.00  0.00    -0.002 C 
ATOM     30  C   UNL     1      -9.205   2.591  -9.171  0.00  0.00    -0.000 C 
ATOM     31  C   UNL     1     -10.124   3.506  -8.359  0.00  0.00    -0.002 C 
ATOM     32  C   UNL     1      -9.611   3.599  -6.921  0.00  0.00    -0.015 C 
ENDBRANCH  23  27
ENDBRANCH  19  20
ENDBRANCH  18  19
ENDBRANCH  17  18
ENDBRANCH  14  17
TORSDOF 5
