REMARK  Name = ZINC66466270
REMARK  6 active torsions:
REMARK  status: ('A' for Active; 'I' for Inactive)
REMARK    1  A    between atoms: C_1  and  C_2
REMARK    2  A    between atoms: C_2  and  C_3
REMARK    3  A    between atoms: C_3  and  C_4
REMARK    4  A    between atoms: N_6  and  C_7
REMARK    5  A    between atoms: C_7  and  C_8
REMARK    6  A    between atoms: C_20  and  N_24
REMARK                            x       y       z     vdW  Elec       q    Type
REMARK                         _______ _______ _______ _____ _____    ______ ____
ROOT
ATOM      1  C   UNL     1       2.058  -4.623  -3.552  0.00  0.00    +0.023 C 
ATOM      2  C   UNL     1       2.188  -6.147  -3.501  0.00  0.00    +0.008 C 
ATOM      3  C   UNL     1       2.933  -6.639  -4.745  0.00  0.00    +0.019 C 
ATOM      4  C   UNL     1       2.134  -6.263  -5.996  0.00  0.00    +0.107 C 
ATOM      5  N   UNL     1       1.879  -4.816  -5.978  0.00  0.00    -0.309 N 
ATOM      6  C   UNL     1       1.249  -4.224  -4.790  0.00  0.00    +0.112 C 
ATOM      7  C   UNL     1       2.226  -4.027  -7.056  0.00  0.00    +0.162 A 
ATOM      8  N   UNL     1       2.080  -2.731  -7.209  0.00  0.00    -0.225 NA
ATOM      9  C   UNL     1       2.470  -2.084  -8.330  0.00  0.00    +0.080 A 
ATOM     10  C   UNL     1       2.371  -0.704  -8.621  0.00  0.00    +0.031 A 
ATOM     11  C   UNL     1       2.819  -0.207  -9.817  0.00  0.00    +0.035 A 
ATOM     12  C   UNL     1       3.381  -1.032 -10.780  0.00  0.00    +0.127 A 
ATOM     13  C   UNL     1       3.494  -2.387 -10.529  0.00  0.00    +0.050 A 
ATOM     14  C   UNL     1       3.049  -2.894  -9.334  0.00  0.00    +0.043 A 
ATOM     15  S   UNL     1       2.995  -4.509  -8.596  0.00  0.00    -0.052 S 
ENDROOT
BRANCH  12  16
ATOM     16  N   UNL     1       3.855  -0.467 -12.064  0.00  0.00    +0.056 N 
ATOM     17  O   UNL     1       3.753   0.719 -12.277  0.00  0.00    -0.126 OA
ATOM     18  O   UNL     1       4.344  -1.192 -12.899  0.00  0.00    -0.126 OA
ENDBRANCH  12  16
BRANCH   1  19
ATOM     19  C   UNL     1       1.341  -4.130  -2.293  0.00  0.00    +0.109 C 
BRANCH  19  22
ATOM     20  C   UNL     1       0.739  -2.004  -1.265  0.00  0.00    +0.213 C 
ATOM     21  O   UNL     1       0.231  -2.623  -0.354  0.00  0.00    -0.276 OA
ATOM     22  N   UNL     1       1.322  -2.665  -2.285  0.00  0.00    -0.315 N 
ATOM     23  H   UNL     1       1.728  -2.170  -3.014  0.00  0.00    +0.149 HD
BRANCH  20  24
ATOM     24  C   UNL     1       0.718  -0.497  -1.257  0.00  0.00    +0.095 C 
BRANCH  24  26
ATOM     25  C   UNL     1      -0.019   1.526   0.010  0.00  0.00    +0.004 C 
ATOM     26  C   UNL     1       0.002  -0.004   0.002  0.00  0.00    +0.006 C 
ENDBRANCH  24  26
ENDBRANCH  20  24
ENDBRANCH  19  22
ENDBRANCH   1  19
TORSDOF 5
