REMARK  Name = ZINC12113681
REMARK  7 active torsions:
REMARK  status: ('A' for Active; 'I' for Inactive)
REMARK    1  A    between atoms: C_1  and  C_2
REMARK    2  A    between atoms: C_3  and  C_30
REMARK    3  A    between atoms: N_10  and  C_11
REMARK    4  A    between atoms: C_17  and  C_19
REMARK    5  A    between atoms: C_19  and  C_22
REMARK    6  A    between atoms: C_25  and  O_28
REMARK    7  A    between atoms: O_28  and  C_29
REMARK                            x       y       z     vdW  Elec       q    Type
REMARK                         _______ _______ _______ _____ _____    ______ ____
ROOT
ATOM      1  C   UNL     1      -3.645   1.585   0.041  0.00  0.00    +0.076 C 
ATOM      2  C   UNL     1      -4.024   1.925   1.484  0.00  0.00    +0.041 C 
ATOM      3  C   UNL     1      -5.338   2.712   1.491  0.00  0.00    +0.109 C 
ATOM      4  N   UNL     1      -6.356   1.938   0.767  0.00  0.00    -0.301 N 
ATOM      5  C   UNL     1      -6.058   1.482  -0.598  0.00  0.00    +0.109 C 
ATOM      6  C   UNL     1      -4.735   0.710  -0.581  0.00  0.00    +0.041 C 
ATOM      7  C   UNL     1      -7.540   1.653   1.343  0.00  0.00    +0.226 C 
ATOM      8  O   UNL     1      -8.403   1.085   0.707  0.00  0.00    -0.275 OA
ENDROOT
BRANCH   1  18
ATOM      9  C   UNL     1       2.401   3.748   0.054  0.00  0.00    +0.051 C 
ATOM     10  C   UNL     1       1.121   2.952   0.050  0.00  0.00    +0.035 A 
ATOM     11  C   UNL     1      -0.088   3.584   0.066  0.00  0.00    +0.050 A 
ATOM     12  N   UNL     1      -1.213   2.872   0.063  0.00  0.00    -0.221 NA
ATOM     13  C   UNL     1      -1.191   1.554   0.037  0.00  0.00    +0.196 A 
ATOM     14  N   UNL     1      -0.015   0.871   0.025  0.00  0.00    -0.295 N 
ATOM     15  H   UNL     1      -0.016  -0.099   0.010  0.00  0.00    +0.172 HD
ATOM     16  C   UNL     1       1.154   1.547   0.028  0.00  0.00    +0.256 A 
ATOM     17  O   UNL     1       2.218   0.950   0.013  0.00  0.00    -0.267 OA
ATOM     18  N   UNL     1      -2.372   0.862   0.028  0.00  0.00    -0.312 N 
ATOM     19  C   UNL     1      -0.151   5.089   0.089  0.00  0.00    +0.066 C 
ATOM     20  H   UNL     1      -2.365  -0.108   0.014  0.00  0.00    +0.149 HD
ENDBRANCH   1  18
BRANCH   7  21
ATOM     21  C   UNL     1      -7.793   2.038   2.778  0.00  0.00    +0.072 C 
ATOM     22  C   UNL     1      -9.131   2.702   3.106  0.00  0.00    +0.022 C 
ATOM     23  C   UNL     1      -7.845   3.530   3.110  0.00  0.00    +0.022 C 
BRANCH  21  24
ATOM     24  C   UNL     1      -7.201   1.115   3.812  0.00  0.00    -0.032 A 
ATOM     25  C   UNL     1      -6.817   1.614   5.043  0.00  0.00    +0.008 A 
ATOM     26  C   UNL     1      -6.280   0.769   5.995  0.00  0.00    +0.046 A 
ATOM     27  C   UNL     1      -6.115  -0.579   5.711  0.00  0.00    +0.120 A 
ATOM     28  C   UNL     1      -6.496  -1.076   4.473  0.00  0.00    +0.046 A 
ATOM     29  C   UNL     1      -7.038  -0.228   3.527  0.00  0.00    +0.008 A 
BRANCH  27  30
ATOM     30  O   UNL     1      -5.583  -1.411   6.644  0.00  0.00    -0.495 OA
ATOM     31  C   UNL     1      -5.213  -0.830   7.896  0.00  0.00    +0.277 C 
ENDBRANCH  27  30
ENDBRANCH  21  24
ENDBRANCH   7  21
TORSDOF 4
