REMARK  Name = ZINC04317965
REMARK  6 active torsions:
REMARK  status: ('A' for Active; 'I' for Inactive)
REMARK    1  A    between atoms: C_1  and  C_2
REMARK    2  A    between atoms: C_2  and  C_3
REMARK    3  A    between atoms: C_2  and  C_4
REMARK    4  A    between atoms: C_4  and  N_5
REMARK    5  A    between atoms: N_11  and  C_18
REMARK    6  A    between atoms: N_14  and  C_17
REMARK                            x       y       z     vdW  Elec       q    Type
REMARK                         _______ _______ _______ _____ _____    ______ ____
ROOT
ATOM      1  N   UNL     1      -0.704   1.998   1.216  0.00  0.00    -0.313 N 
ATOM      2  C   UNL     1      -2.055   2.259   1.345  0.00  0.00    +0.152 A 
ATOM      3  C   UNL     1      -2.247   2.678   2.655  0.00  0.00    +0.169 A 
ATOM      4  N   UNL     1      -1.054   2.668   3.254  0.00  0.00    -0.203 NA
ATOM      5  C   UNL     1      -0.136   2.267   2.409  0.00  0.00    +0.180 A 
ATOM      6 BR   UNL     1       1.705   2.092   2.802  0.00  0.00    -0.008 Br
ATOM      7  N   UNL     1      -3.527   3.007   3.071  0.00  0.00    -0.280 N 
ATOM      8  C   UNL     1      -4.558   2.929   2.209  0.00  0.00    +0.333 A 
ATOM      9  O   UNL     1      -5.674   3.226   2.590  0.00  0.00    -0.246 OA
ATOM     10  N   UNL     1      -4.387   2.521   0.939  0.00  0.00    -0.262 N 
ATOM     11  C   UNL     1      -3.165   2.182   0.477  0.00  0.00    +0.282 A 
ATOM     12  O   UNL     1      -3.023   1.815  -0.675  0.00  0.00    -0.265 OA
ATOM     13  C   UNL     1      -5.544   2.444   0.044  0.00  0.00    +0.157 C 
ATOM     14  C   UNL     1      -3.756   3.458   4.446  0.00  0.00    +0.155 C 
ENDROOT
BRANCH   1  15
ATOM     15  C   UNL     1      -0.019   1.526   0.010  0.00  0.00    +0.127 C 
BRANCH  15  17
ATOM     16  C   UNL     1       0.606  -0.499  -1.314  0.00  0.00    +0.009 C 
ATOM     17  C   UNL     1       0.002  -0.004   0.002  0.00  0.00    +0.003 C 
ATOM     18  C   UNL     1       0.848  -0.509   1.173  0.00  0.00    +0.009 C 
ENDBRANCH  15  17
ENDBRANCH   1  15
TORSDOF 2
