REMARK  Name = ZINC52094935
REMARK  3 active torsions:
REMARK  status: ('A' for Active; 'I' for Inactive)
REMARK    1  A    between atoms: C_2  and  C_14
REMARK    2  A    between atoms: C_14  and  C_16
REMARK    3  A    between atoms: C_14  and  O_23
REMARK                            x       y       z     vdW  Elec       q    Type
REMARK                         _______ _______ _______ _____ _____    ______ ____
ROOT
ATOM      1  C   UNL     1      -0.017   1.382   0.010  0.00  0.00    +0.035 A 
ATOM      2  C   UNL     1       1.172   2.086   0.002  0.00  0.00    -0.001 A 
ATOM      3  C   UNL     1       2.382   1.413  -0.013  0.00  0.00    +0.026 A 
ATOM      4  C   UNL     1       2.410   0.031  -0.021  0.00  0.00    +0.043 A 
ATOM      5  C   UNL     1       1.222  -0.683  -0.013  0.00  0.00    +0.068 A 
ATOM      6  C   UNL     1       0.002  -0.004   0.002  0.00  0.00    +0.067 A 
ATOM      7  N   UNL     1      -0.998  -0.974   0.006  0.00  0.00    -0.306 N 
ATOM      8  H   UNL     1      -1.953  -0.804   0.016  0.00  0.00    +0.170 HD
ATOM      9  C   UNL     1      -0.413  -2.186  -0.006  0.00  0.00    +0.325 A 
ATOM     10  O   UNL     1      -1.005  -3.250  -0.005  0.00  0.00    -0.247 OA
ATOM     11  N   UNL     1       0.925  -2.044  -0.018  0.00  0.00    -0.306 N 
ATOM     12  H   UNL     1       1.573  -2.767  -0.028  0.00  0.00    +0.170 HD
ATOM     13 BR   UNL     1       4.002   2.388  -0.024  0.00  0.00    -0.050 Br
ENDROOT
BRANCH   2  14
ATOM     14  C   UNL     1       1.151   3.593   0.010  0.00  0.00    +0.174 C 
BRANCH  14  15
ATOM     15  C   UNL     1       1.257   4.112  -1.426  0.00  0.00    +0.151 C 
ATOM     16  C   UNL     1       1.110   5.636  -1.430  0.00  0.00    +0.034 C 
ATOM     17  C   UNL     1       1.157   6.141  -2.875  0.00  0.00    +0.005 C 
ATOM     18  C   UNL     1       0.054   5.449  -3.682  0.00  0.00    +0.028 C 
ATOM     19  C   UNL     1       0.241   3.933  -3.591  0.00  0.00    +0.160 C 
ATOM     20  O   UNL     1       0.219   3.533  -2.219  0.00  0.00    -0.374 OA
ENDBRANCH  14  15
BRANCH  14  21
ATOM     21  O   UNL     1      -0.071   4.050   0.593  0.00  0.00    -0.385 OA
ATOM     22  H   UNL     1      -0.864   3.756   0.124  0.00  0.00    +0.210 HD
ENDBRANCH  14  21
ENDBRANCH   2  14
TORSDOF 3
