REMARK  Name = ZINC04266408
REMARK  4 active torsions:
REMARK  status: ('A' for Active; 'I' for Inactive)
REMARK    1  A    between atoms: C_4  and  C_7
REMARK    2  A    between atoms: C_7  and  N_8
REMARK    3  A    between atoms: N_13  and  C_16
REMARK    4  A    between atoms: C_16  and  C_17
REMARK                            x       y       z     vdW  Elec       q    Type
REMARK                         _______ _______ _______ _____ _____    ______ ____
ROOT
ATOM      1  N   UNL     1       2.858   4.194  -1.384  0.00  0.00    -0.222 N 
ATOM      2  C   UNL     1       3.647   3.400  -2.161  0.00  0.00    +0.186 A 
ATOM      3  C   UNL     1       3.755   4.051  -3.396  0.00  0.00    +0.196 A 
ATOM      4  C   UNL     1       4.558   3.407  -4.439  0.00  0.00    +0.284 A 
ATOM      5  O   UNL     1       4.698   3.921  -5.535  0.00  0.00    -0.265 OA
ATOM      6  N   UNL     1       5.139   2.222  -4.142  0.00  0.00    -0.293 N 
ATOM      7  C   UNL     1       4.972   1.666  -2.917  0.00  0.00    +0.204 A 
ATOM      8  N   UNL     1       4.263   2.223  -1.978  0.00  0.00    -0.216 NA
ATOM      9  N   UNL     1       3.054   5.191  -3.329  0.00  0.00    -0.122 NA
ATOM     10  N   UNL     1       2.515   5.308  -2.165  0.00  0.00    -0.063 NA
ENDROOT
BRANCH   1  11
ATOM     11  C   UNL     1       2.451   3.937  -0.001  0.00  0.00    +0.182 C 
BRANCH  11  15
ATOM     12  C   UNL     1      -1.219   1.751   0.017  0.00  0.00    +0.000 A 
ATOM     13  C   UNL     1      -0.013   1.076   0.008  0.00  0.00    +0.000 A 
ATOM     14  C   UNL     1       1.175   1.783   0.000  0.00  0.00    +0.005 A 
ATOM     15  C   UNL     1       1.156   3.165   0.008  0.00  0.00    -0.026 A 
ATOM     16  C   UNL     1      -0.050   3.840   0.023  0.00  0.00    +0.005 A 
ATOM     17  C   UNL     1      -1.238   3.133   0.030  0.00  0.00    +0.000 A 
ENDBRANCH  11  15
ENDBRANCH   1  11
BRANCH   6  18
ATOM     18  C   UNL     1       5.952   1.536  -5.149  0.00  0.00    +0.161 C 
BRANCH  18  19
ATOM     19  C   UNL     1       7.386   1.984  -5.027  0.00  0.00    -0.028 A 
ATOM     20  C   UNL     1       7.833   3.073  -5.751  0.00  0.00    +0.006 A 
ATOM     21  C   UNL     1       9.147   3.488  -5.636  0.00  0.00    +0.015 A 
ATOM     22  C   UNL     1      10.017   2.805  -4.804  0.00  0.00    +0.018 A 
ATOM     23  C   UNL     1       9.570   1.712  -4.084  0.00  0.00    +0.015 A 
ATOM     24  C   UNL     1       8.255   1.302  -4.196  0.00  0.00    +0.006 A 
ATOM     25 BR   UNL     1      11.816   3.368  -4.652  0.00  0.00    -0.050 Br
ENDBRANCH  18  19
ENDBRANCH   6  18
TORSDOF 4
