REMARK  Name = ZINC04570083
REMARK  4 active torsions:
REMARK  status: ('A' for Active; 'I' for Inactive)
REMARK    1  A    between atoms: C_1  and  C_2
REMARK    2  A    between atoms: N_5  and  S_11
REMARK    3  A    between atoms: C_7  and  C_10
REMARK    4  A    between atoms: S_11  and  C_14
REMARK                            x       y       z     vdW  Elec       q    Type
REMARK                         _______ _______ _______ _____ _____    ______ ____
ROOT
ATOM      1  C   UNL     1      -1.152  -3.408  -2.154  0.00  0.00    +0.106 A 
ATOM      2  C   UNL     1      -1.155  -2.596  -3.278  0.00  0.00    +0.034 A 
ATOM      3  C   UNL     1      -0.335  -2.873  -4.346  0.00  0.00    -0.024 A 
ATOM      4  C   UNL     1       0.484  -3.997  -4.235  0.00  0.00    +0.043 A 
ATOM      5  C   UNL     1       0.491  -4.811  -3.111  0.00  0.00    -0.015 A 
ATOM      6  C   UNL     1      -0.328  -4.527  -2.041  0.00  0.00    +0.034 A 
ATOM      7  C   UNL     1       1.498  -5.880  -3.403  0.00  0.00    +0.133 C 
ATOM      8  C   UNL     1       2.016  -5.541  -4.795  0.00  0.00    +0.224 C 
ATOM      9  O   UNL     1       2.854  -6.158  -5.417  0.00  0.00    -0.275 OA
ATOM     10  N   UNL     1       1.376  -4.437  -5.209  0.00  0.00    -0.271 N 
ATOM     11  C   UNL     1       1.506  -3.705  -6.481  0.00  0.00    +0.114 C 
ATOM     12  C   UNL     1       0.177  -2.995  -6.768  0.00  0.00    +0.024 C 
ATOM     13  C   UNL     1      -0.239  -2.077  -5.614  0.00  0.00    +0.038 C 
ENDROOT
BRANCH   1  14
ATOM     14  S   UNL     1      -2.225  -3.006  -0.815  0.00  0.00    +0.061 S 
ATOM     15  O   UNL     1      -2.443  -4.211  -0.094  0.00  0.00    -0.153 OA
ATOM     16  O   UNL     1      -3.290  -2.243  -1.363  0.00  0.00    -0.153 OA
BRANCH  14  20
ATOM     17  C   UNL     1      -0.019   1.526   0.010  0.00  0.00    +0.039 C 
ATOM     18  C   UNL     1       0.002  -0.004   0.002  0.00  0.00    +0.131 C 
ATOM     19  C   UNL     1      -1.436  -0.536   0.015  0.00  0.00    +0.140 C 
ATOM     20  N   UNL     1      -1.389  -1.995   0.196  0.00  0.00    -0.172 NA
ATOM     21  C   UNL     1      -0.578  -2.530   1.302  0.00  0.00    +0.140 C 
ATOM     22  C   UNL     1       0.818  -1.901   1.226  0.00  0.00    +0.131 C 
ATOM     23  O   UNL     1       0.691  -0.479   1.161  0.00  0.00    -0.371 OA
ATOM     24  C   UNL     1       1.621  -2.288   2.469  0.00  0.00    +0.039 C 
ENDBRANCH  14  20
ENDBRANCH   1  14
TORSDOF 2
