REMARK  Name = ZINC21780802
REMARK  9 active torsions:
REMARK  status: ('A' for Active; 'I' for Inactive)
REMARK    1  A    between atoms: C_1  and  C_2
REMARK    2  A    between atoms: C_2  and  C_3
REMARK    3  A    between atoms: C_2  and  N_4
REMARK    4  A    between atoms: C_8  and  N_30
REMARK    5  A    between atoms: C_11  and  O_28
REMARK    6  A    between atoms: C_17  and  C_18
REMARK    7  A    between atoms: C_17  and  C_19
REMARK    8  A    between atoms: N_21  and  C_22
REMARK    9  A    between atoms: O_28  and  C_29
REMARK                            x       y       z     vdW  Elec       q    Type
REMARK                         _______ _______ _______ _____ _____    ______ ____
ROOT
ATOM      1  N   UNL     1       3.826  -0.683   0.153  0.00  0.00    -0.278 N 
ATOM      2  C   UNL     1       3.301   0.526   0.457  0.00  0.00    +0.266 C 
ATOM      3  O   UNL     1       3.984   1.426   0.911  0.00  0.00    -0.268 OA
ATOM      4  C   UNL     1       1.863   0.697   0.210  0.00  0.00    +0.130 A 
ATOM      5  C   UNL     1       1.105   1.819   0.238  0.00  0.00    +0.084 A 
ATOM      6  C   UNL     1      -0.262   1.413  -0.109  0.00  0.00    +0.028 A 
ATOM      7  C   UNL     1      -1.464   2.112  -0.248  0.00  0.00    +0.057 A 
ATOM      8  C   UNL     1      -2.613   1.433  -0.597  0.00  0.00    +0.121 A 
ATOM      9  C   UNL     1      -2.576   0.058  -0.817  0.00  0.00    +0.047 A 
ATOM     10  C   UNL     1      -1.399  -0.642  -0.685  0.00  0.00    +0.030 A 
ATOM     11  C   UNL     1      -0.226   0.021  -0.329  0.00  0.00    +0.052 A 
ATOM     12  N   UNL     1       1.061  -0.399  -0.122  0.00  0.00    -0.332 N 
ATOM     13  C   UNL     1       1.613  -1.757  -0.196  0.00  0.00    +0.157 C 
ATOM     14  C   UNL     1       3.082  -1.679  -0.609  0.00  0.00    +0.129 C 
ATOM     15  C   UNL     1       3.160  -1.323  -2.095  0.00  0.00    +0.043 C 
ENDROOT
BRANCH   5  16
ATOM     16  N   UNL     1       1.539   3.111   0.538  0.00  0.00    -0.321 N 
ATOM     17  C   UNL     1       2.428   3.844  -0.197  0.00  0.00    +0.091 A 
ATOM     18  C   UNL     1       2.591   5.038   0.408  0.00  0.00    +0.019 A 
ATOM     19  C   UNL     1       1.784   5.041   1.564  0.00  0.00    +0.019 A 
ATOM     20  C   UNL     1       1.152   3.851   1.620  0.00  0.00    +0.091 A 
ENDBRANCH   5  16
BRANCH  14  21
ATOM     21  C   UNL     1       3.720  -3.028  -0.400  0.00  0.00    +0.238 C 
ATOM     22  O   UNL     1       3.906  -3.764  -1.346  0.00  0.00    -0.273 OA
ATOM     23  N   UNL     1       4.082  -3.417   0.838  0.00  0.00    -0.311 N 
ATOM     24  H   UNL     1       3.835  -2.789   1.706  0.00  0.00    +0.149 HD
BRANCH  23  25
ATOM     25  C   UNL     1       4.805  -4.678   1.027  0.00  0.00    +0.073 C 
ATOM     26  C   UNL     1       3.803  -5.831   1.117  0.00  0.00    +0.022 C 
ATOM     27  C   UNL     1       4.558  -7.147   1.315  0.00  0.00    +0.002 C 
ATOM     28  C   UNL     1       5.373  -7.079   2.607  0.00  0.00    +0.000 C 
ATOM     29  C   UNL     1       6.375  -5.925   2.518  0.00  0.00    +0.002 C 
ATOM     30  C   UNL     1       5.620  -4.609   2.320  0.00  0.00    +0.022 C 
ENDBRANCH  23  25
ENDBRANCH  14  21
BRANCH   1  32
ATOM     31  C   UNL     1       6.177  -0.038  -0.051  0.00  0.00    +0.028 C 
ATOM     32  C   UNL     1       5.183  -1.001   0.603  0.00  0.00    +0.071 C 
ATOM     33  C   UNL     1       5.262  -0.860   2.125  0.00  0.00    +0.028 C 
ENDBRANCH   1  32
BRANCH   8  34
ATOM     34  O   UNL     1      -3.786   2.109  -0.731  0.00  0.00    -0.495 OA
ATOM     35  C   UNL     1      -4.936   1.346  -1.098  0.00  0.00    +0.277 C 
ENDBRANCH   8  34
TORSDOF 5
