REMARK  Name = ZINC08789078
REMARK  7 active torsions:
REMARK  status: ('A' for Active; 'I' for Inactive)
REMARK    1  A    between atoms: C_1  and  C_2
REMARK    2  A    between atoms: C_13  and  C_30
REMARK    3  A    between atoms: N_19  and  C_22
REMARK    4  A    between atoms: C_27  and  O_28
REMARK    5  A    between atoms: O_28  and  C_29
REMARK    6  A    between atoms: C_35  and  O_36
REMARK    7  A    between atoms: O_36  and  C_37
REMARK                            x       y       z     vdW  Elec       q    Type
REMARK                         _______ _______ _______ _____ _____    ______ ____
ROOT
ATOM      1  C   UNL     1       2.881   6.947   1.407  0.00  0.00    +0.048 C 
ATOM      2  C   UNL     1       2.217   6.687   0.052  0.00  0.00    +0.153 C 
ATOM      3  C   UNL     1       1.509   5.354   0.020  0.00  0.00    +0.054 A 
ATOM      4  C   UNL     1       0.162   5.237   0.021  0.00  0.00    -0.008 A 
ATOM      5  C   UNL     1      -0.130   3.814   0.021  0.00  0.00    +0.004 A 
ATOM      6  C   UNL     1      -1.331   3.098   0.030  0.00  0.00    +0.010 A 
ATOM      7  C   UNL     1      -1.235   1.728   0.017  0.00  0.00    +0.001 A 
ATOM      8  C   UNL     1      -0.013   1.076   0.008  0.00  0.00    +0.002 A 
ATOM      9  C   UNL     1       1.190   1.760   0.000  0.00  0.00    +0.026 A 
ATOM     10  C   UNL     1       1.124   3.152   0.007  0.00  0.00    +0.047 A 
ATOM     11  N   UNL     1       2.091   4.115   0.004  0.00  0.00    -0.356 N 
ATOM     12  H   UNL     1       3.046   3.947  -0.007  0.00  0.00    +0.166 HD
ATOM     13  C   UNL     1      -0.833   6.370   0.003  0.00  0.00    +0.072 C 
ATOM     14  C   UNL     1      -0.142   7.692   0.369  0.00  0.00    +0.123 C 
ATOM     15  N   UNL     1       1.178   7.695  -0.264  0.00  0.00    -0.265 N 
ATOM     16  C   UNL     1       1.684   8.456  -1.250  0.00  0.00    +0.317 C 
ATOM     17  O   UNL     1       1.185   9.499  -1.624  0.00  0.00    -0.252 OA
ATOM     18  N   UNL     1       2.808   7.932  -1.763  0.00  0.00    -0.188 N 
ATOM     19  C   UNL     1       3.194   6.825  -1.091  0.00  0.00    +0.257 C 
ATOM     20  O   UNL     1       4.127   6.096  -1.351  0.00  0.00    -0.272 OA
ENDROOT
BRANCH  18  21
ATOM     21  C   UNL     1       3.498   8.467  -2.862  0.00  0.00    +0.087 A 
ATOM     22  C   UNL     1       3.184   8.053  -4.149  0.00  0.00    +0.028 A 
ATOM     23  C   UNL     1       3.864   8.582  -5.229  0.00  0.00    +0.002 A 
ATOM     24  C   UNL     1       4.858   9.523  -5.032  0.00  0.00    +0.004 A 
ATOM     25  C   UNL     1       5.176   9.940  -3.753  0.00  0.00    +0.047 A 
ATOM     26  C   UNL     1       4.495   9.419  -2.665  0.00  0.00    +0.142 A 
BRANCH  26  27
ATOM     27  O   UNL     1       4.803   9.833  -1.407  0.00  0.00    -0.493 OA
ATOM     28  C   UNL     1       5.836  10.812  -1.280  0.00  0.00    +0.277 C 
ENDBRANCH  26  27
ENDBRANCH  18  21
BRANCH  13  29
ATOM     29  C   UNL     1      -1.928   6.087   0.999  0.00  0.00    +0.003 A 
ATOM     30  C   UNL     1      -1.622   5.929   2.337  0.00  0.00    +0.008 A 
ATOM     31  C   UNL     1      -2.627   5.671   3.251  0.00  0.00    +0.001 A 
ATOM     32  C   UNL     1      -3.940   5.568   2.829  0.00  0.00    +0.004 A 
ATOM     33  C   UNL     1      -4.251   5.725   1.493  0.00  0.00    +0.046 A 
ATOM     34  C   UNL     1      -3.245   5.990   0.574  0.00  0.00    +0.124 A 
BRANCH  34  35
ATOM     35  O   UNL     1      -3.549   6.150  -0.741  0.00  0.00    -0.495 OA
ATOM     36  C   UNL     1      -4.926   6.037  -1.107  0.00  0.00    +0.277 C 
ENDBRANCH  34  35
ENDBRANCH  13  29
TORSDOF 4
