REMARK  Name = ZINC04483611
REMARK  4 active torsions:
REMARK  status: ('A' for Active; 'I' for Inactive)
REMARK    1  A    between atoms: C_1  and  C_2
REMARK    2  A    between atoms: C_5  and  N_8
REMARK    3  A    between atoms: N_17  and  C_20
REMARK    4  A    between atoms: C_20  and  C_21
REMARK                            x       y       z     vdW  Elec       q    Type
REMARK                         _______ _______ _______ _____ _____    ______ ____
ROOT
ATOM      1  N   UNL     1       0.059  -4.172  -0.021  0.00  0.00    -0.207 N 
ATOM      2  C   UNL     1       0.069  -4.924  -1.161  0.00  0.00    +0.255 C 
ATOM      3  O   UNL     1       0.314  -4.538  -2.284  0.00  0.00    -0.272 OA
ATOM      4  C   UNL     1      -0.284  -6.319  -0.748  0.00  0.00    +0.246 C 
ATOM      5  C   UNL     1       0.383  -6.270   0.683  0.00  0.00    +0.216 C 
ATOM      6  C   UNL     1       0.075  -4.940   1.116  0.00  0.00    +0.251 C 
ATOM      7  O   UNL     1      -0.131  -4.570   2.252  0.00  0.00    -0.273 OA
ATOM      8  N   UNL     1       0.399  -7.636   0.976  0.00  0.00    -0.219 N 
ATOM      9  N   UNL     1       0.772  -8.202  -0.287  0.00  0.00    -0.082 NA
ATOM     10  N   UNL     1       0.425  -7.473  -1.269  0.00  0.00    -0.156 NA
ENDROOT
BRANCH   1  15
ATOM     11  C   UNL     1      -0.018   1.503   0.010  0.00  0.00    +0.044 C 
ATOM     12  C   UNL     1       0.002  -0.004   0.002  0.00  0.00    -0.050 A 
ATOM     13  C   UNL     1       0.006  -0.688  -1.200  0.00  0.00    +0.005 A 
ATOM     14  C   UNL     1       0.025  -2.068  -1.211  0.00  0.00    +0.024 A 
ATOM     15  C   UNL     1       0.040  -2.771  -0.013  0.00  0.00    +0.044 A 
ATOM     16  C   UNL     1       0.037  -2.082   1.192  0.00  0.00    +0.024 A 
ATOM     17  C   UNL     1       0.023  -0.700   1.196  0.00  0.00    +0.005 A 
ENDBRANCH   1  15
BRANCH   8  18
ATOM     18  C   UNL     1       0.109  -8.313   2.242  0.00  0.00    +0.163 C 
BRANCH  18  19
ATOM     19  C   UNL     1      -1.361  -8.639   2.313  0.00  0.00    -0.028 A 
ATOM     20  C   UNL     1      -2.245  -7.727   2.858  0.00  0.00    +0.008 A 
ATOM     21  C   UNL     1      -3.593  -8.024   2.923  0.00  0.00    +0.038 A 
ATOM     22  C   UNL     1      -4.058  -9.237   2.442  0.00  0.00    +0.123 A 
ATOM     23  C   UNL     1      -3.171 -10.149   1.896  0.00  0.00    +0.038 A 
ATOM     24  C   UNL     1      -1.824  -9.848   1.827  0.00  0.00    +0.008 A 
ATOM     25  F   UNL     1      -5.375  -9.529   2.505  0.00  0.00    -0.205 F 
ENDBRANCH  18  19
ENDBRANCH   8  18
TORSDOF 3
