REMARK  Name = ZINC36038468
REMARK  8 active torsions:
REMARK  status: ('A' for Active; 'I' for Inactive)
REMARK    1  A    between atoms: C_1  and  C_2
REMARK    2  A    between atoms: C_2  and  C_3
REMARK    3  A    between atoms: C_2  and  C_4
REMARK    4  A    between atoms: C_4  and  C_5
REMARK    5  A    between atoms: N_9  and  C_28
REMARK    6  A    between atoms: N_14  and  S_17
REMARK    7  A    between atoms: S_17  and  C_20
REMARK    8  A    between atoms: C_28  and  C_29
REMARK                            x       y       z     vdW  Elec       q    Type
REMARK                         _______ _______ _______ _____ _____    ______ ____
ROOT
ATOM      1  C   UNL     1       2.700  -0.582  -0.581  0.00  0.00    +0.019 C 
ATOM      2  C   UNL     1       3.438  -1.146  -1.776  0.00  0.00    +0.200 C 
ATOM      3  O   UNL     1       3.418  -2.302  -2.140  0.00  0.00    -0.277 OA
ATOM      4  N   UNL     1       4.122  -0.144  -2.368  0.00  0.00    -0.313 N 
ATOM      5  C   UNL     1       3.898   1.103  -1.631  0.00  0.00    +0.006 C 
ATOM      6  N   UNL     1       2.699   0.886  -0.791  0.00  0.00    +0.401 N 
ATOM      7  C   UNL     1       3.647   2.253  -2.603  0.00  0.00    +0.023 C 
ATOM      8  C   UNL     1       4.880   2.446  -3.492  0.00  0.00    +0.109 C 
ATOM      9  N   UNL     1       6.060   2.617  -2.633  0.00  0.00    -0.177 NA
ATOM     10  C   UNL     1       6.345   1.598  -1.613  0.00  0.00    +0.109 C 
ATOM     11  C   UNL     1       5.100   1.413  -0.740  0.00  0.00    +0.023 C 
ATOM     12  H   UNL     1       1.865   1.175  -1.280  0.00  0.00    -0.082 HD
ATOM     13  H   UNL     1       2.786   1.372   0.089  0.00  0.00    -0.082 HD
ENDROOT
BRANCH   9  14
ATOM     14  S   UNL     1       7.050   3.932  -2.811  0.00  0.00    +0.062 S 
ATOM     15  O   UNL     1       8.358   3.507  -2.454  0.00  0.00    -0.153 OA
ATOM     16  O   UNL     1       6.752   4.495  -4.081  0.00  0.00    -0.153 OA
BRANCH  14  17
ATOM     17  C   UNL     1       6.559   5.120  -1.606  0.00  0.00    +0.125 A 
ATOM     18  C   UNL     1       7.407   5.434  -0.560  0.00  0.00    +0.030 A 
ATOM     19  C   UNL     1       7.023   6.366   0.386  0.00  0.00    +0.003 A 
ATOM     20  C   UNL     1       5.791   6.985   0.287  0.00  0.00    +0.021 A 
ATOM     21  C   UNL     1       4.942   6.672  -0.759  0.00  0.00    +0.061 A 
ATOM     22  C   UNL     1       5.329   5.743  -1.710  0.00  0.00    +0.086 A 
ATOM     23 CL   UNL     1       4.267   5.355  -3.027  0.00  0.00    -0.080 Cl
ATOM     24 CL   UNL     1       3.394   7.449  -0.883  0.00  0.00    -0.082 Cl
ENDBRANCH  14  17
ENDBRANCH   9  14
BRANCH   1  25
ATOM     25  C   UNL     1       1.266  -1.115  -0.540  0.00  0.00    -0.004 C 
BRANCH  25  27
ATOM     26  C   UNL     1      -0.941  -0.927   0.615  0.00  0.00    +0.007 C 
ATOM     27  C   UNL     1       0.530  -0.508   0.656  0.00  0.00    -0.018 C 
ATOM     28  C   UNL     1       1.167  -1.007   1.954  0.00  0.00    +0.007 C 
ENDBRANCH  25  27
ENDBRANCH   1  25
BRANCH   4  29
ATOM     29  C   UNL     1       4.959  -0.282  -3.562  0.00  0.00    +0.109 C 
BRANCH  29  30
ATOM     30  C   UNL     1       4.105  -0.057  -4.812  0.00  0.00    +0.006 C 
ATOM     31  C   UNL     1       3.941  -1.232  -5.777  0.00  0.00    +0.005 C 
ATOM     32  C   UNL     1       4.821  -0.043  -6.163  0.00  0.00    +0.005 C 
ENDBRANCH  29  30
ENDBRANCH   4  29
TORSDOF 6
