REMARK  Name = ZINC05880921
REMARK  3 active torsions:
REMARK  status: ('A' for Active; 'I' for Inactive)
REMARK    1  A    between atoms: C_1  and  C_2
REMARK    2  A    between atoms: C_2  and  C_4
REMARK    3  A    between atoms: C_2  and  N_17
REMARK                            x       y       z     vdW  Elec       q    Type
REMARK                         _______ _______ _______ _____ _____    ______ ____
ROOT
ATOM      1  C   UNL     1      -1.399   2.810   1.337  0.00  0.00    +0.029 C 
ATOM      2  C   UNL     1      -1.307   2.039   0.019  0.00  0.00    +0.089 C 
ENDROOT
BRANCH   2   3
ATOM      3  C   UNL     1      -1.133   3.025  -1.138  0.00  0.00    -0.010 C 
ATOM      4  C   UNL     1      -1.099   2.257  -2.461  0.00  0.00    +0.012 C 
ATOM      5  C   UNL     1      -0.925   3.243  -3.618  0.00  0.00    -0.010 C 
ATOM      6  C   UNL     1      -2.097   4.227  -3.630  0.00  0.00    +0.007 C 
ATOM      7  C   UNL     1      -2.132   4.995  -2.307  0.00  0.00    -0.010 C 
ATOM      8  C   UNL     1      -2.305   4.008  -1.149  0.00  0.00    +0.012 C 
ATOM      9  C   UNL     1      -0.821   5.764  -2.129  0.00  0.00    +0.007 C 
ATOM     10  C   UNL     1       0.350   4.780  -2.117  0.00  0.00    -0.010 C 
ATOM     11  C   UNL     1       0.385   4.013  -3.440  0.00  0.00    +0.007 C 
ATOM     12  C   UNL     1       0.177   3.795  -0.960  0.00  0.00    +0.012 C 
ENDBRANCH   2   3
BRANCH   2  13
ATOM     13  N   UNL     1      -0.158   1.131   0.064  0.00  0.00    -0.222 N 
ATOM     14  C   UNL     1      -0.294  -0.122  -0.417  0.00  0.00    +0.232 C 
ATOM     15  O   UNL     1      -1.347  -0.507  -0.879  0.00  0.00    -0.275 OA
ATOM     16  C   UNL     1       0.919  -1.031  -0.360  0.00  0.00    +0.192 C 
ATOM     17  C   UNL     1       2.178  -0.433   0.239  0.00  0.00    +0.229 C 
ATOM     18  O   UNL     1       3.200  -1.079   0.328  0.00  0.00    -0.275 OA
ATOM     19  N   UNL     1       2.117   0.846   0.668  0.00  0.00    -0.239 N 
ATOM     20  C   UNL     1       0.997   1.572   0.576  0.00  0.00    +0.315 C 
ATOM     21  O   UNL     1       1.032   2.714   0.987  0.00  0.00    -0.252 OA
ATOM     22  H   UNL     1       2.910   1.250   1.054  0.00  0.00    +0.159 HD
ENDBRANCH   2  13
TORSDOF 2
