REMARK  Name = ZINC42246123
REMARK  3 active torsions:
REMARK  status: ('A' for Active; 'I' for Inactive)
REMARK    1  A    between atoms: C_1  and  C_2
REMARK    2  A    between atoms: C_5  and  N_8
REMARK    3  A    between atoms: C_10  and  C_18
REMARK                            x       y       z     vdW  Elec       q    Type
REMARK                         _______ _______ _______ _____ _____    ______ ____
ROOT
ATOM      1  N   UNL     1       1.499  -3.999  -0.034  0.00  0.00    -0.325 N 
ATOM      2  C   UNL     1       2.497  -4.681   0.641  0.00  0.00    +0.137 A 
ATOM      3  C   UNL     1       2.515  -6.087   0.625  0.00  0.00    +0.092 A 
ATOM      4  C   UNL     1       3.535  -6.750   1.316  0.00  0.00    +0.027 A 
ATOM      5  C   UNL     1       4.483  -5.993   1.985  0.00  0.00    -0.025 A 
ATOM      6  C   UNL     1       4.402  -4.612   1.956  0.00  0.00    +0.047 A 
ATOM      7  N   UNL     1       3.429  -4.008   1.291  0.00  0.00    -0.236 NA
ATOM      8  C   UNL     1       5.545  -4.020   2.755  0.00  0.00    +0.056 C 
ATOM      9  C   UNL     1       6.070  -5.178   3.630  0.00  0.00    +0.011 C 
ATOM     10  C   UNL     1       5.681  -6.422   2.803  0.00  0.00    +0.037 C 
ATOM     11  H   UNL     1       0.813  -4.491  -0.512  0.00  0.00    +0.148 HD
ENDROOT
BRANCH   1  16
ATOM     12  C   UNL     1      -0.019   1.526   0.010  0.00  0.00    +0.007 C 
ATOM     13  C   UNL     1       0.002  -0.004   0.002  0.00  0.00    -0.014 C 
ATOM     14  C   UNL     1       0.718  -0.497  -1.257  0.00  0.00    +0.005 C 
ATOM     15  C   UNL     1       0.739  -2.027  -1.265  0.00  0.00    +0.022 C 
ATOM     16  C   UNL     1       1.479  -2.534  -0.026  0.00  0.00    +0.072 C 
ATOM     17  C   UNL     1       0.763  -2.041   1.233  0.00  0.00    +0.022 C 
ATOM     18  C   UNL     1       0.742  -0.511   1.242  0.00  0.00    +0.005 C 
ENDBRANCH   1  16
BRANCH   3  19
ATOM     19  C   UNL     1       1.511  -6.824  -0.081  0.00  0.00    +0.103 C 
ATOM     20  N   UNL     1       0.715  -7.409  -0.641  0.00  0.00    -0.191 NA
ENDBRANCH   3  19
TORSDOF 2
