REMARK  Name = ZINC07072223
REMARK  4 active torsions:
REMARK  status: ('A' for Active; 'I' for Inactive)
REMARK    1  A    between atoms: C_4  and  N_7
REMARK    2  A    between atoms: C_11  and  S_12
REMARK    3  A    between atoms: S_12  and  C_13
REMARK    4  A    between atoms: C_13  and  C_14
REMARK                            x       y       z     vdW  Elec       q    Type
REMARK                         _______ _______ _______ _____ _____    ______ ____
ROOT
ATOM      1  N   UNL     1       3.696   3.444   1.207  0.00  0.00    -0.259 N 
ATOM      2  C   UNL     1       3.394   2.123   1.398  0.00  0.00    +0.225 A 
ATOM      3  N   UNL     1       4.520   1.464   1.518  0.00  0.00    -0.112 NA
ATOM      4  N   UNL     1       5.574   2.377   1.393  0.00  0.00    -0.120 NA
ATOM      5  C   UNL     1       5.059   3.569   1.209  0.00  0.00    +0.198 A 
ATOM      6  N   UNL     1       2.118   1.578   1.459  0.00  0.00    -0.299 N 
ATOM      7  C   UNL     1       1.921   0.579   0.402  0.00  0.00    +0.108 C 
ATOM      8  C   UNL     1       0.465   0.107   0.408  0.00  0.00    +0.019 C 
ATOM      9  C   UNL     1       0.136  -0.498   1.776  0.00  0.00    +0.003 C 
ATOM     10  C   UNL     1       0.395   0.548   2.864  0.00  0.00    +0.019 C 
ATOM     11  C   UNL     1       1.853   1.007   2.786  0.00  0.00    +0.108 C 
ENDROOT
BRANCH   1  15
ATOM     12  C   UNL     1       0.950   6.542   0.710  0.00  0.00    +0.000 A 
ATOM     13  C   UNL     1       1.746   6.500   1.840  0.00  0.00    +0.002 A 
ATOM     14  C   UNL     1       2.656   5.475   2.008  0.00  0.00    +0.026 A 
ATOM     15  C   UNL     1       2.772   4.486   1.040  0.00  0.00    +0.052 A 
ATOM     16  C   UNL     1       1.976   4.534  -0.096  0.00  0.00    +0.026 A 
ATOM     17  C   UNL     1       1.063   5.559  -0.256  0.00  0.00    +0.002 A 
ENDBRANCH   1  15
BRANCH   5  18
ATOM     18  S   UNL     1       5.963   5.067   1.001  0.00  0.00    -0.076 S 
BRANCH  18  19
ATOM     19  C   UNL     1       7.699   4.551   1.103  0.00  0.00    +0.173 C 
BRANCH  19  20
ATOM     20  C   UNL     1       8.592   5.754   0.939  0.00  0.00    +0.233 C 
ATOM     21  O   UNL     1       8.105   6.851   0.769  0.00  0.00    -0.274 OA
ATOM     22  N   UNL     1       9.931   5.610   0.980  0.00  0.00    -0.224 N 
ATOM     23  C   UNL     1      10.910   6.697   0.834  0.00  0.00    +0.136 C 
ATOM     24  C   UNL     1      12.272   5.987   0.959  0.00  0.00    +0.125 C 
ATOM     25  N   UNL     1      11.916   4.575   1.162  0.00  0.00    -0.297 N 
ATOM     26  C   UNL     1      10.582   4.454   1.166  0.00  0.00    +0.309 C 
ATOM     27  O   UNL     1      10.014   3.391   1.321  0.00  0.00    -0.252 OA
ATOM     28  H   UNL     1      12.547   3.848   1.279  0.00  0.00    +0.150 HD
ENDBRANCH  19  20
ENDBRANCH  18  19
ENDBRANCH   5  18
TORSDOF 4
