REMARK  Name = ZINC27575043
REMARK  6 active torsions:
REMARK  status: ('A' for Active; 'I' for Inactive)
REMARK    1  A    between atoms: C_1  and  C_2
REMARK    2  A    between atoms: N_5  and  C_8
REMARK    3  A    between atoms: C_8  and  C_10
REMARK    4  A    between atoms: C_8  and  C_25
REMARK    5  A    between atoms: C_10  and  N_11
REMARK    6  A    between atoms: C_12  and  C_14
REMARK                            x       y       z     vdW  Elec       q    Type
REMARK                         _______ _______ _______ _____ _____    ______ ____
ROOT
ATOM      1  N   UNL     1       4.137   5.641  -1.462  0.00  0.00    -0.313 N 
ATOM      2  C   UNL     1       2.986   4.940  -1.490  0.00  0.00    +0.244 C 
ATOM      3  O   UNL     1       1.983   5.437  -1.964  0.00  0.00    -0.270 OA
ATOM      4  H   UNL     1       5.045   5.191  -1.033  0.00  0.00    +0.149 HD
ENDROOT
BRANCH   2   5
ATOM      5  C   UNL     1       2.944   3.569  -0.945  0.00  0.00    +0.040 A 
ATOM      6  C   UNL     1       4.096   2.997  -0.400  0.00  0.00    +0.015 A 
ATOM      7  C   UNL     1       4.057   1.717   0.109  0.00  0.00    +0.028 A 
ATOM      8  C   UNL     1       2.872   0.994   0.081  0.00  0.00    +0.076 A 
ATOM      9  C   UNL     1       1.717   1.560  -0.464  0.00  0.00    +0.143 A 
ATOM     10  C   UNL     1       1.751   2.841  -0.974  0.00  0.00    +0.060 A 
ATOM     11  O   UNL     1       0.565   0.837  -0.485  0.00  0.00    -0.481 OA
ATOM     12  C   UNL     1       0.697  -0.578  -0.645  0.00  0.00    +0.325 C 
ATOM     13  C   UNL     1       1.770  -1.093   0.281  0.00  0.00    +0.255 C 
ATOM     14  O   UNL     1       1.690  -2.212   0.742  0.00  0.00    -0.272 OA
ATOM     15  N   UNL     1       2.820  -0.304   0.596  0.00  0.00    -0.280 N 
ATOM     16  H   UNL     1       3.626  -0.670   1.248  0.00  0.00    +0.155 HD
ENDBRANCH   2   5
BRANCH   1  17
ATOM     17  C   UNL     1       4.179   7.002  -2.003  0.00  0.00    +0.094 C 
BRANCH  17  18
ATOM     18  C   UNL     1       5.556   7.614  -1.738  0.00  0.00    -0.013 C 
BRANCH  18  23
ATOM     19  C   UNL     1       6.591   8.361   3.834  0.00  0.00    +0.007 C 
ATOM     20  C   UNL     1       6.277   8.611   2.357  0.00  0.00    -0.018 C 
ATOM     21  C   UNL     1       4.991   7.872   1.976  0.00  0.00    -0.015 C 
ATOM     22  C   UNL     1       4.715   8.075   0.485  0.00  0.00    -0.078 C 
ATOM     23  N   UNL     1       5.846   7.562  -0.298  0.00  0.00    +0.386 N 
ATOM     24  C   UNL     1       7.083   8.288   0.016  0.00  0.00    -0.078 C 
ATOM     25  C   UNL     1       7.429   8.091   1.494  0.00  0.00    -0.015 C 
ATOM     26  H   UNL     1       5.995   6.508  -0.020  0.00  0.00    -0.081 HD
ENDBRANCH  18  23
BRANCH  18  27
ATOM     27  C   UNL     1       5.566   9.047  -2.201  0.00  0.00    -0.022 A 
ATOM     28  C   UNL     1       6.063   9.570  -3.348  0.00  0.00    +0.009 A 
ATOM     29  C   UNL     1       5.960  10.932  -3.565  0.00  0.00    +0.008 A 
ATOM     30  C   UNL     1       5.364  11.704  -2.623  0.00  0.00    +0.045 A 
ATOM     31  S   UNL     1       4.920  10.497  -1.384  0.00  0.00    -0.103 S 
ENDBRANCH  18  27
ENDBRANCH  17  18
ENDBRANCH   1  17
TORSDOF 5
