REMARK  Name = ZINC57992246
REMARK  5 active torsions:
REMARK  status: ('A' for Active; 'I' for Inactive)
REMARK    1  A    between atoms: C_1  and  C_2
REMARK    2  A    between atoms: N_8  and  C_9
REMARK    3  A    between atoms: C_9  and  C_10
REMARK    4  A    between atoms: C_10  and  N_11
REMARK    5  A    between atoms: C_12  and  C_14
REMARK                            x       y       z     vdW  Elec       q    Type
REMARK                         _______ _______ _______ _____ _____    ______ ____
ROOT
ATOM      1  C   UNL     1       0.117   0.509   7.283  0.00  0.00    +0.110 C 
ATOM      2  C   UNL     1       0.237   2.056   7.325  0.00  0.00    +0.034 C 
ATOM      3  C   UNL     1       0.169   2.337   8.845  0.00  0.00    +0.059 C 
ATOM      4  C   UNL     1       0.930   3.636   9.155  0.00  0.00    +0.020 C 
ATOM      5  C   UNL     1       2.142   3.201  10.010  0.00  0.00    +0.017 C 
ATOM      6  C   UNL     1       2.319   1.712   9.628  0.00  0.00    +0.086 C 
ATOM      7  N   UNL     1       0.911   1.211   9.472  0.00  0.00    -0.282 NA
ATOM      8  C   UNL     1       0.873   0.069   8.546  0.00  0.00    +0.137 C 
ATOM      9  C   UNL     1       0.212  -1.129   9.176  0.00  0.00    +0.004 A 
ATOM     10  C   UNL     1      -1.042  -1.349   9.698  0.00  0.00    +0.008 A 
ATOM     11  C   UNL     1      -1.365  -2.589  10.222  0.00  0.00    +0.000 A 
ATOM     12  C   UNL     1      -0.426  -3.604  10.218  0.00  0.00    +0.002 A 
ATOM     13  C   UNL     1       0.832  -3.386   9.695  0.00  0.00    +0.023 A 
ATOM     14  C   UNL     1       1.165  -2.142   9.166  0.00  0.00    +0.039 A 
ATOM     15  N   UNL     1       2.352  -1.683   8.589  0.00  0.00    -0.283 N 
ATOM     16  C   UNL     1       2.263  -0.398   8.200  0.00  0.00    +0.243 C 
ATOM     17  O   UNL     1       3.135   0.259   7.671  0.00  0.00    -0.273 OA
ATOM     18  H   UNL     1       3.147  -2.227   8.483  0.00  0.00    +0.155 HD
ENDROOT
BRANCH   1  20
ATOM     19  N   UNL     1       0.496  -1.297   5.636  0.00  0.00    -0.317 N 
ATOM     20  C   UNL     1       0.777  -0.045   6.046  0.00  0.00    +0.219 C 
ATOM     21  O   UNL     1       1.561   0.637   5.421  0.00  0.00    -0.275 OA
ATOM     22  H   UNL     1      -0.131  -1.843   6.136  0.00  0.00    +0.149 HD
BRANCH  19  23
ATOM     23  C   UNL     1       1.137  -1.835   4.434  0.00  0.00    +0.085 C 
BRANCH  23  24
ATOM     24  C   UNL     1       0.649  -3.265   4.191  0.00  0.00    -0.059 C 
BRANCH  24  31
ATOM     25  C   UNL     1      -0.784  -5.018   2.530  0.00  0.00    -0.013 C 
ATOM     26  C   UNL     1       0.734  -5.128   2.686  0.00  0.00    -0.072 C 
ATOM     27  C   UNL     1       1.342  -5.659   1.386  0.00  0.00    -0.016 C 
ATOM     28  C   UNL     1       2.861  -5.768   1.546  0.00  0.00    -0.003 C 
ATOM     29  C   UNL     1       3.423  -4.397   1.932  0.00  0.00    -0.019 C 
ATOM     30  C   UNL     1       2.738  -3.913   3.212  0.00  0.00    -0.078 C 
ATOM     31  N   UNL     1       1.292  -3.804   2.986  0.00  0.00    +0.382 N 
ATOM     32  H   UNL     1       1.119  -3.184   2.208  0.00  0.00    -0.081 HD
ENDBRANCH  24  31
ENDBRANCH  23  24
ENDBRANCH  19  23
ENDBRANCH   1  20
TORSDOF 4
