REMARK  Name = ZINC33088051
REMARK  7 active torsions:
REMARK  status: ('A' for Active; 'I' for Inactive)
REMARK    1  A    between atoms: C_1  and  C_2
REMARK    2  A    between atoms: C_2  and  C_3
REMARK    3  A    between atoms: C_9  and  C_14
REMARK    4  A    between atoms: C_14  and  N_15
REMARK    5  A    between atoms: N_18  and  C_21
REMARK    6  A    between atoms: C_21  and  C_22
REMARK    7  A    between atoms: C_29  and  C_31
REMARK                            x       y       z     vdW  Elec       q    Type
REMARK                         _______ _______ _______ _____ _____    ______ ____
ROOT
ATOM      1  N   UNL     1      -1.997   0.062   6.314  0.00  0.00    +0.384 N 
ATOM      2  C   UNL     1      -1.381   0.818   5.215  0.00  0.00    -0.063 C 
ATOM      3  C   UNL     1      -1.654   2.311   5.407  0.00  0.00    +0.066 C 
ATOM      4  N   UNL     1      -3.105   2.542   5.431  0.00  0.00    -0.298 NA
ATOM      5  C   UNL     1      -3.739   1.773   6.511  0.00  0.00    +0.066 C 
ATOM      6  C   UNL     1      -3.449   0.284   6.309  0.00  0.00    -0.063 C 
ATOM      7  H   UNL     1      -1.613   0.374   7.193  0.00  0.00    -0.081 HD
ENDROOT
BRANCH   1   8
ATOM      8  C   UNL     1      -1.720  -1.370   6.138  0.00  0.00    -0.042 C 
BRANCH   8  15
ATOM      9  C   UNL     1       1.012  -0.924   2.809  0.00  0.00    -0.047 A 
ATOM     10  C   UNL     1       2.370  -1.158   2.967  0.00  0.00    +0.007 A 
ATOM     11  C   UNL     1       2.881  -1.538   4.190  0.00  0.00    +0.047 A 
ATOM     12  C   UNL     1       2.029  -1.690   5.277  0.00  0.00    +0.139 A 
ATOM     13  C   UNL     1       0.653  -1.452   5.113  0.00  0.00    +0.019 A 
ATOM     14  C   UNL     1       0.156  -1.062   3.866  0.00  0.00    +0.015 A 
ATOM     15  C   UNL     1      -0.239  -1.614   6.266  0.00  0.00    -0.047 A 
ATOM     16  C   UNL     1       0.307  -1.990   7.450  0.00  0.00    +0.094 A 
ATOM     17  C   UNL     1       1.698  -2.212   7.543  0.00  0.00    +0.337 A 
ATOM     18  O   UNL     1       2.175  -2.549   8.612  0.00  0.00    -0.245 OA
ATOM     19  O   UNL     1       2.508  -2.062   6.484  0.00  0.00    -0.422 OA
BRANCH   9  21
ATOM     20  C   UNL     1       0.499   1.017   1.353  0.00  0.00    +0.009 C 
ATOM     21  C   UNL     1       0.476  -0.509   1.463  0.00  0.00    +0.032 C 
ENDBRANCH   9  21
ENDBRANCH   8  15
ENDBRANCH   1   8
BRANCH   4  22
ATOM     22  C   UNL     1      -3.408   3.974   5.558  0.00  0.00    +0.180 C 
BRANCH  22  23
ATOM     23  C   UNL     1      -4.881   4.198   5.333  0.00  0.00    +0.230 C 
ATOM     24  O   UNL     1      -5.607   3.257   5.091  0.00  0.00    -0.274 OA
ATOM     25  N   UNL     1      -5.392   5.444   5.401  0.00  0.00    -0.298 N 
ATOM     26  C   UNL     1      -4.546   6.579   5.795  0.00  0.00    +0.108 C 
ATOM     27  C   UNL     1      -5.218   7.313   6.959  0.00  0.00    +0.019 C 
ATOM     28  C   UNL     1      -6.644   7.701   6.557  0.00  0.00    +0.003 C 
ATOM     29  C   UNL     1      -7.451   6.436   6.253  0.00  0.00    +0.022 C 
ATOM     30  C   UNL     1      -6.803   5.693   5.076  0.00  0.00    +0.073 C 
ATOM     31  C   UNL     1      -7.520   4.360   4.851  0.00  0.00    +0.028 C 
ENDBRANCH  22  23
ENDBRANCH   4  22
TORSDOF 5
