REMARK  Name = ZINC08844674
REMARK  4 active torsions:
REMARK  status: ('A' for Active; 'I' for Inactive)
REMARK    1  A    between atoms: C_4  and  S_7
REMARK    2  A    between atoms: S_7  and  N_10
REMARK    3  A    between atoms: C_12  and  C_18
REMARK    4  A    between atoms: C_18  and  N_19
REMARK                            x       y       z     vdW  Elec       q    Type
REMARK                         _______ _______ _______ _____ _____    ______ ____
ROOT
ATOM      1  N   UNL     1      -0.020   1.652   0.011  0.00  0.00    -0.162 NA
ATOM      2  C   UNL     1      -1.291   2.394   0.021  0.00  0.00    +0.156 C 
ATOM      3  C   UNL     1      -1.290   3.393  -1.135  0.00  0.00    +0.212 C 
ATOM      4  O   UNL     1      -0.083   4.204  -1.067  0.00  0.00    -0.457 OA
ATOM      5  C   UNL     1       1.082   3.522  -1.036  0.00  0.00    +0.323 C 
ATOM      6  O   UNL     1       1.974   3.773  -1.811  0.00  0.00    -0.249 OA
ATOM      7  C   UNL     1       1.231   2.429   0.003  0.00  0.00    +0.230 C 
ENDROOT
BRANCH   1   8
ATOM      8  S   UNL     1       0.002  -0.004   0.002  0.00  0.00    +0.061 S 
ATOM      9  O   UNL     1      -1.243  -0.424  -0.539  0.00  0.00    -0.153 OA
ATOM     10  O   UNL     1       1.248  -0.390  -0.563  0.00  0.00    -0.153 OA
BRANCH   8  14
ATOM     11  C   UNL     1       0.061  -1.366   4.319  0.00  0.00    +0.000 A 
ATOM     12  C   UNL     1      -1.145  -1.174   3.671  0.00  0.00    +0.002 A 
ATOM     13  C   UNL     1      -1.163  -0.758   2.353  0.00  0.00    +0.028 A 
ATOM     14  C   UNL     1       0.025  -0.534   1.682  0.00  0.00    +0.105 A 
ATOM     15  C   UNL     1       1.231  -0.731   2.328  0.00  0.00    +0.028 A 
ATOM     16  C   UNL     1       1.249  -1.142   3.648  0.00  0.00    +0.002 A 
ENDBRANCH   8  14
ENDBRANCH   1   8
BRANCH   3  17
ATOM     17  C   UNL     1      -2.520   4.298  -1.033  0.00  0.00    +0.168 C 
BRANCH  17  18
ATOM     18  N   UNL     1      -2.578   5.178  -2.203  0.00  0.00    -0.336 N 
ATOM     19  C   UNL     1      -1.997   6.431  -2.279  0.00  0.00    +0.050 A 
ATOM     20  C   UNL     1      -1.253   7.176  -1.369  0.00  0.00    +0.026 A 
ATOM     21  C   UNL     1      -0.787   8.425  -1.718  0.00  0.00    +0.002 A 
ATOM     22  C   UNL     1      -1.053   8.953  -2.972  0.00  0.00    +0.001 A 
ATOM     23  C   UNL     1      -1.783   8.228  -3.889  0.00  0.00    +0.010 A 
ATOM     24  C   UNL     1      -2.262   6.965  -3.549  0.00  0.00    +0.008 A 
ATOM     25  C   UNL     1      -3.063   5.957  -4.268  0.00  0.00    +0.008 A 
ATOM     26  C   UNL     1      -3.225   4.876  -3.388  0.00  0.00    +0.050 A 
ATOM     27  C   UNL     1      -3.949   3.763  -3.803  0.00  0.00    +0.026 A 
ATOM     28  C   UNL     1      -4.498   3.729  -5.067  0.00  0.00    +0.002 A 
ATOM     29  C   UNL     1      -4.337   4.798  -5.935  0.00  0.00    +0.001 A 
ATOM     30  C   UNL     1      -3.623   5.909  -5.542  0.00  0.00    +0.010 A 
ENDBRANCH  17  18
ENDBRANCH   3  17
TORSDOF 4
