REMARK  Name = ZINC35938818
REMARK  6 active torsions:
REMARK  status: ('A' for Active; 'I' for Inactive)
REMARK    1  A    between atoms: C_4  and  C_7
REMARK    2  A    between atoms: N_16  and  C_17
REMARK    3  A    between atoms: C_17  and  C_18
REMARK    4  A    between atoms: C_18  and  C_19
REMARK    5  A    between atoms: N_24  and  S_27
REMARK    6  A    between atoms: S_27  and  C_30
REMARK                            x       y       z     vdW  Elec       q    Type
REMARK                         _______ _______ _______ _____ _____    ______ ____
ROOT
ATOM      1  C   UNL     1       3.159  -2.619  -3.213  0.00  0.00    +0.077 C 
ENDROOT
BRANCH   1   2
ATOM      2  C   UNL     1       2.928  -2.147  -4.626  0.00  0.00    +0.214 C 
ATOM      3  O   UNL     1       2.945  -0.961  -4.879  0.00  0.00    -0.276 OA
ATOM      4  N   UNL     1       2.704  -3.043  -5.607  0.00  0.00    -0.299 N 
ATOM      5  C   UNL     1       2.674  -4.483  -5.314  0.00  0.00    +0.125 C 
ATOM      6  C   UNL     1       1.340  -5.056  -5.806  0.00  0.00    +0.128 C 
ATOM      7  N   UNL     1       1.119  -4.611  -7.189  0.00  0.00    -0.174 NA
ATOM      8  C   UNL     1       1.148  -3.171  -7.483  0.00  0.00    +0.128 C 
ATOM      9  C   UNL     1       2.477  -2.597  -6.989  0.00  0.00    +0.125 C 
BRANCH   7  10
ATOM     10  S   UNL     1       0.843  -5.711  -8.396  0.00  0.00    +0.061 S 
ATOM     11  O   UNL     1       1.222  -5.084  -9.613  0.00  0.00    -0.153 OA
ATOM     12  O   UNL     1       1.411  -6.940  -7.963  0.00  0.00    -0.153 OA
BRANCH  10  13
ATOM     13  C   UNL     1      -0.899  -5.965  -8.481  0.00  0.00    +0.105 A 
ATOM     14  C   UNL     1      -1.492  -6.952  -7.717  0.00  0.00    +0.028 A 
ATOM     15  C   UNL     1      -2.858  -7.151  -7.784  0.00  0.00    +0.002 A 
ATOM     16  C   UNL     1      -3.631  -6.362  -8.614  0.00  0.00    +0.000 A 
ATOM     17  C   UNL     1      -3.039  -5.374  -9.377  0.00  0.00    +0.002 A 
ATOM     18  C   UNL     1      -1.673  -5.172  -9.307  0.00  0.00    +0.028 A 
ENDBRANCH  10  13
ENDBRANCH   7  10
ENDBRANCH   1   2
BRANCH   1  19
ATOM     19  C   UNL     1       3.387  -1.411  -2.303  0.00  0.00    -0.068 C 
BRANCH  19  28
ATOM     20  C   UNL     1       3.711  -0.707  -0.038  0.00  0.00    -0.006 C 
ATOM     21  C   UNL     1       4.047  -1.188   1.371  0.00  0.00    -0.047 A 
ATOM     22  C   UNL     1       3.840  -0.433   2.522  0.00  0.00    +0.010 A 
ATOM     23  C   UNL     1       4.166  -0.943   3.733  0.00  0.00    +0.045 A 
ATOM     24  S   UNL     1       4.799  -2.556   3.297  0.00  0.00    -0.101 S 
ATOM     25  C   UNL     1       4.584  -2.429   1.545  0.00  0.00    -0.010 A 
ATOM     26  C   UNL     1       4.902  -3.416   0.470  0.00  0.00    +0.024 C 
ATOM     27  C   UNL     1       4.843  -2.672  -0.875  0.00  0.00    -0.072 C 
ATOM     28  N   UNL     1       3.612  -1.871  -0.926  0.00  0.00    +0.388 N 
ATOM     29  H   UNL     1       2.833  -2.444  -0.637  0.00  0.00    -0.080 HD
BRANCH  20  33
ATOM     30  C   UNL     1      -0.017   1.378   0.010  0.00  0.00    +0.000 A 
ATOM     31  C   UNL     1       1.171   2.086   0.002  0.00  0.00    +0.000 A 
ATOM     32  C   UNL     1       2.377   1.411  -0.013  0.00  0.00    +0.002 A 
ATOM     33  C   UNL     1       2.396   0.029  -0.020  0.00  0.00    -0.057 A 
ATOM     34  C   UNL     1       1.208  -0.679  -0.012  0.00  0.00    +0.002 A 
ATOM     35  C   UNL     1       0.002  -0.004   0.002  0.00  0.00    +0.000 A 
ENDBRANCH  20  33
ENDBRANCH  19  28
ENDBRANCH   1  19
TORSDOF 6
