REMARK  Name = ZINC45820179
REMARK  11 active torsions:
REMARK  status: ('A' for Active; 'I' for Inactive)
REMARK    1  A    between atoms: C_1  and  C_2
REMARK    2  A    between atoms: C_3  and  C_13
REMARK    3  A    between atoms: C_4  and  C_12
REMARK    4  A    between atoms: C_9  and  C_10
REMARK    5  A    between atoms: C_13  and  C_14
REMARK    6  A    between atoms: C_14  and  C_15
REMARK    7  A    between atoms: N_17  and  C_18
REMARK    8  A    between atoms: C_18  and  C_19
REMARK    9  A    between atoms: C_19  and  C_21
REMARK   10  A    between atoms: C_19  and  N_26
REMARK   11  A    between atoms: C_29  and  C_32
REMARK                            x       y       z     vdW  Elec       q    Type
REMARK                         _______ _______ _______ _____ _____    ______ ____
ROOT
ATOM      1  C   UNL     1      -4.224   1.483   1.280  0.00  0.00    +0.213 C 
ATOM      2  O   UNL     1      -4.889   1.669   0.283  0.00  0.00    -0.276 OA
ATOM      3  N   UNL     1      -4.737   1.764   2.495  0.00  0.00    -0.317 N 
ATOM      4  H   UNL     1      -4.205   1.615   3.292  0.00  0.00    +0.149 HD
ENDROOT
BRANCH   1   5
ATOM      5  C   UNL     1      -2.823   0.940   1.162  0.00  0.00    +0.100 C 
BRANCH   5   6
ATOM      6  C   UNL     1      -2.489   0.710  -0.314  0.00  0.00    +0.046 C 
BRANCH   6   9
ATOM      7  C   UNL     1      -0.216   2.530  -0.372  0.00  0.00    +0.045 C 
ATOM      8  C   UNL     1      -0.001   1.041  -0.460  0.00  0.00    -0.023 A 
ATOM      9  C   UNL     1      -1.088   0.166  -0.432  0.00  0.00    -0.024 A 
ATOM     10  C   UNL     1      -0.886  -1.173  -0.511  0.00  0.00    +0.019 A 
ATOM     11  N   UNL     1       0.362  -1.691  -0.618  0.00  0.00    -0.325 N 
ATOM     12  H   UNL     1       0.477  -2.652  -0.673  0.00  0.00    +0.169 HD
ATOM     13  C   UNL     1       1.445  -0.891  -0.650  0.00  0.00    +0.267 A 
ATOM     14  O   UNL     1       2.559  -1.375  -0.747  0.00  0.00    -0.266 OA
ATOM     15  C   UNL     1       1.284   0.517  -0.576  0.00  0.00    +0.119 A 
ATOM     16  C   UNL     1      -2.072  -2.103  -0.480  0.00  0.00    +0.063 C 
BRANCH  15  17
ATOM     17  C   UNL     1       2.423   1.384  -0.613  0.00  0.00    +0.105 C 
ATOM     18  N   UNL     1       3.327   2.071  -0.643  0.00  0.00    -0.191 NA
ENDBRANCH  15  17
ENDBRANCH   6   9
ENDBRANCH   5   6
ENDBRANCH   1   5
BRANCH   3  19
ATOM     19  C   UNL     1      -6.098   2.292   2.610  0.00  0.00    +0.094 C 
BRANCH  19  20
ATOM     20  C   UNL     1      -6.472   2.420   4.088  0.00  0.00    -0.013 C 
BRANCH  20  21
ATOM     21  N   UNL     1      -5.463   3.232   4.780  0.00  0.00    +0.386 N 
ATOM     22  C   UNL     1      -5.398   4.561   4.162  0.00  0.00    -0.078 C 
ATOM     23  C   UNL     1      -4.292   5.384   4.826  0.00  0.00    -0.015 C 
ATOM     24  C   UNL     1      -4.597   5.528   6.319  0.00  0.00    -0.018 C 
ATOM     25  C   UNL     1      -4.736   4.135   6.939  0.00  0.00    -0.015 C 
ATOM     26  C   UNL     1      -5.826   3.359   6.197  0.00  0.00    -0.078 C 
ATOM     27  C   UNL     1      -3.455   6.282   7.005  0.00  0.00    +0.007 C 
ATOM     28  H   UNL     1      -4.562   2.783   4.704  0.00  0.00    -0.081 HD
ENDBRANCH  20  21
BRANCH  20  29
ATOM     29  C   UNL     1      -6.529   1.049   4.712  0.00  0.00    -0.022 A 
ATOM     30  C   UNL     1      -7.610   0.275   4.973  0.00  0.00    +0.009 A 
ATOM     31  C   UNL     1      -7.422  -0.964   5.558  0.00  0.00    +0.008 A 
ATOM     32  C   UNL     1      -6.161  -1.367   5.852  0.00  0.00    +0.045 A 
ATOM     33  S   UNL     1      -5.189   0.022   5.292  0.00  0.00    -0.103 S 
ENDBRANCH  20  29
ENDBRANCH  19  20
ENDBRANCH   3  19
TORSDOF 8
