REMARK  Name = ZINC10868385
REMARK  11 active torsions:
REMARK  status: ('A' for Active; 'I' for Inactive)
REMARK    1  A    between atoms: C_1  and  C_2
REMARK    2  A    between atoms: C_3  and  C_30
REMARK    3  A    between atoms: N_4  and  C_24
REMARK    4  A    between atoms: C_5  and  S_7
REMARK    5  A    between atoms: S_7  and  C_8
REMARK    6  A    between atoms: C_8  and  C_9
REMARK    7  A    between atoms: N_11  and  C_12
REMARK    8  A    between atoms: N_11  and  C_16
REMARK    9  A    between atoms: C_12  and  C_13
REMARK   10  A    between atoms: C_13  and  C_14
REMARK   11  A    between atoms: C_13  and  C_15
REMARK                            x       y       z     vdW  Elec       q    Type
REMARK                         _______ _______ _______ _____ _____    ______ ____
ROOT
ATOM      1  S   UNL     1       0.026  -3.280   1.732  0.00  0.00    -0.080 S 
ENDROOT
BRANCH   1   6
ATOM      2  C   UNL     1       0.432   1.684   0.038  0.00  0.00    +0.065 C 
ATOM      3  C   UNL     1       0.314   0.182   0.008  0.00  0.00    +0.034 A 
ATOM      4  C   UNL     1       0.264  -0.581  -1.097  0.00  0.00    +0.037 A 
ATOM      5  N   UNL     1       0.157  -1.888  -0.678  0.00  0.00    -0.321 N 
ATOM      6  C   UNL     1       0.146  -1.870   0.683  0.00  0.00    +0.148 A 
ATOM      7  N   UNL     1       0.246  -0.623   1.082  0.00  0.00    -0.338 N 
ATOM      8  C   UNL     1       0.314  -0.098  -2.523  0.00  0.00    +0.065 C 
ATOM      9  H   UNL     1       0.266  -0.329   2.006  0.00  0.00    +0.168 HD
BRANCH   5  10
ATOM     10  C   UNL     1       0.071  -3.074  -1.534  0.00  0.00    +0.089 C 
ATOM     11  C   UNL     1      -1.242  -3.808  -1.257  0.00  0.00    +0.025 C 
ATOM     12  C   UNL     1      -1.332  -5.046  -2.152  0.00  0.00    +0.002 C 
ATOM     13  C   UNL     1      -0.154  -5.977  -1.854  0.00  0.00    +0.000 C 
ATOM     14  C   UNL     1       1.159  -5.242  -2.131  0.00  0.00    +0.002 C 
ATOM     15  C   UNL     1       1.249  -4.004  -1.236  0.00  0.00    +0.025 C 
ENDBRANCH   5  10
ENDBRANCH   1   6
BRANCH   1  16
ATOM     16  C   UNL     1       0.066  -2.586   3.408  0.00  0.00    +0.173 C 
BRANCH  16  17
ATOM     17  C   UNL     1      -0.030  -3.702   4.416  0.00  0.00    +0.226 C 
ATOM     18  O   UNL     1      -0.204  -4.843   4.043  0.00  0.00    -0.275 OA
ATOM     19  N   UNL     1       0.076  -3.432   5.732  0.00  0.00    -0.296 N 
BRANCH  19  20
ATOM     20  C   UNL     1       0.095  -4.526   6.706  0.00  0.00    +0.098 C 
ATOM     21  C   UNL     1       1.190  -5.538   6.329  0.00  0.00    +0.046 C 
ATOM     22  C   UNL     1       1.011  -6.839   7.147  0.00  0.00    +0.168 C 
ATOM     23  S   UNL     1      -0.799  -6.867   7.470  0.00  0.00    -0.029 S 
ATOM     24  O   UNL     1      -1.021  -6.782   8.871  0.00  0.00    -0.174 OA
ATOM     25  O   UNL     1      -1.384  -7.932   6.732  0.00  0.00    -0.174 OA
ATOM     26  C   UNL     1      -1.273  -5.266   6.690  0.00  0.00    +0.188 C 
ENDBRANCH  19  20
BRANCH  19  27
ATOM     27  C   UNL     1       0.174  -2.043   6.189  0.00  0.00    +0.111 C 
BRANCH  27  28
ATOM     28  C   UNL     1       1.631  -1.583   6.115  0.00  0.00    +0.000 C 
ATOM     29  C   UNL     1       1.712  -0.089   6.438  0.00  0.00    +0.009 C 
ATOM     30  C   UNL     1       2.467  -2.369   7.127  0.00  0.00    +0.009 C 
ENDBRANCH  27  28
ENDBRANCH  19  27
ENDBRANCH  16  17
ENDBRANCH   1  16
TORSDOF 7
