REMARK  Name = ZINC66321582
REMARK  5 active torsions:
REMARK  status: ('A' for Active; 'I' for Inactive)
REMARK    1  A    between atoms: C_1  and  N_2
REMARK    2  A    between atoms: N_2  and  C_17
REMARK    3  A    between atoms: C_3  and  C_5
REMARK    4  A    between atoms: C_8  and  C_11
REMARK    5  A    between atoms: C_17  and  C_21
REMARK                            x       y       z     vdW  Elec       q    Type
REMARK                         _______ _______ _______ _____ _____    ______ ____
ROOT
ATOM      1  C   UNL     1       0.025   0.062   2.475  0.00  0.00    +0.295 C 
ATOM      2  C   UNL     1      -1.324   0.787   2.701  0.00  0.00    +0.117 C 
ATOM      3  C   UNL     1      -2.107  -0.222   3.519  0.00  0.00    +0.098 C 
ATOM      4  N   UNL     1      -1.277  -1.103   3.978  0.00  0.00    -0.088 NA
ATOM      5  O   UNL     1       0.060  -0.852   3.589  0.00  0.00    -0.380 OA
ENDROOT
BRANCH   3   6
ATOM      6  C   UNL     1      -3.555  -0.202   3.751  0.00  0.00    +0.038 A 
ATOM      7  C   UNL     1      -4.333  -1.079   4.486  0.00  0.00    +0.019 A 
ATOM      8  C   UNL     1      -5.686  -0.850   4.559  0.00  0.00    +0.028 A 
ATOM      9  C   UNL     1      -6.215   0.224   3.911  0.00  0.00    +0.079 A 
ATOM     10  S   UNL     1      -4.773   0.965   3.165  0.00  0.00    -0.075 S 
ATOM     11 CL   UNL     1      -7.870   0.743   3.834  0.00  0.00    -0.076 Cl
ENDBRANCH   3   6
BRANCH   1  14
ATOM     12  C   UNL     1      -0.018   1.461   0.010  0.00  0.00    +0.133 C 
ATOM     13  N   UNL     1       0.002  -0.004   0.002  0.00  0.00    -0.283 N 
ATOM     14  C   UNL     1       0.022  -0.684   1.165  0.00  0.00    +0.260 C 
ATOM     15  O   UNL     1       0.039  -1.897   1.159  0.00  0.00    -0.271 OA
BRANCH  13  16
ATOM     16  C   UNL     1      -0.000  -0.730  -1.271  0.00  0.00    +0.124 C 
ATOM     17  C   UNL     1       1.399  -1.175  -1.728  0.00  0.00    +0.041 C 
ATOM     18  C   UNL     1       0.971  -0.787  -3.153  0.00  0.00    +0.006 C 
ATOM     19  C   UNL     1      -0.024   0.189  -2.504  0.00  0.00    +0.041 C 
BRANCH  16  20
ATOM     20  C   UNL     1      -1.007  -1.803  -1.315  0.00  0.00    +0.089 C 
ATOM     21  N   UNL     1      -1.784  -2.631  -1.349  0.00  0.00    -0.194 NA
ENDBRANCH  16  20
ENDBRANCH  13  16
ENDBRANCH   1  14
TORSDOF 4
