REMARK  Name = ZINC63488818
REMARK  3 active torsions:
REMARK  status: ('A' for Active; 'I' for Inactive)
REMARK    1  A    between atoms: C_1  and  C_2
REMARK    2  A    between atoms: C_5  and  C_8
REMARK    3  A    between atoms: C_10  and  C_14
REMARK                            x       y       z     vdW  Elec       q    Type
REMARK                         _______ _______ _______ _____ _____    ______ ____
ROOT
ATOM      1  C   UNL     1       0.061  -4.256  -0.021  0.00  0.00    +0.092 C 
ATOM      2  C   UNL     1       0.071  -5.030   1.081  0.00  0.00    +0.040 C 
ATOM      3  C   UNL     1       0.090  -6.445   0.530  0.00  0.00    +0.238 C 
ATOM      4  N   UNL     1       0.087  -6.239  -0.927  0.00  0.00    -0.170 NA
ATOM      5  N   UNL     1       0.065  -5.025  -1.142  0.00  0.00    -0.153 NA
ENDROOT
BRANCH   3   6
ATOM      6  C   UNL     1      -1.137  -7.203   0.967  0.00  0.00    +0.246 C 
ATOM      7  O   UNL     1      -2.072  -7.332   0.205  0.00  0.00    -0.273 OA
ATOM      8  N   UNL     1      -1.196  -7.736   2.203  0.00  0.00    -0.299 N 
ATOM      9  C   UNL     1      -0.074  -7.582   3.139  0.00  0.00    +0.113 C 
ATOM     10  C   UNL     1       0.345  -8.969   3.638  0.00  0.00    +0.084 C 
ATOM     11  C   UNL     1      -0.872  -9.686   4.223  0.00  0.00    +0.173 C 
ATOM     12  C   UNL     1      -1.943  -9.860   3.145  0.00  0.00    +0.084 C 
ATOM     13  C   UNL     1      -2.386  -8.477   2.643  0.00  0.00    +0.113 C 
ATOM     14  O   UNL     1      -1.404  -8.921   5.312  0.00  0.00    -0.346 OA
ATOM     15  C   UNL     1      -1.321  -9.743   6.494  0.00  0.00    +0.191 C 
ATOM     16  C   UNL     1      -0.227 -10.776   6.126  0.00  0.00    +0.191 C 
ATOM     17  O   UNL     1      -0.475 -10.977   4.713  0.00  0.00    -0.346 OA
ENDBRANCH   3   6
BRANCH   1  22
ATOM     18  C   UNL     1      -0.018   1.503   0.010  0.00  0.00    +0.044 C 
ATOM     19  C   UNL     1       0.002  -0.004   0.002  0.00  0.00    -0.050 A 
ATOM     20  C   UNL     1       0.006  -0.686  -1.201  0.00  0.00    +0.004 A 
ATOM     21  C   UNL     1       0.025  -2.066  -1.215  0.00  0.00    +0.010 A 
ATOM     22  C   UNL     1       0.041  -2.772  -0.013  0.00  0.00    +0.002 A 
ATOM     23  C   UNL     1       0.037  -2.080   1.196  0.00  0.00    +0.010 A 
ATOM     24  C   UNL     1       0.023  -0.700   1.198  0.00  0.00    +0.004 A 
ENDBRANCH   1  22
TORSDOF 2
