REMARK  Name = ZINC20369743
REMARK  2 active torsions:
REMARK  status: ('A' for Active; 'I' for Inactive)
REMARK    1  A    between atoms: C_1  and  C_2
REMARK    2  A    between atoms: C_15  and  C_17
REMARK                            x       y       z     vdW  Elec       q    Type
REMARK                         _______ _______ _______ _____ _____    ______ ____
ROOT
ATOM      1  C   UNL     1      -0.019   1.526   0.010  0.00  0.00    +0.008 C 
ATOM      2  C   UNL     1       0.002  -0.004   0.002  0.00  0.00    -0.009 C 
ATOM      3  C   UNL     1       0.725  -0.501  -1.253  0.00  0.00    +0.008 C 
ATOM      4  C   UNL     1       0.535  -2.011  -1.398  0.00  0.00    +0.037 C 
ATOM      5  C   UNL     1       0.948  -2.689  -0.094  0.00  0.00    -0.023 A 
ATOM      6  C   UNL     1       1.031  -1.976   1.055  0.00  0.00    -0.004 A 
ATOM      7  S   UNL     1       1.535  -3.146   2.292  0.00  0.00    -0.073 S 
ATOM      8  C   UNL     1       1.634  -4.582   1.270  0.00  0.00    +0.116 A 
ATOM      9  C   UNL     1       1.269  -4.101  -0.009  0.00  0.00    +0.075 A 
ATOM     10  C   UNL     1       1.253  -5.051  -1.086  0.00  0.00    +0.260 A 
ATOM     11  O   UNL     1       0.952  -4.735  -2.224  0.00  0.00    -0.267 OA
ATOM     12  N   UNL     1       1.593  -6.320  -0.758  0.00  0.00    -0.306 N 
ATOM     13  H   UNL     1       1.595  -6.994  -1.456  0.00  0.00    +0.170 HD
ATOM     14  C   UNL     1       1.933  -6.693   0.509  0.00  0.00    +0.142 A 
ATOM     15  N   UNL     1       1.958  -5.842   1.523  0.00  0.00    -0.222 NA
ATOM     16  C   UNL     1       0.751  -0.516   1.241  0.00  0.00    +0.046 C 
ENDROOT
BRANCH  14  17
ATOM     17  C   UNL     1       2.288  -8.106   0.761  0.00  0.00    +0.020 A 
ATOM     18  C   UNL     1       2.284  -9.045  -0.277  0.00  0.00    +0.031 A 
ATOM     19  C   UNL     1       2.623 -10.353   0.002  0.00  0.00    +0.111 A 
ATOM     20  N   UNL     1       2.946 -10.722   1.226  0.00  0.00    -0.263 NA
ATOM     21  C   UNL     1       2.963  -9.870   2.233  0.00  0.00    +0.111 A 
ATOM     22  C   UNL     1       2.644  -8.541   2.043  0.00  0.00    +0.031 A 
ENDBRANCH  14  17
TORSDOF 1
