REMARK  Name = ZINC39590306
REMARK  3 active torsions:
REMARK  status: ('A' for Active; 'I' for Inactive)
REMARK    1  A    between atoms: C_7  and  C_9
REMARK    2  A    between atoms: C_12  and  N_16
REMARK    3  A    between atoms: C_17  and  C_19
REMARK                            x       y       z     vdW  Elec       q    Type
REMARK                         _______ _______ _______ _____ _____    ______ ____
ROOT
ATOM      1  C   UNL     1       3.031  -2.044   1.643  0.00  0.00    +0.086 C 
ATOM      2  C   UNL     1       4.130  -2.790   1.876  0.00  0.00    +0.021 C 
ATOM      3  N   UNL     1       5.343  -2.225   2.051  0.00  0.00    -0.320 N 
ATOM      4  C   UNL     1       6.344  -3.010   2.807  0.00  0.00    +0.219 C 
ATOM      5  S   UNL     1       5.801  -4.725   2.396  0.00  0.00    -0.114 S 
ATOM      6  C   UNL     1       4.060  -4.306   1.960  0.00  0.00    +0.123 C 
ATOM      7  H   UNL     1       5.550  -1.345   1.697  0.00  0.00    +0.148 HD
ENDROOT
BRANCH   1  14
ATOM      8  C   UNL     1      -0.185   1.644   2.193  0.00  0.00    +0.003 C 
ATOM      9  C   UNL     1      -0.179   0.123   2.365  0.00  0.00    +0.019 C 
ATOM     10  C   UNL     1       0.712  -0.505   1.289  0.00  0.00    +0.108 C 
ATOM     11  N   UNL     1       2.042   0.115   1.355  0.00  0.00    -0.298 N 
ATOM     12  C   UNL     1       2.143   1.580   1.290  0.00  0.00    +0.108 C 
ATOM     13  C   UNL     1       1.236   2.184   2.367  0.00  0.00    +0.019 C 
ATOM     14  C   UNL     1       3.149  -0.645   1.473  0.00  0.00    +0.241 C 
ATOM     15  O   UNL     1       4.250  -0.127   1.433  0.00  0.00    -0.271 OA
ENDBRANCH   1  14
BRANCH   4  16
ATOM     16  N   UNL     1       6.243  -2.751   4.246  0.00  0.00    -0.284 N 
ATOM     17  C   UNL     1       7.243  -3.125   5.069  0.00  0.00    +0.247 C 
ATOM     18  O   UNL     1       8.228  -3.676   4.618  0.00  0.00    -0.270 OA
ATOM     19  H   UNL     1       5.458  -2.311   4.606  0.00  0.00    +0.152 HD
BRANCH  17  20
ATOM     20  C   UNL     1       7.142  -2.864   6.521  0.00  0.00    +0.049 C 
ATOM     21  C   UNL     1       8.153  -3.237   7.347  0.00  0.00    -0.003 C 
ATOM     22  C   UNL     1       7.989  -2.941   8.825  0.00  0.00    +0.126 C 
ATOM     23  C   UNL     1       6.710  -2.255   9.254  0.00  0.00    +0.240 C 
ATOM     24  O   UNL     1       6.517  -1.990  10.423  0.00  0.00    -0.273 OA
ATOM     25  N   UNL     1       5.796  -1.944   8.328  0.00  0.00    -0.188 NA
ATOM     26  C   UNL     1       5.957  -2.201   7.060  0.00  0.00    +0.113 C 
ENDBRANCH  17  20
ENDBRANCH   4  16
TORSDOF 3
