REMARK  Name = ZINC39760074
REMARK  10 active torsions:
REMARK  status: ('A' for Active; 'I' for Inactive)
REMARK    1  A    between atoms: C_1  and  C_2
REMARK    2  A    between atoms: C_2  and  C_4
REMARK    3  A    between atoms: C_2  and  N_25
REMARK    4  A    between atoms: C_7  and  S_10
REMARK    5  A    between atoms: N_8  and  C_9
REMARK    6  A    between atoms: S_10  and  C_11
REMARK    7  A    between atoms: C_11  and  C_13
REMARK    8  A    between atoms: C_11  and  C_14
REMARK    9  A    between atoms: N_16  and  C_17
REMARK   10  A    between atoms: C_26  and  C_28
REMARK                            x       y       z     vdW  Elec       q    Type
REMARK                         _______ _______ _______ _____ _____    ______ ____
ROOT
ATOM      1  C   UNL     1      -1.424  -0.477   0.047  0.00  0.00    +0.154 A 
ATOM      2  N   UNL     1      -2.246  -0.492  -0.964  0.00  0.00    -0.132 NA
ATOM      3  N   UNL     1      -3.366  -1.016  -0.614  0.00  0.00    -0.122 NA
ATOM      4  C   UNL     1      -3.319  -1.367   0.650  0.00  0.00    +0.192 A 
ATOM      5  N   UNL     1      -2.076  -1.039   1.110  0.00  0.00    -0.308 N 
ATOM      6  C   UNL     1      -1.550  -1.244   2.462  0.00  0.00    +0.152 C 
ENDROOT
BRANCH   1   8
ATOM      7  C   UNL     1      -0.045   1.583   0.057  0.00  0.00    +0.036 C 
ATOM      8  C   UNL     1      -0.014   0.053   0.043  0.00  0.00    +0.138 C 
BRANCH   8   9
ATOM      9  N   UNL     1       0.680  -0.410  -1.161  0.00  0.00    -0.302 N 
ATOM     10  C   UNL     1       2.024  -0.512  -1.168  0.00  0.00    +0.245 C 
ATOM     11  O   UNL     1       2.660  -0.218  -0.175  0.00  0.00    -0.270 OA
ATOM     12  H   UNL     1       0.172  -0.644  -1.953  0.00  0.00    +0.150 HD
BRANCH  10  13
ATOM     13  C   UNL     1       2.723  -0.979  -2.383  0.00  0.00    +0.037 A 
ATOM     14  C   UNL     1       1.995  -1.311  -3.527  0.00  0.00    +0.014 A 
ATOM     15  C   UNL     1       2.653  -1.747  -4.657  0.00  0.00    +0.021 A 
ATOM     16  C   UNL     1       4.034  -1.855  -4.660  0.00  0.00    +0.041 A 
ATOM     17  C   UNL     1       4.762  -1.528  -3.528  0.00  0.00    +0.021 A 
ATOM     18  C   UNL     1       4.115  -1.086  -2.393  0.00  0.00    +0.014 A 
ATOM     19 CL   UNL     1       4.856  -2.405  -6.087  0.00  0.00    -0.084 Cl
ENDBRANCH  10  13
ENDBRANCH   8   9
ENDBRANCH   1   8
BRANCH   4  20
ATOM     20  S   UNL     1      -4.612  -2.125   1.576  0.00  0.00    -0.074 S 
BRANCH  20  21
ATOM     21  C   UNL     1      -5.969  -2.287   0.383  0.00  0.00    +0.137 C 
ATOM     22  C   UNL     1      -5.559  -3.257  -0.727  0.00  0.00    +0.029 C 
BRANCH  21  23
ATOM     23  C   UNL     1      -7.194  -2.816   1.084  0.00  0.00    +0.230 C 
ATOM     24  O   UNL     1      -7.083  -3.394   2.145  0.00  0.00    -0.274 OA
ATOM     25  N   UNL     1      -8.412  -2.647   0.532  0.00  0.00    -0.282 N 
ATOM     26  H   UNL     1      -8.508  -2.130  -0.282  0.00  0.00    +0.155 HD
BRANCH  25  27
ATOM     27  C   UNL     1      -9.540  -3.219   1.136  0.00  0.00    +0.069 A 
ATOM     28  C   UNL     1      -9.617  -3.312   2.519  0.00  0.00    +0.029 A 
ATOM     29  C   UNL     1     -10.729  -3.876   3.112  0.00  0.00    +0.040 A 
ATOM     30  C   UNL     1     -11.769  -4.349   2.329  0.00  0.00    +0.126 A 
ATOM     31  C   UNL     1     -11.696  -4.259   0.949  0.00  0.00    +0.078 A 
ATOM     32  C   UNL     1     -10.587  -3.689   0.351  0.00  0.00    +0.147 A 
ATOM     33  F   UNL     1     -10.518  -3.595  -0.995  0.00  0.00    -0.203 F 
ATOM     34  F   UNL     1     -12.856  -4.901   2.912  0.00  0.00    -0.205 F 
ENDBRANCH  25  27
ENDBRANCH  21  23
ENDBRANCH  20  21
ENDBRANCH   4  20
TORSDOF 7
