REMARK  Name = ZINC38806846
REMARK  5 active torsions:
REMARK  status: ('A' for Active; 'I' for Inactive)
REMARK    1  A    between atoms: C_1  and  C_2
REMARK    2  A    between atoms: C_10  and  S_14
REMARK    3  A    between atoms: S_14  and  C_15
REMARK    4  A    between atoms: C_15  and  C_16
REMARK    5  A    between atoms: C_22  and  C_25
REMARK                            x       y       z     vdW  Elec       q    Type
REMARK                         _______ _______ _______ _____ _____    ______ ____
ROOT
ATOM      1  C   UNL     1      -0.019   1.526   0.010  0.00  0.00    +0.007 C 
ATOM      2  C   UNL     1       0.002  -0.004   0.002  0.00  0.00    -0.012 C 
ATOM      3  C   UNL     1       0.702  -0.489  -1.265  0.00  0.00    +0.008 C 
ATOM      4  C   UNL     1       2.123   0.085  -1.344  0.00  0.00    +0.033 C 
ATOM      5  C   UNL     1       2.809  -0.264  -0.025  0.00  0.00    -0.042 C 
ATOM      6  C   UNL     1       3.967  -0.912   0.081  0.00  0.00    +0.071 C 
ATOM      7  C   UNL     1       4.410  -1.346   1.435  0.00  0.00    +0.112 C 
ATOM      8  N   UNL     1       5.511  -2.025   1.629  0.00  0.00    -0.217 NA
ATOM      9  C   UNL     1       6.254  -2.329   0.553  0.00  0.00    +0.182 C 
ATOM     10  N   UNL     1       5.960  -1.999  -0.690  0.00  0.00    -0.151 NA
ATOM     11  C   UNL     1       4.869  -1.309  -1.053  0.00  0.00    +0.272 C 
ATOM     12  O   UNL     1       4.628  -1.025  -2.214  0.00  0.00    -0.268 OA
ATOM     13  S   UNL     1       3.169  -0.735   2.531  0.00  0.00    -0.097 S 
ATOM     14  C   UNL     1       2.124   0.119   1.288  0.00  0.00    +0.080 C 
ATOM     15  C   UNL     1       0.729  -0.504   1.254  0.00  0.00    +0.022 C 
ENDROOT
BRANCH   9  16
ATOM     16  S   UNL     1       7.738  -3.240   0.821  0.00  0.00    -0.079 S 
BRANCH  16  17
ATOM     17  C   UNL     1       8.436  -3.442  -0.841  0.00  0.00    +0.173 C 
BRANCH  17  18
ATOM     18  C   UNL     1       9.726  -4.216  -0.753  0.00  0.00    +0.226 C 
ATOM     19  O   UNL     1      10.135  -4.593   0.324  0.00  0.00    -0.275 OA
ATOM     20  N   UNL     1      10.426  -4.488  -1.873  0.00  0.00    -0.301 N 
ATOM     21  C   UNL     1       9.946  -4.032  -3.185  0.00  0.00    +0.108 C 
ATOM     22  C   UNL     1      11.065  -3.243  -3.872  0.00  0.00    +0.019 C 
ATOM     23  C   UNL     1      12.330  -4.103  -3.929  0.00  0.00    +0.006 C 
ATOM     24  C   UNL     1      12.782  -4.443  -2.506  0.00  0.00    +0.003 C 
ATOM     25  C   UNL     1      11.686  -5.241  -1.803  0.00  0.00    +0.111 C 
ATOM     26  C   UNL     1      14.065  -5.274  -2.564  0.00  0.00    +0.009 C 
ENDBRANCH  17  18
ENDBRANCH  16  17
ENDBRANCH   9  16
TORSDOF 3
