REMARK  Name = ZINC56552543
REMARK  2 active torsions:
REMARK  status: ('A' for Active; 'I' for Inactive)
REMARK    1  A    between atoms: N_9  and  C_13
REMARK    2  A    between atoms: C_13  and  N_14
REMARK                            x       y       z     vdW  Elec       q    Type
REMARK                         _______ _______ _______ _____ _____    ______ ____
ROOT
ATOM      1  C   UNL     1      -0.019   1.526   0.010  0.00  0.00    +0.000 C 
ATOM      2  C   UNL     1       1.416   2.058  -0.000  0.00  0.00    +0.003 C 
ATOM      3  C   UNL     1       2.129   1.573  -1.265  0.00  0.00    +0.035 C 
ATOM      4  C   UNL     1       2.134   0.048  -1.295  0.00  0.00    +0.113 C 
ATOM      5  C   UNL     1       0.710  -0.496  -1.263  0.00  0.00    +0.035 C 
ATOM      6  C   UNL     1       0.002  -0.004   0.002  0.00  0.00    +0.003 C 
ATOM      7  C   UNL     1       2.864  -0.454  -2.519  0.00  0.00    +0.248 C 
ATOM      8  O   UNL     1       2.574  -0.256  -3.679  0.00  0.00    -0.273 OA
ATOM      9  N   UNL     1       3.907  -1.169  -2.049  0.00  0.00    -0.211 N 
ATOM     10  C   UNL     1       3.931  -1.183  -0.710  0.00  0.00    +0.310 C 
ATOM     11  O   UNL     1       4.776  -1.762  -0.056  0.00  0.00    -0.252 OA
ATOM     12  N   UNL     1       2.914  -0.485  -0.171  0.00  0.00    -0.285 N 
ATOM     13  H   UNL     1       2.732  -0.359   0.774  0.00  0.00    +0.151 HD
ENDROOT
BRANCH   9  14
ATOM     14  C   UNL     1       4.891  -1.845  -2.897  0.00  0.00    +0.205 C 
BRANCH  14  15
ATOM     15  N   UNL     1       6.003  -0.929  -3.183  0.00  0.00    -0.286 NA
ATOM     16  C   UNL     1       5.657  -0.003  -4.269  0.00  0.00    +0.086 C 
ATOM     17  C   UNL     1       6.777   1.026  -4.441  0.00  0.00    +0.015 C 
ATOM     18  C   UNL     1       8.086   0.299  -4.763  0.00  0.00    +0.002 C 
ATOM     19  C   UNL     1       8.399  -0.694  -3.640  0.00  0.00    +0.015 C 
ATOM     20  C   UNL     1       7.231  -1.673  -3.491  0.00  0.00    +0.086 C 
ENDBRANCH  14  15
ENDBRANCH   9  14
TORSDOF 2
