REMARK  Name = ZINC60017251
REMARK  6 active torsions:
REMARK  status: ('A' for Active; 'I' for Inactive)
REMARK    1  A    between atoms: C_1  and  C_2
REMARK    2  A    between atoms: C_2  and  C_3
REMARK    3  A    between atoms: C_3  and  C_11
REMARK    4  A    between atoms: C_14  and  N_17
REMARK    5  A    between atoms: C_18  and  C_20
REMARK    6  A    between atoms: C_26  and  C_28
REMARK                            x       y       z     vdW  Elec       q    Type
REMARK                         _______ _______ _______ _____ _____    ______ ____
ROOT
ATOM      1  C   UNL     1       2.264  -0.064  -1.350  0.00  0.00    -0.032 A 
ATOM      2  C   UNL     1       2.554   1.131  -1.983  0.00  0.00    +0.006 A 
ATOM      3  C   UNL     1       3.863   1.560  -2.088  0.00  0.00    +0.023 A 
ATOM      4  C   UNL     1       4.888   0.789  -1.557  0.00  0.00    +0.033 A 
ATOM      5  C   UNL     1       4.594  -0.410  -0.922  0.00  0.00    +0.023 A 
ATOM      6  C   UNL     1       3.283  -0.831  -0.816  0.00  0.00    +0.006 A 
ENDROOT
BRANCH   1   7
ATOM      7  C   UNL     1       0.835  -0.527  -1.237  0.00  0.00    +0.072 C 
ATOM      8  C   UNL     1      -0.077   0.424  -2.018  0.00  0.00    +0.030 C 
ATOM      9  C   UNL     1      -1.532  -0.003  -1.797  0.00  0.00    +0.097 C 
ATOM     10  C   UNL     1      -1.818  -0.036  -0.319  0.00  0.00    +0.219 C 
ATOM     11  O   UNL     1      -2.945   0.177   0.074  0.00  0.00    -0.275 OA
ATOM     12  N   UNL     1      -0.850  -0.298   0.572  0.00  0.00    -0.256 N 
ATOM     13  C   UNL     1       0.420  -0.533   0.210  0.00  0.00    +0.230 C 
ATOM     14  O   UNL     1       1.251  -0.753   1.066  0.00  0.00    -0.274 OA
ATOM     15  H   UNL     1      -1.077  -0.318   1.515  0.00  0.00    +0.157 HD
BRANCH   7  17
ATOM     16  C   UNL     1       1.200  -1.949  -3.259  0.00  0.00    +0.005 C 
ATOM     17  C   UNL     1       0.709  -1.941  -1.810  0.00  0.00    +0.017 C 
ENDBRANCH   7  17
ENDBRANCH   1   7
BRANCH   4  18
ATOM     18  N   UNL     1       6.216   1.219  -1.662  0.00  0.00    -0.284 N 
ATOM     19  C   UNL     1       6.502   2.536  -1.629  0.00  0.00    +0.238 C 
ATOM     20  O   UNL     1       5.621   3.343  -1.416  0.00  0.00    -0.273 OA
ATOM     21  H   UNL     1       6.930   0.570  -1.759  0.00  0.00    +0.155 HD
BRANCH  19  22
ATOM     22  C   UNL     1       7.915   3.006  -1.859  0.00  0.00    +0.162 C 
ATOM     23  C   UNL     1       8.381   2.599  -3.272  0.00  0.00    +0.033 C 
ATOM     24  C   UNL     1       8.135   3.887  -4.103  0.00  0.00    +0.021 C 
ATOM     25  C   UNL     1       8.473   4.992  -3.072  0.00  0.00    +0.108 C 
ATOM     26  N   UNL     1       7.972   4.473  -1.782  0.00  0.00    -0.290 N 
ATOM     27  C   UNL     1       7.625   5.218  -0.714  0.00  0.00    +0.219 C 
ATOM     28  O   UNL     1       7.224   4.680   0.296  0.00  0.00    -0.275 OA
BRANCH  27  29
ATOM     29  C   UNL     1       7.735   6.720  -0.774  0.00  0.00    +0.075 C 
ATOM     30  C   UNL     1       9.188   7.114  -1.043  0.00  0.00    +0.013 C 
ATOM     31  C   UNL     1       9.300   8.639  -1.105  0.00  0.00    +0.001 C 
ATOM     32  C   UNL     1       8.847   9.238   0.228  0.00  0.00    +0.000 C 
ATOM     33  C   UNL     1       7.393   8.844   0.497  0.00  0.00    +0.001 C 
ATOM     34  C   UNL     1       7.282   7.319   0.559  0.00  0.00    +0.013 C 
ENDBRANCH  27  29
ENDBRANCH  19  22
ENDBRANCH   4  18
TORSDOF 5
