REMARK  Name = ZINC38872980
REMARK  7 active torsions:
REMARK  status: ('A' for Active; 'I' for Inactive)
REMARK    1  A    between atoms: C_1  and  C_2
REMARK    2  A    between atoms: C_2  and  C_4
REMARK    3  A    between atoms: C_2  and  N_11
REMARK    4  A    between atoms: C_12  and  C_14
REMARK    5  A    between atoms: N_17  and  C_20
REMARK    6  A    between atoms: C_20  and  C_21
REMARK    7  A    between atoms: C_23  and  C_26
REMARK                            x       y       z     vdW  Elec       q    Type
REMARK                         _______ _______ _______ _____ _____    ______ ____
ROOT
ATOM      1  C   UNL     1       0.712  -1.094  -3.598  0.00  0.00    +0.071 C 
ATOM      2  C   UNL     1       1.844  -0.127  -3.955  0.00  0.00    -0.006 C 
ATOM      3  C   UNL     1       2.505  -0.583  -5.258  0.00  0.00    -0.077 C 
ATOM      4  N   UNL     1       1.510  -0.593  -6.338  0.00  0.00    +0.386 N 
ATOM      5  C   UNL     1       0.458  -1.571  -6.036  0.00  0.00    -0.077 C 
ATOM      6  C   UNL     1      -0.282  -1.153  -4.763  0.00  0.00    -0.006 C 
ATOM      7  H   UNL     1       1.100   0.325  -6.425  0.00  0.00    -0.081 HD
ENDROOT
BRANCH   1   9
ATOM      8  N   UNL     1       0.688  -0.476  -1.203  0.00  0.00    -0.309 N 
ATOM      9  C   UNL     1       0.006  -0.608  -2.358  0.00  0.00    +0.216 C 
ATOM     10  O   UNL     1      -1.175  -0.336  -2.400  0.00  0.00    -0.276 OA
ATOM     11  H   UNL     1       1.632  -0.695  -1.170  0.00  0.00    +0.149 HD
BRANCH   8  13
ATOM     12  C   UNL     1      -0.019   1.526   0.010  0.00  0.00    +0.033 C 
ATOM     13  C   UNL     1       0.002  -0.004   0.002  0.00  0.00    +0.100 C 
BRANCH  13  14
ATOM     14  C   UNL     1       0.731  -0.503   1.223  0.00  0.00    -0.027 A 
ATOM     15  C   UNL     1       2.113  -0.513   1.246  0.00  0.00    +0.008 A 
ATOM     16  C   UNL     1       2.783  -0.971   2.365  0.00  0.00    +0.038 A 
ATOM     17  C   UNL     1       2.068  -1.419   3.464  0.00  0.00    +0.123 A 
ATOM     18  C   UNL     1       0.684  -1.408   3.439  0.00  0.00    +0.038 A 
ATOM     19  C   UNL     1       0.017  -0.945   2.321  0.00  0.00    +0.008 A 
ATOM     20  F   UNL     1       2.722  -1.866   4.558  0.00  0.00    -0.205 F 
ENDBRANCH  13  14
ENDBRANCH   8  13
ENDBRANCH   1   9
BRANCH   4  21
ATOM     21  C   UNL     1       2.165  -0.956  -7.602  0.00  0.00    +0.022 C 
BRANCH  21  22
ATOM     22  C   UNL     1       1.173  -0.848  -8.731  0.00  0.00    +0.211 A 
ATOM     23  N   UNL     1       0.952   0.215  -9.450  0.00  0.00    -0.192 NA
ATOM     24  C   UNL     1       0.002  -0.040 -10.370  0.00  0.00    +0.209 A 
ATOM     25  N   UNL     1      -0.389  -1.286 -10.233  0.00  0.00    -0.056 NA
ATOM     26  O   UNL     1       0.374  -1.830  -9.166  0.00  0.00    -0.340 OA
BRANCH  24  27
ATOM     27  C   UNL     1      -0.514   0.922 -11.365  0.00  0.00    +0.060 A 
ATOM     28  C   UNL     1      -1.477   0.740 -12.322  0.00  0.00    +0.019 A 
ATOM     29  C   UNL     1      -1.798   1.794 -13.148  0.00  0.00    +0.008 A 
ATOM     30  C   UNL     1      -1.153   2.979 -12.989  0.00  0.00    +0.046 A 
ATOM     31  S   UNL     1      -0.051   2.626 -11.629  0.00  0.00    -0.093 S 
ENDBRANCH  24  27
ENDBRANCH  21  22
ENDBRANCH   4  21
TORSDOF 6
