REMARK  Name = ZINC13037976
REMARK  7 active torsions:
REMARK  status: ('A' for Active; 'I' for Inactive)
REMARK    1  A    between atoms: C_1  and  N_2
REMARK    2  A    between atoms: N_2  and  C_3
REMARK    3  A    between atoms: N_2  and  S_4
REMARK    4  A    between atoms: S_4  and  C_7
REMARK    5  A    between atoms: C_9  and  N_14
REMARK    6  A    between atoms: C_15  and  C_17
REMARK    7  A    between atoms: C_26  and  O_29
REMARK                            x       y       z     vdW  Elec       q    Type
REMARK                         _______ _______ _______ _____ _____    ______ ____
ROOT
ATOM      1  N   UNL     1       0.075   1.491   0.217  0.00  0.00    -0.285 N 
ATOM      2  C   UNL     1       1.248   2.151   0.141  0.00  0.00    +0.223 C 
ATOM      3  O   UNL     1       2.268   1.547  -0.114  0.00  0.00    -0.275 OA
ATOM      4  H   UNL     1      -0.861   2.049   0.365  0.00  0.00    +0.155 HD
ENDROOT
BRANCH   2   5
ATOM      5  C   UNL     1       1.292   3.639   0.375  0.00  0.00    +0.050 C 
ATOM      6  C   UNL     1       0.405   4.343  -0.654  0.00  0.00    +0.020 C 
ATOM      7  C   UNL     1       0.449   5.854  -0.417  0.00  0.00    -0.007 C 
ATOM      8  C   UNL     1      -0.060   6.164   0.992  0.00  0.00    +0.007 C 
ATOM      9  C   UNL     1       0.827   5.460   2.021  0.00  0.00    -0.007 C 
ATOM     10  C   UNL     1       0.782   3.949   1.784  0.00  0.00    +0.020 C 
ATOM     11  C   UNL     1       2.267   5.957   1.879  0.00  0.00    +0.038 C 
ATOM     12  C   UNL     1       2.776   5.646   0.469  0.00  0.00    +0.068 C 
ATOM     13  C   UNL     1       1.889   6.351  -0.560  0.00  0.00    +0.038 C 
ATOM     14  C   UNL     1       2.732   4.136   0.232  0.00  0.00    +0.051 C 
BRANCH  12  15
ATOM     15  O   UNL     1       4.121   6.110   0.336  0.00  0.00    -0.389 OA
ATOM     16  H   UNL     1       4.658   5.975  -0.615  0.00  0.00    +0.210 HD
ENDBRANCH  12  15
ENDBRANCH   2   5
BRANCH   1  19
ATOM     17  C   UNL     1       1.075  -2.037   0.487  0.00  0.00    +0.125 A 
ATOM     18  C   UNL     1       1.103  -0.661   0.598  0.00  0.00    +0.053 A 
ATOM     19  C   UNL     1       0.048   0.096   0.106  0.00  0.00    +0.035 A 
ATOM     20  C   UNL     1      -1.036  -0.534  -0.491  0.00  0.00    +0.025 A 
ATOM     21  C   UNL     1      -1.057  -1.910  -0.605  0.00  0.00    +0.024 A 
ATOM     22  C   UNL     1      -0.004  -2.662  -0.114  0.00  0.00    +0.067 A 
ATOM     23 CL   UNL     1      -0.036  -4.392  -0.252  0.00  0.00    -0.082 Cl
BRANCH  17  24
ATOM     24  S   UNL     1       2.413  -2.999   1.112  0.00  0.00    +0.062 S 
ATOM     25  O   UNL     1       3.347  -2.083   1.665  0.00  0.00    -0.153 OA
ATOM     26  O   UNL     1       1.836  -4.051   1.873  0.00  0.00    -0.153 OA
BRANCH  24  28
ATOM     27  C   UNL     1       4.141  -2.953  -0.968  0.00  0.00    +0.131 C 
ATOM     28  N   UNL     1       3.156  -3.706  -0.188  0.00  0.00    -0.183 NA
ATOM     29  C   UNL     1       2.828  -5.085  -0.558  0.00  0.00    +0.131 C 
ENDBRANCH  24  28
ENDBRANCH  17  24
ENDBRANCH   1  19
TORSDOF 5
