REMARK  Name = ZINC39454582
REMARK  6 active torsions:
REMARK  status: ('A' for Active; 'I' for Inactive)
REMARK    1  A    between atoms: C_1  and  C_2
REMARK    2  A    between atoms: C_5  and  C_34
REMARK    3  A    between atoms: C_12  and  N_15
REMARK    4  A    between atoms: C_16  and  C_18
REMARK    5  A    between atoms: C_18  and  N_19
REMARK    6  A    between atoms: C_27  and  C_29
REMARK                            x       y       z     vdW  Elec       q    Type
REMARK                         _______ _______ _______ _____ _____    ______ ____
ROOT
ATOM      1  N   UNL     1      -0.606   0.540   2.937  0.00  0.00    -0.285 N 
ATOM      2  C   UNL     1      -0.064   0.624   4.168  0.00  0.00    +0.229 C 
ATOM      3  O   UNL     1       0.572  -0.307   4.615  0.00  0.00    -0.274 OA
ATOM      4  H   UNL     1      -1.114   1.284   2.579  0.00  0.00    +0.152 HD
ENDROOT
BRANCH   1  15
ATOM      5  C   UNL     1      -0.019   1.526   0.010  0.00  0.00    +0.043 C 
ATOM      6  C   UNL     1       0.002  -0.004   0.002  0.00  0.00    +0.150 C 
ATOM      7  C   UNL     1      -1.405  -0.543   0.038  0.00  0.00    +0.016 A 
ATOM      8  C   UNL     1      -2.412  -0.692  -0.924  0.00  0.00    +0.065 A 
ATOM      9  N   UNL     1      -3.565  -1.206  -0.589  0.00  0.00    -0.176 NA
ATOM     10  N   UNL     1      -3.830  -1.592   0.607  0.00  0.00    -0.243 N 
ATOM     11  C   UNL     1      -2.926  -1.489   1.603  0.00  0.00    +0.272 A 
ATOM     12  O   UNL     1      -3.201  -1.863   2.732  0.00  0.00    -0.266 OA
ATOM     13  C   UNL     1      -1.661  -0.945   1.319  0.00  0.00    +0.072 A 
ATOM     14  H   UNL     1      -4.704  -1.966   0.800  0.00  0.00    +0.192 HD
ATOM     15  C   UNL     1      -0.427  -0.676   2.139  0.00  0.00    +0.243 C 
ATOM     16  O   UNL     1       0.646  -0.498   1.192  0.00  0.00    -0.347 OA
ATOM     17  C   UNL     1      -2.165  -0.259  -2.346  0.00  0.00    +0.068 C 
ENDBRANCH   1  15
BRANCH   2  18
ATOM     18  C   UNL     1      -0.247   1.875   4.988  0.00  0.00    +0.181 C 
BRANCH  18  19
ATOM     19  N   UNL     1       0.434   1.717   6.280  0.00  0.00    -0.282 NA
ATOM     20  C   UNL     1       1.887   1.595   6.098  0.00  0.00    +0.091 C 
ATOM     21  C   UNL     1       2.502   1.029   7.389  0.00  0.00    +0.058 C 
ATOM     22  C   UNL     1       1.923   1.787   8.539  0.00  0.00    -0.004 A 
ATOM     23  C   UNL     1       0.835   2.607   8.508  0.00  0.00    -0.015 A 
ATOM     24  C   UNL     1       0.479   3.214   9.710  0.00  0.00    +0.013 A 
ATOM     25  C   UNL     1       1.201   2.974  10.829  0.00  0.00    +0.046 A 
ATOM     26  S   UNL     1       2.454   1.850  10.227  0.00  0.00    -0.101 S 
ATOM     27  C   UNL     1       0.083   2.810   7.196  0.00  0.00    +0.125 C 
BRANCH  27  28
ATOM     28  C   UNL     1      -1.401   2.794   7.457  0.00  0.00    +0.011 A 
ATOM     29  C   UNL     1      -2.262   3.837   7.556  0.00  0.00    +0.013 A 
ATOM     30  C   UNL     1      -3.598   3.582   7.802  0.00  0.00    +0.008 A 
ATOM     31  C   UNL     1      -4.008   2.297   7.937  0.00  0.00    +0.045 A 
ATOM     32  S   UNL     1      -2.484   1.397   7.709  0.00  0.00    -0.100 S 
ENDBRANCH  27  28
ENDBRANCH  18  19
ENDBRANCH   2  18
TORSDOF 4
