REMARK  Name = ZINC39773762
REMARK  5 active torsions:
REMARK  status: ('A' for Active; 'I' for Inactive)
REMARK    1  A    between atoms: C_1  and  C_2
REMARK    2  A    between atoms: C_2  and  C_21
REMARK    3  A    between atoms: N_5  and  C_9
REMARK    4  A    between atoms: C_9  and  C_10
REMARK    5  A    between atoms: C_10  and  C_12
REMARK                            x       y       z     vdW  Elec       q    Type
REMARK                         _______ _______ _______ _____ _____    ______ ____
ROOT
ATOM      1  C   UNL     1      -0.019   1.526   0.010  0.00  0.00    +0.047 C 
ATOM      2  C   UNL     1       0.002  -0.004   0.002  0.00  0.00    +0.135 C 
ATOM      3  C   UNL     1       0.815  -0.520  -1.169  0.00  0.00    +0.251 C 
ATOM      4  O   UNL     1       0.595  -0.342  -2.348  0.00  0.00    -0.272 OA
ATOM      5  N   UNL     1       1.833  -1.217  -0.627  0.00  0.00    -0.216 N 
ATOM      6  C   UNL     1       1.777  -1.214   0.710  0.00  0.00    +0.310 C 
ATOM      7  O   UNL     1       2.586  -1.776   1.421  0.00  0.00    -0.252 OA
ATOM      8  N   UNL     1       0.724  -0.519   1.178  0.00  0.00    -0.281 N 
ATOM      9  H   UNL     1       0.487  -0.383   2.109  0.00  0.00    +0.152 HD
ENDROOT
BRANCH   2  10
ATOM     10  C   UNL     1      -1.401  -0.551  -0.040  0.00  0.00    -0.012 A 
ATOM     11  C   UNL     1      -2.002  -0.814  -1.257  0.00  0.00    +0.010 A 
ATOM     12  C   UNL     1      -3.290  -1.317  -1.303  0.00  0.00    +0.050 A 
ATOM     13  C   UNL     1      -3.976  -1.558  -0.125  0.00  0.00    +0.162 A 
ATOM     14  C   UNL     1      -3.373  -1.294   1.097  0.00  0.00    +0.162 A 
ATOM     15  C   UNL     1      -2.082  -0.795   1.140  0.00  0.00    +0.055 A 
ATOM     16  O   UNL     1      -4.057  -1.536   2.253  0.00  0.00    -0.488 OA
ATOM     17  C   UNL     1      -5.178  -0.687   2.504  0.00  0.00    +0.232 C 
ATOM     18  C   UNL     1      -6.418  -1.205   1.793  0.00  0.00    +0.082 C 
ATOM     19  C   UNL     1      -6.277  -1.166   0.280  0.00  0.00    +0.232 C 
ATOM     20  O   UNL     1      -5.246  -2.055  -0.156  0.00  0.00    -0.488 OA
ENDBRANCH   2  10
BRANCH   5  21
ATOM     21  C   UNL     1       2.871  -1.896  -1.406  0.00  0.00    +0.197 C 
BRANCH  21  22
ATOM     22  C   UNL     1       4.020  -0.950  -1.644  0.00  0.00    +0.179 C 
ATOM     23  O   UNL     1       3.975   0.181  -1.205  0.00  0.00    -0.291 OA
BRANCH  22  24
ATOM     24  C   UNL     1       5.147  -1.379  -2.376  0.00  0.00    +0.025 C 
ATOM     25  C   UNL     1       6.279  -0.643  -2.676  0.00  0.00    +0.006 A 
ATOM     26  C   UNL     1       6.671   0.684  -2.380  0.00  0.00    +0.010 A 
ATOM     27  C   UNL     1       7.863   1.155  -2.810  0.00  0.00    +0.001 A 
ATOM     28  C   UNL     1       8.758   0.371  -3.556  0.00  0.00    +0.002 A 
ATOM     29  C   UNL     1       8.481  -0.907  -3.891  0.00  0.00    +0.026 A 
ATOM     30  C   UNL     1       7.202  -1.498  -3.462  0.00  0.00    +0.043 A 
ATOM     31  N   UNL     1       6.687  -2.681  -3.641  0.00  0.00    -0.380 N 
ATOM     32  C   UNL     1       5.374  -2.742  -2.991  0.00  0.00    +0.152 C 
ATOM     33  H   UNL     1       7.108  -3.409  -4.125  0.00  0.00    +0.160 HD
ENDBRANCH  22  24
ENDBRANCH  21  22
ENDBRANCH   5  21
TORSDOF 4
