REMARK  Name = ZINC09376069
REMARK  10 active torsions:
REMARK  status: ('A' for Active; 'I' for Inactive)
REMARK    1  A    between atoms: C_1  and  C_2
REMARK    2  A    between atoms: C_11  and  N_21
REMARK    3  A    between atoms: C_13  and  C_15
REMARK    4  A    between atoms: C_15  and  N_59
REMARK    5  A    between atoms: N_21  and  C_22
REMARK    6  A    between atoms: C_22  and  C_24
REMARK    7  A    between atoms: C_22  and  C_25
REMARK    8  A    between atoms: C_25  and  C_26
REMARK    9  A    between atoms: C_26  and  O_28
REMARK   10  A    between atoms: O_28  and  C_29
REMARK                            x       y       z     vdW  Elec       q    Type
REMARK                         _______ _______ _______ _____ _____    ______ ____
ROOT
ATOM      1  C   UNL     1       0.531  -2.061  -7.927  0.00  0.00    +0.008 C 
ATOM      2  C   UNL     1       0.374  -2.738  -6.564  0.00  0.00    -0.009 C 
ATOM      3  C   UNL     1       0.430  -1.685  -5.454  0.00  0.00    +0.008 C 
ATOM      4  C   UNL     1       0.028  -2.315  -4.120  0.00  0.00    +0.037 C 
ATOM      5  C   UNL     1       0.877  -3.562  -3.889  0.00  0.00    -0.025 A 
ATOM      6  C   UNL     1       1.520  -4.159  -4.913  0.00  0.00    -0.004 A 
ATOM      7  S   UNL     1       2.363  -5.540  -4.190  0.00  0.00    -0.073 S 
ATOM      8  C   UNL     1       1.850  -5.314  -2.507  0.00  0.00    +0.114 A 
ATOM      9  C   UNL     1       1.031  -4.169  -2.565  0.00  0.00    +0.051 A 
ATOM     10  C   UNL     1       0.479  -3.749  -1.324  0.00  0.00    +0.131 A 
ATOM     11  N   UNL     1       0.752  -4.442  -0.230  0.00  0.00    -0.219 NA
ATOM     12  C   UNL     1       1.526  -5.513  -0.251  0.00  0.00    +0.116 A 
ATOM     13  N   UNL     1       2.071  -5.947  -1.371  0.00  0.00    -0.227 NA
ATOM     14  C   UNL     1       1.518  -3.740  -6.352  0.00  0.00    +0.046 C 
ENDROOT
BRANCH  10  15
ATOM     15  N   UNL     1      -0.337  -2.633  -1.261  0.00  0.00    -0.325 N 
ATOM     16  H   UNL     1      -0.603  -2.180  -2.076  0.00  0.00    +0.148 HD
BRANCH  15  17
ATOM     17  C   UNL     1      -0.798  -2.136   0.037  0.00  0.00    +0.079 C 
ATOM     18  C   UNL     1      -2.057  -2.898   0.458  0.00  0.00    +0.028 C 
BRANCH  17  19
ATOM     19  C   UNL     1      -1.119  -0.644  -0.073  0.00  0.00    +0.142 C 
BRANCH  19  20
ATOM     20  C   UNL     1       0.146   0.122  -0.366  0.00  0.00    +0.309 C 
ATOM     21  O   UNL     1       1.196  -0.466  -0.476  0.00  0.00    -0.251 OA
BRANCH  20  22
ATOM     22  O   UNL     1       0.105   1.456  -0.506  0.00  0.00    -0.468 OA
ATOM     23  C   UNL     1       1.362   2.127  -0.787  0.00  0.00    +0.280 C 
ENDBRANCH  20  22
ENDBRANCH  19  20
ENDBRANCH  17  19
ENDBRANCH  15  17
ENDBRANCH  10  15
BRANCH  12  24
ATOM     24  C   UNL     1       1.793  -6.253   1.034  0.00  0.00    -0.001 C 
BRANCH  24  30
ATOM     25  C   UNL     1      -0.554  -6.693   1.441  0.00  0.00    -0.050 C 
ATOM     26  C   UNL     1      -1.596  -7.807   1.572  0.00  0.00    +0.141 C 
ATOM     27  O   UNL     1      -1.216  -8.685   2.636  0.00  0.00    -0.383 OA
ATOM     28  C   UNL     1       0.069  -9.286   2.455  0.00  0.00    +0.141 C 
ATOM     29  C   UNL     1       1.128  -8.187   2.333  0.00  0.00    -0.050 C 
ATOM     30  N   UNL     1       0.769  -7.308   1.200  0.00  0.00    +0.387 N 
ATOM     31  H   UNL     1       0.726  -7.869   0.342  0.00  0.00    -0.081 HD
ENDBRANCH  24  30
ENDBRANCH  12  24
TORSDOF 7
