REMARK  Name = ZINC29565786
REMARK  2 active torsions:
REMARK  status: ('A' for Active; 'I' for Inactive)
REMARK    1  A    between atoms: N_3  and  N_7
REMARK    2  A    between atoms: C_8  and  C_10
REMARK                            x       y       z     vdW  Elec       q    Type
REMARK                         _______ _______ _______ _____ _____    ______ ____
ROOT
ATOM      1  N   UNL     1      -2.112   5.794  -0.958  0.00  0.00    -0.248 N 
ATOM      2  C   UNL     1      -1.510   5.123   0.044  0.00  0.00    +0.233 C 
ATOM      3  O   UNL     1      -0.985   5.731   0.952  0.00  0.00    -0.274 OA
ATOM      4  H   UNL     1      -2.589   5.242  -1.781  0.00  0.00    +0.169 HD
ENDROOT
BRANCH   2   5
ATOM      5  C   UNL     1      -1.490   3.616   0.036  0.00  0.00    +0.049 C 
ATOM      6  C   UNL     1      -0.773   3.123  -1.223  0.00  0.00    +0.019 C 
ATOM      7  C   UNL     1      -0.753   1.593  -1.232  0.00  0.00    -0.009 C 
ATOM      8  C   UNL     1      -0.013   1.086   0.008  0.00  0.00    +0.007 C 
ATOM      9  C   UNL     1      -0.729   1.579   1.267  0.00  0.00    -0.009 C 
ATOM     10  C   UNL     1      -0.750   3.109   1.275  0.00  0.00    +0.019 C 
ATOM     11  C   UNL     1      -2.164   1.050   1.278  0.00  0.00    +0.007 C 
ATOM     12  C   UNL     1      -2.904   1.556   0.038  0.00  0.00    -0.009 C 
ATOM     13  C   UNL     1      -2.188   1.063  -1.221  0.00  0.00    +0.007 C 
ATOM     14  C   UNL     1      -2.925   3.086   0.047  0.00  0.00    +0.019 C 
ENDBRANCH   2   5
BRANCH   1  17
ATOM     15  C   UNL     1      -3.479   9.167  -0.643  0.00  0.00    +0.044 C 
ATOM     16  C   UNL     1      -3.512   7.669  -0.959  0.00  0.00    +0.110 C 
ATOM     17  N   UNL     1      -2.131   7.160  -0.950  0.00  0.00    -0.223 NA
ATOM     18  C   UNL     1      -1.383   7.703  -2.091  0.00  0.00    +0.132 C 
ATOM     19  C   UNL     1      -1.529   9.196  -2.146  0.00  0.00    -0.014 C 
ATOM     20  C   UNL     1      -2.457   9.845  -1.511  0.00  0.00    -0.028 C 
ENDBRANCH   1  17
TORSDOF 2
