REMARK  Name = ZINC09731790
REMARK  8 active torsions:
REMARK  status: ('A' for Active; 'I' for Inactive)
REMARK    1  A    between atoms: C_1  and  C_2
REMARK    2  A    between atoms: C_2  and  C_34
REMARK    3  A    between atoms: C_6  and  C_24
REMARK    4  A    between atoms: C_11  and  C_13
REMARK    5  A    between atoms: C_15  and  O_21
REMARK    6  A    between atoms: C_17  and  O_19
REMARK    7  A    between atoms: O_19  and  C_20
REMARK    8  A    between atoms: O_21  and  C_22
REMARK                            x       y       z     vdW  Elec       q    Type
REMARK                         _______ _______ _______ _____ _____    ______ ____
ROOT
ATOM      1  C   UNL     1       8.068  -3.008   1.170  0.00  0.00    +0.011 C 
ATOM      2  C   UNL     1       7.940  -3.203  -0.342  0.00  0.00    -0.023 C 
ATOM      3  C   UNL     1       6.464  -3.170  -0.743  0.00  0.00    +0.058 C 
ATOM      4  C   UNL     1       5.870  -1.827  -0.388  0.00  0.00    +0.020 C 
ATOM      5  C   UNL     1       6.628  -0.710  -0.396  0.00  0.00    +0.041 C 
ATOM      6  C   UNL     1       6.061   0.649  -0.046  0.00  0.00    +0.175 C 
ATOM      7  N   UNL     1       4.604   0.596  -0.039  0.00  0.00    -0.220 N 
ATOM      8  C   UNL     1       3.899  -0.564  -0.042  0.00  0.00    +0.219 A 
ATOM      9  N   UNL     1       2.630  -0.269  -0.026  0.00  0.00    -0.193 NA
ATOM     10  C   UNL     1       2.480   1.067  -0.016  0.00  0.00    +0.183 A 
ATOM     11  N   UNL     1       3.671   1.631  -0.030  0.00  0.00    -0.147 NA
ATOM     12  N   UNL     1       4.535  -1.795  -0.066  0.00  0.00    -0.287 N 
ATOM     13  C   UNL     1       7.992  -0.765  -0.734  0.00  0.00    +0.164 C 
ATOM     14  O   UNL     1       8.642   0.262  -0.753  0.00  0.00    -0.292 OA
ATOM     15  C   UNL     1       8.664  -2.067  -1.072  0.00  0.00    +0.086 C 
ATOM     16  C   UNL     1       8.553  -4.546  -0.742  0.00  0.00    +0.011 C 
ATOM     17  H   UNL     1       4.051  -2.611   0.139  0.00  0.00    +0.155 HD
ENDROOT
BRANCH   6  18
ATOM     18  C   UNL     1       6.553   1.059   1.319  0.00  0.00    -0.018 A 
ATOM     19  C   UNL     1       6.245   0.288   2.424  0.00  0.00    +0.009 A 
ATOM     20  C   UNL     1       6.699   0.660   3.675  0.00  0.00    +0.039 A 
ATOM     21  C   UNL     1       7.454   1.811   3.822  0.00  0.00    +0.123 A 
ATOM     22  C   UNL     1       7.757   2.586   2.715  0.00  0.00    +0.039 A 
ATOM     23  C   UNL     1       7.306   2.208   1.465  0.00  0.00    +0.009 A 
ATOM     24  F   UNL     1       7.895   2.179   5.045  0.00  0.00    -0.205 F 
ENDBRANCH   6  18
BRANCH  10  25
ATOM     25  C   UNL     1       1.184   1.789   0.000  0.00  0.00    +0.028 A 
ATOM     26  C   UNL     1      -0.013   1.076   0.008  0.00  0.00    +0.057 A 
ATOM     27  C   UNL     1      -1.221   1.753   0.017  0.00  0.00    +0.124 A 
ATOM     28  C   UNL     1      -1.241   3.140   0.031  0.00  0.00    +0.091 A 
ATOM     29  C   UNL     1      -0.051   3.853   0.023  0.00  0.00    +0.124 A 
ATOM     30  C   UNL     1       1.161   3.182   0.008  0.00  0.00    +0.057 A 
BRANCH  29  31
ATOM     31  O   UNL     1      -0.075   5.212   0.030  0.00  0.00    -0.495 OA
ATOM     32  C   UNL     1      -1.359   5.839   0.046  0.00  0.00    +0.277 C 
ENDBRANCH  29  31
BRANCH  27  33
ATOM     33  O   UNL     1      -2.389   1.058   0.019  0.00  0.00    -0.495 OA
ATOM     34  C   UNL     1      -3.598   1.819   0.029  0.00  0.00    +0.277 C 
ENDBRANCH  27  33
ENDBRANCH  10  25
TORSDOF 4
