REMARK  Name = ZINC37562060
REMARK  4 active torsions:
REMARK  status: ('A' for Active; 'I' for Inactive)
REMARK    1  A    between atoms: C_2  and  C_11
REMARK    2  A    between atoms: C_11  and  N_12
REMARK    3  A    between atoms: N_12  and  C_13
REMARK    4  A    between atoms: C_16  and  C_19
REMARK                            x       y       z     vdW  Elec       q    Type
REMARK                         _______ _______ _______ _____ _____    ______ ____
ROOT
ATOM      1  N   UNL     1       1.770   4.081   1.262  0.00  0.00    +0.385 N 
ATOM      2  H   UNL     1       1.232   3.741   2.044  0.00  0.00    -0.085 HD
ATOM      3  H   UNL     1       2.718   3.743   1.334  0.00  0.00    -0.085 HD
ENDROOT
BRANCH   1   4
ATOM      4  C   UNL     1       1.772   5.550   1.269  0.00  0.00    -0.071 C 
ATOM      5  C   UNL     1       0.330   6.061   1.285  0.00  0.00    -0.015 C 
ATOM      6  C   UNL     1       0.332   7.591   1.293  0.00  0.00    +0.013 C 
ATOM      7  C   UNL     1       1.066   8.094   2.538  0.00  0.00    +0.102 C 
ATOM      8  C   UNL     1       2.507   7.583   2.522  0.00  0.00    +0.013 C 
ATOM      9  C   UNL     1       2.506   6.053   2.514  0.00  0.00    -0.015 C 
BRANCH   7  10
ATOM     10  C   UNL     1       1.067   9.601   2.546  0.00  0.00    +0.359 C 
ATOM     11  O   UNL     1       0.894  10.206   3.590  0.00  0.00    -0.246 OA
ATOM     12  O   UNL     1       1.242  10.216   1.507  0.00  0.00    -0.246 OA
ENDBRANCH   7  10
ENDBRANCH   1   4
BRANCH   1  13
ATOM     13  C   UNL     1       1.173   3.598   0.010  0.00  0.00    -0.026 C 
BRANCH  13  15
ATOM     14  C   UNL     1      -0.017   1.391   0.010  0.00  0.00    +0.093 A 
ATOM     15  C   UNL     1       1.171   2.091   0.002  0.00  0.00    +0.032 A 
ATOM     16  N   UNL     1       2.315   1.413  -0.013  0.00  0.00    -0.228 NA
ATOM     17  C   UNL     1       2.324   0.104  -0.020  0.00  0.00    +0.199 A 
ATOM     18  N   UNL     1       1.195  -0.668  -0.013  0.00  0.00    -0.171 N 
ATOM     19  C   UNL     1       0.002  -0.004   0.002  0.00  0.00    +0.275 A 
ATOM     20  O   UNL     1      -1.046  -0.630   0.009  0.00  0.00    -0.266 OA
ATOM     21  N   UNL     1       1.391  -2.046  -0.022  0.00  0.00    -0.163 NA
ATOM     22  C   UNL     1       2.582  -2.565  -0.036  0.00  0.00    +0.182 A 
ATOM     23  S   UNL     1       3.622  -1.113  -0.038  0.00  0.00    -0.036 S 
ENDBRANCH  13  15
ENDBRANCH   1  13
TORSDOF 4
