REMARK  Name = ZINC23269769
REMARK  7 active torsions:
REMARK  status: ('A' for Active; 'I' for Inactive)
REMARK    1  A    between atoms: C_1  and  C_2
REMARK    2  A    between atoms: C_10  and  C_11
REMARK    3  A    between atoms: N_13  and  C_14
REMARK    4  A    between atoms: C_16  and  S_22
REMARK    5  A    between atoms: C_19  and  O_20
REMARK    6  A    between atoms: O_20  and  C_21
REMARK    7  A    between atoms: S_22  and  N_25
REMARK                            x       y       z     vdW  Elec       q    Type
REMARK                         _______ _______ _______ _____ _____    ______ ____
ROOT
ATOM      1  C   UNL     1      -1.197  -0.725   0.025  0.00  0.00    +0.078 A 
ATOM      2  C   UNL     1      -1.178  -2.112   0.016  0.00  0.00    +0.055 A 
ATOM      3  C   UNL     1       0.028  -2.786   0.010  0.00  0.00    +0.107 A 
ATOM      4  C   UNL     1       1.218  -2.082   0.007  0.00  0.00    +0.032 A 
ATOM      5  C   UNL     1       1.207  -0.699   0.011  0.00  0.00    +0.049 A 
ATOM      6  C   UNL     1       0.002  -0.015   0.018  0.00  0.00    +0.141 A 
ENDROOT
BRANCH   1   9
ATOM      7  C   UNL     1      -3.479  -0.542  -0.624  0.00  0.00    +0.284 C 
ATOM      8  O   UNL     1      -3.401  -1.630  -1.162  0.00  0.00    -0.266 OA
ATOM      9  N   UNL     1      -2.418  -0.039   0.037  0.00  0.00    -0.276 N 
ATOM     10  H   UNL     1      -2.510   0.910   0.585  0.00  0.00    +0.155 HD
BRANCH   7  20
ATOM     11  C   UNL     1      -6.062  -1.467  -2.089  0.00  0.00    +0.048 C 
ATOM     12  C   UNL     1      -5.860  -0.179  -1.333  0.00  0.00    +0.008 A 
ATOM     13  C   UNL     1      -6.840   0.888  -1.137  0.00  0.00    +0.027 A 
ATOM     14  C   UNL     1      -8.166   1.078  -1.536  0.00  0.00    +0.012 A 
ATOM     15  C   UNL     1      -8.822   2.224  -1.185  0.00  0.00    +0.004 A 
ATOM     16  C   UNL     1      -8.181   3.201  -0.435  0.00  0.00    +0.042 A 
ATOM     17  C   UNL     1      -6.872   3.034  -0.032  0.00  0.00    +0.166 A 
ATOM     18  C   UNL     1      -6.184   1.874  -0.378  0.00  0.00    +0.171 A 
ATOM     19  O   UNL     1      -4.932   1.437  -0.137  0.00  0.00    -0.447 OA
ATOM     20  C   UNL     1      -4.732   0.224  -0.694  0.00  0.00    +0.194 A 
ATOM     21  F   UNL     1      -6.260   3.993   0.697  0.00  0.00    -0.202 F 
ENDBRANCH   7  20
ENDBRANCH   1   9
BRANCH   3  22
ATOM     22  S   UNL     1       0.050  -4.548   0.004  0.00  0.00    +0.061 S 
ATOM     23  O   UNL     1      -1.192  -4.968  -0.543  0.00  0.00    -0.153 OA
ATOM     24  O   UNL     1       1.298  -4.937  -0.552  0.00  0.00    -0.153 OA
BRANCH  22  25
ATOM     25  N   UNL     1       0.062  -5.042   1.585  0.00  0.00    -0.177 NA
ATOM     26  C   UNL     1       1.336  -5.239   2.240  0.00  0.00    +0.109 C 
ATOM     27  C   UNL     1       1.818  -6.689   2.027  0.00  0.00    +0.017 C 
ATOM     28  C   UNL     1       0.994  -7.621   2.812  0.00  0.00    +0.001 C 
ATOM     29  C   UNL     1      -0.478  -7.648   2.413  0.00  0.00    +0.001 C 
ATOM     30  C   UNL     1      -1.211  -6.542   3.131  0.00  0.00    +0.017 C 
ATOM     31  C   UNL     1      -1.228  -5.269   2.265  0.00  0.00    +0.109 C 
ENDBRANCH  22  25
ENDBRANCH   3  22
BRANCH   6  32
ATOM     32  O   UNL     1      -0.010   1.344   0.022  0.00  0.00    -0.493 OA
ATOM     33  C   UNL     1       1.258   2.004   0.020  0.00  0.00    +0.277 C 
ENDBRANCH   6  32
TORSDOF 5
