REMARK  Name = ZINC16844963
REMARK  5 active torsions:
REMARK  status: ('A' for Active; 'I' for Inactive)
REMARK    1  A    between atoms: C_1  and  C_2
REMARK    2  A    between atoms: C_2  and  C_14
REMARK    3  A    between atoms: N_3  and  N_4
REMARK    4  A    between atoms: C_5  and  C_7
REMARK    5  A    between atoms: C_17  and  O_20
REMARK                            x       y       z     vdW  Elec       q    Type
REMARK                         _______ _______ _______ _____ _____    ______ ____
ROOT
ATOM      1  C   UNL     1       3.320   7.625   0.822  0.00  0.00    +0.068 C 
ATOM      2  C   UNL     1       3.436   6.307   0.100  0.00  0.00    +0.063 C 
ATOM      3  N   UNL     1       2.404   5.808  -0.508  0.00  0.00    -0.184 NA
ENDROOT
BRANCH   2   4
ATOM      4  C   UNL     1       4.721   5.586   0.085  0.00  0.00    -0.002 A 
ATOM      5  C   UNL     1       5.548   5.602   1.211  0.00  0.00    +0.013 A 
ATOM      6  C   UNL     1       6.746   4.921   1.194  0.00  0.00    +0.046 A 
ATOM      7  C   UNL     1       7.137   4.229   0.056  0.00  0.00    +0.117 A 
ATOM      8  C   UNL     1       6.322   4.214  -1.068  0.00  0.00    +0.046 A 
ATOM      9  C   UNL     1       5.119   4.888  -1.059  0.00  0.00    +0.013 A 
BRANCH   7  10
ATOM     10  O   UNL     1       8.322   3.564   0.042  0.00  0.00    -0.507 OA
ATOM     11  H   UNL     1       9.068   4.097  -0.265  0.00  0.00    +0.292 HD
ENDBRANCH   7  10
ENDBRANCH   2   4
BRANCH   3  12
ATOM     12  N   UNL     1       2.459   4.509  -1.031  0.00  0.00    -0.203 N 
ATOM     13  C   UNL     1       1.434   4.033  -1.765  0.00  0.00    +0.263 C 
ATOM     14  O   UNL     1       0.460   4.731  -1.973  0.00  0.00    -0.268 OA
ATOM     15  H   UNL     1       3.236   3.952  -0.865  0.00  0.00    +0.178 HD
BRANCH  13  16
ATOM     16  C   UNL     1       1.493   2.664  -2.316  0.00  0.00    +0.038 A 
ATOM     17  C   UNL     1       0.432   2.168  -3.077  0.00  0.00    +0.014 A 
ATOM     18  C   UNL     1       0.493   0.889  -3.589  0.00  0.00    +0.016 A 
ATOM     19  C   UNL     1       1.603   0.097  -3.350  0.00  0.00    +0.018 A 
ATOM     20  C   UNL     1       2.658   0.583  -2.596  0.00  0.00    +0.016 A 
ATOM     21  C   UNL     1       2.609   1.860  -2.078  0.00  0.00    +0.014 A 
ATOM     22 BR   UNL     1       1.679  -1.656  -4.056  0.00  0.00    -0.050 Br
ENDBRANCH  13  16
ENDBRANCH   3  12
TORSDOF 4
