REMARK  Name = ZINC48700358
REMARK  5 active torsions:
REMARK  status: ('A' for Active; 'I' for Inactive)
REMARK    1  A    between atoms: C_4  and  N_24
REMARK    2  A    between atoms: C_6  and  N_7
REMARK    3  A    between atoms: C_8  and  C_10
REMARK    4  A    between atoms: N_12  and  C_13
REMARK    5  A    between atoms: C_13  and  C_14
REMARK                            x       y       z     vdW  Elec       q    Type
REMARK                         _______ _______ _______ _____ _____    ______ ____
ROOT
ATOM      1  C   UNL     1      -3.645  -0.839   0.248  0.00  0.00    +0.299 C 
ATOM      2  O   UNL     1      -3.623  -2.052   0.241  0.00  0.00    -0.265 OA
ATOM      3  N   UNL     1      -4.819  -0.186   0.365  0.00  0.00    -0.307 N 
ATOM      4  H   UNL     1      -4.836   0.783   0.370  0.00  0.00    +0.149 HD
ENDROOT
BRANCH   1   6
ATOM      5  N   UNL     1      -1.198  -0.721   0.010  0.00  0.00    -0.278 N 
ATOM      6  C   UNL     1      -2.372  -0.068   0.127  0.00  0.00    +0.303 C 
ATOM      7  O   UNL     1      -2.393   1.145   0.134  0.00  0.00    -0.265 OA
ATOM      8  H   UNL     1      -1.186  -1.687  -0.072  0.00  0.00    +0.155 HD
BRANCH   5  14
ATOM      9  C   UNL     1       0.122   1.155   0.763  0.00  0.00    +0.025 A 
ATOM     10  C   UNL     1       1.310   1.860   0.759  0.00  0.00    +0.024 A 
ATOM     11  C   UNL     1       2.379   1.413   0.004  0.00  0.00    +0.071 A 
ATOM     12  C   UNL     1       2.263   0.258  -0.750  0.00  0.00    +0.146 A 
ATOM     13  C   UNL     1       1.078  -0.451  -0.750  0.00  0.00    +0.057 A 
ATOM     14  C   UNL     1       0.002  -0.004   0.008  0.00  0.00    +0.036 A 
ATOM     15 CL   UNL     1       3.870   2.303   0.000  0.00  0.00    -0.081 Cl
BRANCH  12  16
ATOM     16  N   UNL     1       3.409  -0.217  -1.558  0.00  0.00    +0.058 N 
ATOM     17  O   UNL     1       3.307  -1.226  -2.216  0.00  0.00    -0.126 OA
ATOM     18  O   UNL     1       4.446   0.404  -1.558  0.00  0.00    -0.126 OA
ENDBRANCH  12  16
ENDBRANCH   5  14
ENDBRANCH   1   6
BRANCH   3  19
ATOM     19  C   UNL     1      -6.068  -0.942   0.484  0.00  0.00    +0.111 C 
BRANCH  19  20
ATOM     20  C   UNL     1      -7.243   0.030   0.602  0.00  0.00    -0.013 C 
ATOM     21  C   UNL     1      -7.057   0.906   1.842  0.00  0.00    +0.012 C 
ATOM     22  C   UNL     1      -8.232   1.879   1.961  0.00  0.00    -0.010 C 
ATOM     23  C   UNL     1      -9.537   1.090   2.085  0.00  0.00    +0.007 C 
ATOM     24  C   UNL     1      -9.723   0.214   0.844  0.00  0.00    -0.010 C 
ATOM     25  C   UNL     1      -8.548  -0.759   0.726  0.00  0.00    +0.012 C 
ATOM     26  C   UNL     1      -9.780   1.100  -0.402  0.00  0.00    +0.007 C 
ATOM     27  C   UNL     1      -8.475   1.889  -0.526  0.00  0.00    -0.010 C 
ATOM     28  C   UNL     1      -8.289   2.765   0.715  0.00  0.00    +0.007 C 
ATOM     29  C   UNL     1      -7.300   0.916  -0.644  0.00  0.00    +0.012 C 
ENDBRANCH  19  20
ENDBRANCH   3  19
TORSDOF 5
