REMARK  Name = ZINC17521493
REMARK  6 active torsions:
REMARK  status: ('A' for Active; 'I' for Inactive)
REMARK    1  A    between atoms: C_1  and  N_2
REMARK    2  A    between atoms: C_6  and  C_7
REMARK    3  A    between atoms: C_7  and  C_9
REMARK    4  A    between atoms: C_7  and  N_16
REMARK    5  A    between atoms: N_16  and  S_17
REMARK    6  A    between atoms: S_17  and  C_20
REMARK                            x       y       z     vdW  Elec       q    Type
REMARK                         _______ _______ _______ _____ _____    ______ ____
ROOT
ATOM      1  N   UNL     1       2.886  -1.954   0.940  0.00  0.00    -0.175 NA
ATOM      2  H   UNL     1       3.794  -1.733   0.682  0.00  0.00    +0.149 HD
ENDROOT
BRANCH   1   3
ATOM      3  S   UNL     1       2.569  -2.495   2.473  0.00  0.00    +0.059 S 
ATOM      4  O   UNL     1       3.818  -2.552   3.149  0.00  0.00    -0.153 OA
ATOM      5  O   UNL     1       1.475  -1.728   2.957  0.00  0.00    -0.153 OA
BRANCH   3   6
ATOM      6  C   UNL     1       1.997  -4.156   2.332  0.00  0.00    +0.106 A 
ATOM      7  C   UNL     1       2.900  -5.202   2.369  0.00  0.00    +0.030 A 
ATOM      8  C   UNL     1       2.455  -6.505   2.258  0.00  0.00    +0.025 A 
ATOM      9  C   UNL     1       1.099  -6.763   2.109  0.00  0.00    +0.037 A 
ATOM     10  C   UNL     1       0.195  -5.710   2.072  0.00  0.00    -0.024 A 
ATOM     11  C   UNL     1       0.645  -4.410   2.189  0.00  0.00    +0.034 A 
ATOM     12  C   UNL     1      -1.277  -5.990   1.911  0.00  0.00    +0.046 C 
ATOM     13  C   UNL     1      -1.468  -7.218   1.020  0.00  0.00    +0.101 C 
ATOM     14  C   UNL     1      -0.579  -8.337   1.491  0.00  0.00    +0.218 C 
ATOM     15  O   UNL     1      -0.966  -9.483   1.415  0.00  0.00    -0.275 OA
ATOM     16  N   UNL     1       0.642  -8.079   1.997  0.00  0.00    -0.285 N 
ATOM     17  H   UNL     1       1.208  -8.812   2.285  0.00  0.00    +0.155 HD
ENDBRANCH   3   6
ENDBRANCH   1   3
BRANCH   1  18
ATOM     18  C   UNL     1       1.793  -1.809  -0.025  0.00  0.00    +0.172 C 
BRANCH  18  19
ATOM     19  C   UNL     1       2.293  -2.154  -1.404  0.00  0.00    -0.022 A 
ATOM     20  C   UNL     1       3.550  -1.743  -1.807  0.00  0.00    +0.007 A 
ATOM     21  C   UNL     1       4.011  -2.064  -3.070  0.00  0.00    +0.020 A 
ATOM     22  C   UNL     1       3.210  -2.788  -3.935  0.00  0.00    +0.041 A 
ATOM     23  C   UNL     1       1.950  -3.194  -3.534  0.00  0.00    +0.020 A 
ATOM     24  C   UNL     1       1.492  -2.877  -2.268  0.00  0.00    +0.007 A 
ATOM     25 CL   UNL     1       3.786  -3.186  -5.524  0.00  0.00    -0.084 Cl
ENDBRANCH  18  19
BRANCH  18  31
ATOM     26  C   UNL     1      -1.165  -0.889   0.008  0.00  0.00    +0.150 C 
ATOM     27  N   UNL     1       0.002  -0.004   0.002  0.00  0.00    -0.336 N 
ATOM     28  C   UNL     1      -0.017   1.365   0.009  0.00  0.00    +0.106 A 
ATOM     29  C   UNL     1       1.267   1.772  -0.001  0.00  0.00    +0.130 A 
ATOM     30  N   UNL     1       2.048   0.681  -0.014  0.00  0.00    -0.239 NA
ATOM     31  C   UNL     1       1.297  -0.386  -0.012  0.00  0.00    +0.133 A 
ENDBRANCH  18  31
ENDBRANCH   1  18
TORSDOF 5
