REMARK  Name = ZINC66557100
REMARK  6 active torsions:
REMARK  status: ('A' for Active; 'I' for Inactive)
REMARK    1  A    between atoms: C_1  and  C_2
REMARK    2  A    between atoms: C_6  and  C_7
REMARK    3  A    between atoms: N_9  and  N_10
REMARK    4  A    between atoms: C_11  and  C_13
REMARK    5  A    between atoms: N_21  and  C_22
REMARK    6  A    between atoms: N_21  and  C_23
REMARK                            x       y       z     vdW  Elec       q    Type
REMARK                         _______ _______ _______ _____ _____    ______ ____
ROOT
ATOM      1  N   UNL     1       1.174  -0.693   4.616  0.00  0.00    -0.234 N 
ATOM      2  C   UNL     1       1.322  -1.649   5.554  0.00  0.00    +0.232 C 
ATOM      3  O   UNL     1       1.782  -2.730   5.252  0.00  0.00    -0.274 OA
ATOM      4  H   UNL     1       0.807   0.171   4.858  0.00  0.00    +0.173 HD
ENDROOT
BRANCH   2   5
ATOM      5  C   UNL     1       0.917  -1.375   6.980  0.00  0.00    +0.079 C 
ATOM      6  C   UNL     1       1.726  -0.194   7.522  0.00  0.00    +0.032 C 
ATOM      7  C   UNL     1       1.286   0.103   8.959  0.00  0.00    +0.110 C 
ATOM      8  N   UNL     1       1.406  -1.127   9.754  0.00  0.00    -0.285 N 
ATOM      9  C   UNL     1       0.742  -2.346   9.275  0.00  0.00    +0.110 C 
ATOM     10  C   UNL     1       1.187  -2.616   7.834  0.00  0.00    +0.032 C 
ATOM     11  C   UNL     1       2.113  -1.136  10.902  0.00  0.00    +0.304 C 
ATOM     12  O   UNL     1       2.944  -0.273  11.111  0.00  0.00    -0.252 OA
ATOM     13  N   UNL     1       1.898  -2.101  11.818  0.00  0.00    -0.292 N 
ATOM     14  C   UNL     1       2.762  -2.197  12.997  0.00  0.00    +0.133 C 
ATOM     15  C   UNL     1       0.801  -3.055  11.634  0.00  0.00    +0.133 C 
ENDBRANCH   2   5
BRANCH   1  18
ATOM     16  C   UNL     1       1.403   0.009   2.353  0.00  0.00    +0.267 C 
ATOM     17  O   UNL     1       0.942   1.093   2.656  0.00  0.00    -0.268 OA
ATOM     18  N   UNL     1       1.551  -0.948   3.291  0.00  0.00    -0.230 N 
ATOM     19  H   UNL     1       1.919  -1.812   3.049  0.00  0.00    +0.173 HD
BRANCH  16  25
ATOM     20  C   UNL     1       1.195   1.984  -0.047  0.00  0.00    +0.045 C 
ATOM     21  C   UNL     1       1.729   0.578  -0.138  0.00  0.00    -0.031 A 
ATOM     22  C   UNL     1       2.184   0.044  -1.320  0.00  0.00    +0.011 A 
ATOM     23  C   UNL     1       2.651  -1.228  -1.331  0.00  0.00    +0.046 A 
ATOM     24  S   UNL     1       2.489  -1.742   0.260  0.00  0.00    -0.092 S 
ATOM     25  C   UNL     1       1.798  -0.258   0.966  0.00  0.00    +0.078 A 
ENDBRANCH  16  25
ENDBRANCH   1  18
TORSDOF 3
