REMARK  Name = ZINC60131610
REMARK  4 active torsions:
REMARK  status: ('A' for Active; 'I' for Inactive)
REMARK    1  A    between atoms: C_3  and  N_12
REMARK    2  A    between atoms: C_4  and  C_10
REMARK    3  A    between atoms: C_6  and  N_7
REMARK    4  A    between atoms: C_18  and  C_20
REMARK                            x       y       z     vdW  Elec       q    Type
REMARK                         _______ _______ _______ _____ _____    ______ ____
ROOT
ATOM      1  N   UNL     1       4.557   1.527   0.348  0.00  0.00    -0.326 N 
ATOM      2  C   UNL     1       5.151   1.909  -0.941  0.00  0.00    +0.124 C 
ATOM      3  C   UNL     1       4.909   3.406  -1.167  0.00  0.00    +0.126 C 
ATOM      4  N   UNL     1       5.314   4.135   0.043  0.00  0.00    -0.298 N 
ATOM      5  C   UNL     1       4.721   3.753   1.332  0.00  0.00    +0.126 C 
ATOM      6  C   UNL     1       4.958   2.260   1.558  0.00  0.00    +0.124 C 
ATOM      7  C   UNL     1       6.214   5.136  -0.028  0.00  0.00    +0.219 C 
ATOM      8  O   UNL     1       6.471   5.792   0.959  0.00  0.00    -0.275 OA
ENDROOT
BRANCH   1  11
ATOM      9  C   UNL     1       1.354  -0.264   0.349  0.00  0.00    +0.034 A 
ATOM     10  C   UNL     1       2.274   0.763   0.277  0.00  0.00    +0.026 A 
ATOM     11  C   UNL     1       3.629   0.494   0.422  0.00  0.00    +0.047 A 
ATOM     12  C   UNL     1       4.056  -0.825   0.642  0.00  0.00    +0.075 A 
ATOM     13  C   UNL     1       3.113  -1.852   0.714  0.00  0.00    +0.053 A 
ATOM     14  C   UNL     1       1.772  -1.567   0.567  0.00  0.00    +0.128 A 
BRANCH  14  15
ATOM     15  N   UNL     1       0.774  -2.657   0.642  0.00  0.00    +0.056 N 
ATOM     16  O   UNL     1      -0.402  -2.410   0.514  0.00  0.00    -0.126 OA
ATOM     17  O   UNL     1       1.136  -3.795   0.832  0.00  0.00    -0.126 OA
ENDBRANCH  14  15
BRANCH  12  18
ATOM     18  C   UNL     1       5.450  -1.115   0.793  0.00  0.00    +0.101 C 
ATOM     19  N   UNL     1       6.556  -1.345   0.913  0.00  0.00    -0.191 NA
ENDBRANCH  12  18
ENDBRANCH   1  11
BRANCH   7  20
ATOM     20  C   UNL     1       6.902   5.439  -1.334  0.00  0.00    +0.075 C 
ATOM     21  C   UNL     1       6.019   6.365  -2.173  0.00  0.00    +0.013 C 
ATOM     22  C   UNL     1       6.717   6.673  -3.499  0.00  0.00    +0.001 C 
ATOM     23  C   UNL     1       8.057   7.359  -3.223  0.00  0.00    +0.000 C 
ATOM     24  C   UNL     1       8.940   6.433  -2.384  0.00  0.00    +0.001 C 
ATOM     25  C   UNL     1       8.242   6.125  -1.058  0.00  0.00    +0.013 C 
ENDBRANCH   7  20
TORSDOF 4
