REMARK  Name = ZINC35675979
REMARK  3 active torsions:
REMARK  status: ('A' for Active; 'I' for Inactive)
REMARK    1  A    between atoms: C_6  and  O_7
REMARK    2  A    between atoms: O_7  and  C_8
REMARK    3  A    between atoms: C_11  and  N_17
REMARK                            x       y       z     vdW  Elec       q    Type
REMARK                         _______ _______ _______ _____ _____    ______ ____
ROOT
ATOM      1  C   UNL     1      -1.100  -2.053  -0.103  0.00  0.00    +0.159 A 
ATOM      2  C   UNL     1       0.104  -2.682  -0.111  0.00  0.00    +0.050 A 
ATOM      3  C   UNL     1       0.224  -4.068  -0.224  0.00  0.00    +0.029 A 
ATOM      4  C   UNL     1      -0.856  -4.888  -0.333  0.00  0.00    +0.056 A 
ATOM      5  C   UNL     1      -2.203  -4.309  -0.335  0.00  0.00    +0.158 A 
ATOM      6  C   UNL     1      -2.329  -2.843  -0.210  0.00  0.00    +0.178 A 
ATOM      7  N   UNL     1      -3.605  -2.541  -0.226  0.00  0.00    -0.045 NA
ATOM      8  O   UNL     1      -4.338  -3.748  -0.352  0.00  0.00    -0.241 OA
ATOM      9  N   UNL     1      -3.409  -4.816  -0.422  0.00  0.00    -0.047 NA
ENDROOT
BRANCH   4  10
ATOM     10  N   UNL     1      -0.683  -6.268  -0.444  0.00  0.00    -0.356 N 
ATOM     11  H   UNL     1       0.210  -6.647  -0.443  0.00  0.00    +0.142 HD
ATOM     12  H   UNL     1      -1.456  -6.849  -0.522  0.00  0.00    +0.142 HD
ENDBRANCH   4  10
BRANCH   1  13
ATOM     13  O   UNL     1      -1.165  -0.700   0.010  0.00  0.00    -0.454 OA
BRANCH  13  19
ATOM     14  C   UNL     1       0.751   0.051  -1.184  0.00  0.00    +0.047 A 
ATOM     15  C   UNL     1       1.935   0.762  -1.210  0.00  0.00    +0.018 A 
ATOM     16  C   UNL     1       2.373   1.421  -0.075  0.00  0.00    +0.014 A 
ATOM     17  C   UNL     1       1.626   1.369   1.089  0.00  0.00    +0.018 A 
ATOM     18  C   UNL     1       0.442   0.659   1.120  0.00  0.00    +0.047 A 
ATOM     19  C   UNL     1       0.001  -0.002  -0.018  0.00  0.00    +0.129 A 
ATOM     20  I   UNL     1       4.169   2.498  -0.117  0.00  0.00    -0.044 I 
ENDBRANCH  13  19
ENDBRANCH   1  13
TORSDOF 3
