REMARK  Name = ZINC02416130
REMARK  7 active torsions:
REMARK  status: ('A' for Active; 'I' for Inactive)
REMARK    1  A    between atoms: C_1  and  C_2
REMARK    2  A    between atoms: C_10  and  C_13
REMARK    3  A    between atoms: C_20  and  C_28
REMARK    4  A    between atoms: C_31  and  O_36
REMARK    5  A    between atoms: C_32  and  O_34
REMARK    6  A    between atoms: O_34  and  C_35
REMARK    7  A    between atoms: O_36  and  C_37
REMARK                            x       y       z     vdW  Elec       q    Type
REMARK                         _______ _______ _______ _____ _____    ______ ____
ROOT
ATOM      1  C   UNL     1      -0.018   1.503   0.010  0.00  0.00    +0.044 C 
ATOM      2  C   UNL     1       0.002  -0.004   0.002  0.00  0.00    -0.050 A 
ATOM      3  C   UNL     1       0.006  -0.687  -1.202  0.00  0.00    +0.007 A 
ATOM      4  C   UNL     1       0.024  -2.069  -1.225  0.00  0.00    +0.046 A 
ATOM      5  C   UNL     1       0.039  -2.778  -0.037  0.00  0.00    +0.131 A 
ATOM      6  C   UNL     1       0.037  -2.087   1.181  0.00  0.00    +0.043 A 
ATOM      7  C   UNL     1       0.023  -0.699   1.196  0.00  0.00    +0.017 A 
ATOM      8  C   UNL     1       0.059  -2.877   2.439  0.00  0.00    +0.083 C 
ATOM      9  C   UNL     1       0.408  -4.176   2.350  0.00  0.00    +0.027 C 
ATOM     10  C   UNL     1       0.767  -4.784   1.025  0.00  0.00    +0.234 C 
ATOM     11  O   UNL     1       0.054  -4.135  -0.030  0.00  0.00    -0.479 OA
ATOM     12  C   UNL     1       0.424  -4.997   3.620  0.00  0.00    +0.159 C 
ATOM     13  N   UNL     1       0.054  -4.286   4.850  0.00  0.00    -0.208 N 
ATOM     14  C   UNL     1      -0.274  -2.947   4.774  0.00  0.00    +0.237 C 
ATOM     15  N   UNL     1      -0.262  -2.308   3.627  0.00  0.00    -0.213 NA
ATOM     16  N   UNL     1      -0.568  -2.542   6.029  0.00  0.00    -0.205 NA
ATOM     17  C   UNL     1      -0.445  -3.534   6.867  0.00  0.00    +0.203 C 
ATOM     18  N   UNL     1      -0.060  -4.653   6.192  0.00  0.00    -0.251 N 
ATOM     19  H   UNL     1       0.103  -5.532   6.570  0.00  0.00    +0.171 HD
ENDROOT
BRANCH  10  20
ATOM     20  C   UNL     1       2.248  -4.627   0.791  0.00  0.00    -0.003 A 
ATOM     21  C   UNL     1       2.752  -3.420   0.344  0.00  0.00    +0.010 A 
ATOM     22  C   UNL     1       4.110  -3.275   0.129  0.00  0.00    +0.039 A 
ATOM     23  C   UNL     1       4.964  -4.339   0.361  0.00  0.00    +0.123 A 
ATOM     24  C   UNL     1       4.458  -5.548   0.808  0.00  0.00    +0.039 A 
ATOM     25  C   UNL     1       3.101  -5.689   1.028  0.00  0.00    +0.010 A 
ATOM     26  F   UNL     1       6.292  -4.199   0.150  0.00  0.00    -0.205 F 
ENDBRANCH  10  20
BRANCH  12  27
ATOM     27  C   UNL     1       1.813  -5.553   3.803  0.00  0.00    -0.017 A 
ATOM     28  C   UNL     1       2.811  -4.756   4.332  0.00  0.00    +0.009 A 
ATOM     29  C   UNL     1       4.087  -5.261   4.502  0.00  0.00    +0.050 A 
ATOM     30  C   UNL     1       4.367  -6.569   4.142  0.00  0.00    +0.162 A 
ATOM     31  C   UNL     1       3.363  -7.372   3.609  0.00  0.00    +0.162 A 
ATOM     32  C   UNL     1       2.085  -6.861   3.446  0.00  0.00    +0.055 A 
BRANCH  31  33
ATOM     33  O   UNL     1       3.634  -8.656   3.254  0.00  0.00    -0.491 OA
ATOM     34  C   UNL     1       2.554  -9.421   2.714  0.00  0.00    +0.277 C 
ENDBRANCH  31  33
BRANCH  30  35
ATOM     35  O   UNL     1       5.622  -7.067   4.308  0.00  0.00    -0.491 OA
ATOM     36  C   UNL     1       6.602  -6.186   4.859  0.00  0.00    +0.277 C 
ENDBRANCH  30  35
ENDBRANCH  12  27
TORSDOF 4
