REMARK  Name = ZINC55458766
REMARK  4 active torsions:
REMARK  status: ('A' for Active; 'I' for Inactive)
REMARK    1  A    between atoms: C_1  and  O_2
REMARK    2  A    between atoms: O_2  and  C_3
REMARK    3  A    between atoms: C_3  and  C_5
REMARK    4  A    between atoms: C_17  and  C_19
REMARK                            x       y       z     vdW  Elec       q    Type
REMARK                         _______ _______ _______ _____ _____    ______ ____
ROOT
ATOM      1  C   UNL     1      -1.914  -4.085  -1.220  0.00  0.00    +0.185 C 
ATOM      2  C   UNL     1      -1.469  -5.367  -0.480  0.00  0.00    +0.039 C 
ATOM      3  C   UNL     1      -2.705  -5.693   0.412  0.00  0.00    +0.012 C 
ATOM      4  C   UNL     1      -3.733  -6.371  -0.497  0.00  0.00    +0.005 C 
ATOM      5  C   UNL     1      -5.116  -6.359   0.150  0.00  0.00    +0.000 C 
ATOM      6  C   UNL     1      -5.555  -4.904   0.344  0.00  0.00    +0.002 C 
ATOM      7  C   UNL     1      -4.582  -4.230   1.312  0.00  0.00    +0.023 C 
ATOM      8  C   UNL     1      -3.156  -4.272   0.799  0.00  0.00    +0.080 C 
ATOM      9  N   UNL     1      -2.971  -3.455  -0.408  0.00  0.00    -0.284 N 
ATOM     10  C   UNL     1      -3.645  -2.331  -0.719  0.00  0.00    +0.221 C 
ATOM     11  O   UNL     1      -4.479  -1.893   0.044  0.00  0.00    -0.275 OA
ENDROOT
BRANCH  10  12
ATOM     12  C   UNL     1      -3.363  -1.618  -2.017  0.00  0.00    +0.098 C 
ATOM     13  C   UNL     1      -2.685  -0.267  -1.730  0.00  0.00    +0.037 C 
ATOM     14  C   UNL     1      -2.683   0.604  -3.009  0.00  0.00    +0.166 C 
ATOM     15  S   UNL     1      -4.170   0.004  -3.910  0.00  0.00    -0.030 S 
ATOM     16  O   UNL     1      -3.762  -0.573  -5.143  0.00  0.00    -0.174 OA
ATOM     17  O   UNL     1      -5.155   1.027  -3.908  0.00  0.00    -0.174 OA
ATOM     18  C   UNL     1      -4.698  -1.340  -2.765  0.00  0.00    +0.178 C 
ENDBRANCH  10  12
BRANCH   1  19
ATOM     19  C   UNL     1      -0.746  -3.143  -1.361  0.00  0.00    +0.328 C 
ATOM     20  O   UNL     1      -0.819  -2.020  -0.921  0.00  0.00    -0.249 OA
BRANCH  19  22
ATOM     21  C   UNL     1       1.442  -2.606  -2.074  0.00  0.00    +0.280 C 
ATOM     22  O   UNL     1       0.375  -3.551  -1.976  0.00  0.00    -0.467 OA
ENDBRANCH  19  22
ENDBRANCH   1  19
TORSDOF 3
