REMARK  Name = ZINC35686238
REMARK  7 active torsions:
REMARK  status: ('A' for Active; 'I' for Inactive)
REMARK    1  A    between atoms: C_1  and  C_2
REMARK    2  A    between atoms: C_9  and  C_30
REMARK    3  A    between atoms: C_10  and  C_17
REMARK    4  A    between atoms: C_15  and  C_16
REMARK    5  A    between atoms: C_17  and  C_18
REMARK    6  A    between atoms: C_18  and  C_19
REMARK    7  A    between atoms: C_25  and  C_27
REMARK                            x       y       z     vdW  Elec       q    Type
REMARK                         _______ _______ _______ _____ _____    ______ ____
ROOT
ATOM      1  C   UNL     1      -0.018   1.503   0.010  0.00  0.00    +0.047 C 
ATOM      2  C   UNL     1       0.002  -0.004   0.002  0.00  0.00    -0.005 A 
ATOM      3  C   UNL     1       0.009  -0.802  -1.073  0.00  0.00    +0.199 A 
ATOM      4  O   UNL     1       0.028  -2.093  -0.695  0.00  0.00    -0.462 OA
ATOM      5  C   UNL     1       0.035  -2.202   0.649  0.00  0.00    +0.141 A 
ATOM      6  C   UNL     1       0.025  -0.893   1.172  0.00  0.00    +0.024 A 
ATOM      7  C   UNL     1       0.035  -0.683   2.544  0.00  0.00    +0.023 A 
ATOM      8  C   UNL     1       0.058  -1.782   3.403  0.00  0.00    +0.022 A 
ATOM      9  C   UNL     1       0.068  -1.597   4.857  0.00  0.00    -0.030 A 
ATOM     10  C   UNL     1       0.090  -2.703   5.644  0.00  0.00    +0.041 A 
ATOM     11  C   UNL     1       0.102  -3.985   5.054  0.00  0.00    +0.341 A 
ATOM     12  O   UNL     1       0.121  -4.968   5.772  0.00  0.00    -0.245 OA
ATOM     13  O   UNL     1       0.092  -4.149   3.722  0.00  0.00    -0.422 OA
ATOM     14  C   UNL     1       0.071  -3.092   2.879  0.00  0.00    +0.146 A 
ATOM     15  C   UNL     1       0.053  -3.290   1.510  0.00  0.00    +0.035 A 
ATOM     16  C   UNL     1       0.070  -4.690   0.952  0.00  0.00    +0.051 C 
ATOM     17  C   UNL     1       0.056  -0.217   5.462  0.00  0.00    +0.045 C 
ENDROOT
BRANCH  10  18
ATOM     18  C   UNL     1       0.102  -2.562   7.144  0.00  0.00    +0.052 C 
BRANCH  18  19
ATOM     19  C   UNL     1      -1.329  -2.659   7.677  0.00  0.00    +0.101 C 
BRANCH  19  20
ATOM     20  C   UNL     1      -1.318  -2.518   9.177  0.00  0.00    +0.216 C 
ATOM     21  O   UNL     1      -0.268  -2.357   9.763  0.00  0.00    -0.276 OA
ATOM     22  N   UNL     1      -2.474  -2.572   9.868  0.00  0.00    -0.290 N 
ATOM     23  C   UNL     1      -3.814  -2.769   9.287  0.00  0.00    +0.108 C 
ATOM     24  C   UNL     1      -4.662  -3.365  10.438  0.00  0.00    +0.021 C 
ATOM     25  C   UNL     1      -4.105  -2.596  11.665  0.00  0.00    +0.033 C 
ATOM     26  C   UNL     1      -2.606  -2.450  11.328  0.00  0.00    +0.162 C 
BRANCH  26  27
ATOM     27  C   UNL     1      -1.816  -3.538  12.007  0.00  0.00    +0.231 C 
ATOM     28  O   UNL     1      -1.198  -4.344  11.343  0.00  0.00    -0.274 OA
ATOM     29  N   UNL     1      -1.796  -3.617  13.352  0.00  0.00    -0.328 N 
ATOM     30  H   UNL     1      -2.290  -2.973  13.883  0.00  0.00    +0.145 HD
ATOM     31  H   UNL     1      -1.287  -4.318  13.789  0.00  0.00    +0.145 HD
ENDBRANCH  26  27
ENDBRANCH  19  20
ENDBRANCH  18  19
ENDBRANCH  10  18
TORSDOF 4
