REMARK  Name = ZINC52407039
REMARK  6 active torsions:
REMARK  status: ('A' for Active; 'I' for Inactive)
REMARK    1  A    between atoms: C_3  and  N_14
REMARK    2  A    between atoms: C_4  and  N_11
REMARK    3  A    between atoms: C_6  and  S_7
REMARK    4  A    between atoms: S_7  and  N_10
REMARK    5  A    between atoms: N_14  and  C_15
REMARK    6  A    between atoms: C_15  and  C_16
REMARK                            x       y       z     vdW  Elec       q    Type
REMARK                         _______ _______ _______ _____ _____    ______ ____
ROOT
ATOM      1  C   UNL     1      -0.001   1.374  -0.215  0.00  0.00    +0.030 A 
ATOM      2  C   UNL     1       1.196   2.060  -0.276  0.00  0.00    +0.027 A 
ATOM      3  C   UNL     1       2.393   1.387  -0.066  0.00  0.00    +0.058 A 
ATOM      4  C   UNL     1       2.381   0.024   0.204  0.00  0.00    +0.149 A 
ATOM      5  C   UNL     1       1.180  -0.656   0.264  0.00  0.00    +0.063 A 
ATOM      6  C   UNL     1      -0.009   0.018   0.054  0.00  0.00    +0.107 A 
ENDROOT
BRANCH   6   7
ATOM      7  S   UNL     1      -1.539  -0.854   0.131  0.00  0.00    +0.056 S 
ATOM      8  O   UNL     1      -1.312  -2.002   0.936  0.00  0.00    -0.153 OA
ATOM      9  O   UNL     1      -2.539   0.108   0.439  0.00  0.00    -0.153 OA
BRANCH   7  10
ATOM     10  N   UNL     1      -1.866  -1.404  -1.396  0.00  0.00    -0.204 NA
ATOM     11  H   UNL     1      -1.250  -1.216  -2.122  0.00  0.00    +0.144 HD
ATOM     12  H   UNL     1      -2.674  -1.913  -1.566  0.00  0.00    +0.144 HD
ENDBRANCH   7  10
ENDBRANCH   6   7
BRANCH   4  13
ATOM     13  N   UNL     1       3.653  -0.698   0.428  0.00  0.00    +0.058 N 
ATOM     14  O   UNL     1       3.790  -1.825   0.010  0.00  0.00    -0.126 OA
ATOM     15  O   UNL     1       4.555  -0.162   1.029  0.00  0.00    -0.126 OA
ENDBRANCH   4  13
BRANCH   3  16
ATOM     16  N   UNL     1       3.605   2.077  -0.127  0.00  0.00    -0.337 N 
ATOM     17  H   UNL     1       4.443   1.593  -0.065  0.00  0.00    +0.146 HD
BRANCH  16  18
ATOM     18  C   UNL     1       3.611   3.534  -0.284  0.00  0.00    +0.144 C 
BRANCH  18  19
ATOM     19  C   UNL     1       5.034   4.029  -0.322  0.00  0.00    +0.008 A 
ATOM     20  C   UNL     1       5.850   4.202  -1.391  0.00  0.00    +0.028 A 
ATOM     21  C   UNL     1       7.133   4.674  -1.185  0.00  0.00    +0.025 A 
ATOM     22  C   UNL     1       7.537   4.950   0.079  0.00  0.00    +0.060 A 
ATOM     23  S   UNL     1       6.080   4.548   1.029  0.00  0.00    -0.099 S 
ATOM     24 BR   UNL     1       8.307   4.930  -2.646  0.00  0.00    -0.050 Br
ENDBRANCH  18  19
ENDBRANCH  16  18
ENDBRANCH   3  16
TORSDOF 6
