REMARK  Name = ZINC35023438
REMARK  6 active torsions:
REMARK  status: ('A' for Active; 'I' for Inactive)
REMARK    1  A    between atoms: C_4  and  C_7
REMARK    2  A    between atoms: C_7  and  N_8
REMARK    3  A    between atoms: N_8  and  C_9
REMARK    4  A    between atoms: C_13  and  C_20
REMARK    5  A    between atoms: N_22  and  C_23
REMARK    6  A    between atoms: C_23  and  C_24
REMARK                            x       y       z     vdW  Elec       q    Type
REMARK                         _______ _______ _______ _____ _____    ______ ____
ROOT
ATOM      1  C   UNL     1       5.372  -1.606   1.578  0.00  0.00    +0.112 A 
ATOM      2  C   UNL     1       6.156  -2.042   0.526  0.00  0.00    +0.141 A 
ATOM      3  N   UNL     1       7.292  -2.686   0.768  0.00  0.00    -0.235 NA
ATOM      4  C   UNL     1       7.701  -2.926   2.006  0.00  0.00    +0.152 A 
ATOM      5  C   UNL     1       8.924  -3.618   2.217  0.00  0.00    +0.079 A 
ATOM      6  C   UNL     1       9.343  -3.863   3.519  0.00  0.00    +0.018 A 
ATOM      7  C   UNL     1       8.554  -3.425   4.585  0.00  0.00    +0.019 A 
ATOM      8  C   UNL     1       7.394  -2.767   4.353  0.00  0.00    +0.096 A 
ATOM      9  N   UNL     1       6.965  -2.517   3.085  0.00  0.00    -0.266 N 
ATOM     10  C   UNL     1       5.804  -1.853   2.893  0.00  0.00    +0.279 A 
ATOM     11  O   UNL     1       5.139  -1.478   3.846  0.00  0.00    -0.265 OA
ENDROOT
BRANCH   5  12
ATOM     12  C   UNL     1       9.735  -4.069   1.073  0.00  0.00    +0.248 C 
ATOM     13  O   UNL     1       9.314  -3.937  -0.060  0.00  0.00    -0.270 OA
ATOM     14  N   UNL     1      10.943  -4.628   1.282  0.00  0.00    -0.307 N 
ATOM     15  H   UNL     1      11.247  -4.802   2.187  0.00  0.00    +0.149 HD
BRANCH  14  16
ATOM     16  C   UNL     1      11.797  -4.974   0.143  0.00  0.00    +0.139 C 
BRANCH  16  17
ATOM     17  C   UNL     1      13.083  -5.580   0.645  0.00  0.00    -0.030 A 
ATOM     18  C   UNL     1      14.167  -4.768   0.922  0.00  0.00    +0.008 A 
ATOM     19  C   UNL     1      15.346  -5.323   1.383  0.00  0.00    +0.038 A 
ATOM     20  C   UNL     1      15.441  -6.692   1.567  0.00  0.00    +0.123 A 
ATOM     21  C   UNL     1      14.355  -7.504   1.289  0.00  0.00    +0.038 A 
ATOM     22  C   UNL     1      13.175  -6.947   0.833  0.00  0.00    +0.008 A 
ATOM     23  F   UNL     1      16.593  -7.235   2.017  0.00  0.00    -0.205 F 
ENDBRANCH  16  17
ENDBRANCH  14  16
ENDBRANCH   5  12
BRANCH   1  24
ATOM     24  N   UNL     1       4.168  -0.924   1.337  0.00  0.00    -0.334 N 
ATOM     25  H   UNL     1       3.626  -0.619   2.082  0.00  0.00    +0.147 HD
BRANCH  24  26
ATOM     26  C   UNL     1       3.730  -0.674  -0.038  0.00  0.00    +0.137 C 
BRANCH  26  30
ATOM     27  C   UNL     1       0.012   1.430   0.008  0.00  0.00    +0.000 A 
ATOM     28  C   UNL     1       1.204   2.131   0.003  0.00  0.00    +0.000 A 
ATOM     29  C   UNL     1       2.406   1.450  -0.012  0.00  0.00    +0.005 A 
ATOM     30  C   UNL     1       2.418   0.068  -0.021  0.00  0.00    -0.030 A 
ATOM     31  C   UNL     1       1.227  -0.634  -0.015  0.00  0.00    +0.005 A 
ATOM     32  C   UNL     1       0.024   0.047  -0.002  0.00  0.00    +0.000 A 
ENDBRANCH  26  30
ENDBRANCH  24  26
ENDBRANCH   1  24
TORSDOF 6
