REMARK  Name = ZINC13402410
REMARK  4 active torsions:
REMARK  status: ('A' for Active; 'I' for Inactive)
REMARK    1  A    between atoms: C_1  and  O_2
REMARK    2  A    between atoms: O_2  and  C_3
REMARK    3  A    between atoms: C_5  and  N_26
REMARK    4  A    between atoms: C_10  and  C_19
REMARK                            x       y       z     vdW  Elec       q    Type
REMARK                         _______ _______ _______ _____ _____    ______ ____
ROOT
ATOM      1  C   UNL     1       2.828   3.463   0.352  0.00  0.00    +0.143 A 
ATOM      2  C   UNL     1       3.083   4.744   0.801  0.00  0.00    +0.080 A 
ATOM      3  C   UNL     1       2.070   5.500   1.361  0.00  0.00    +0.130 A 
ATOM      4  C   UNL     1       0.797   4.971   1.461  0.00  0.00    +0.039 A 
ATOM      5  C   UNL     1       0.529   3.696   1.006  0.00  0.00    -0.014 A 
ATOM      6  C   UNL     1       1.545   2.913   0.455  0.00  0.00    +0.074 A 
ATOM      7  N   UNL     1       1.364   1.606  -0.002  0.00  0.00    -0.334 N 
ATOM      8  C   UNL     1      -0.013   1.086   0.008  0.00  0.00    +0.108 C 
ATOM      9  C   UNL     1      -0.669   1.586   1.278  0.00  0.00    +0.029 C 
ATOM     10  C   UNL     1      -0.833   3.122   1.058  0.00  0.00    +0.049 C 
ATOM     11  C   UNL     1      -1.828   3.506   2.088  0.00  0.00    -0.023 C 
ATOM     12  C   UNL     1      -2.606   2.458   2.336  0.00  0.00    -0.030 C 
ATOM     13  C   UNL     1      -2.152   1.262   1.495  0.00  0.00    +0.033 C 
ATOM     14  H   UNL     1       1.792   1.477  -0.906  0.00  0.00    +0.147 HD
ENDROOT
BRANCH   8  15
ATOM     15  C   UNL     1      -0.763   1.596  -1.195  0.00  0.00    +0.008 A 
ATOM     16  C   UNL     1      -0.301   2.703  -1.880  0.00  0.00    +0.008 A 
ATOM     17  C   UNL     1      -0.989   3.171  -2.984  0.00  0.00    +0.000 A 
ATOM     18  C   UNL     1      -2.140   2.531  -3.405  0.00  0.00    +0.003 A 
ATOM     19  C   UNL     1      -2.605   1.424  -2.721  0.00  0.00    +0.039 A 
ATOM     20  C   UNL     1      -1.913   0.951  -1.618  0.00  0.00    +0.128 A 
ATOM     21  F   UNL     1      -2.363  -0.135  -0.952  0.00  0.00    -0.205 F 
ENDBRANCH   8  15
BRANCH   3  22
ATOM     22  N   UNL     1       2.347   6.869   1.851  0.00  0.00    +0.057 N 
ATOM     23  O   UNL     1       1.452   7.532   2.344  0.00  0.00    -0.126 OA
ATOM     24  O   UNL     1       3.470   7.332   1.762  0.00  0.00    -0.126 OA
ENDBRANCH   3  22
BRANCH   1  26
ATOM     25  C   UNL     1       5.120   3.347  -0.273  0.00  0.00    +0.277 C 
ATOM     26  O   UNL     1       3.833   2.729  -0.196  0.00  0.00    -0.493 OA
ENDBRANCH   1  26
TORSDOF 3
