REMARK  Name = ZINC38550275
REMARK  11 active torsions:
REMARK  status: ('A' for Active; 'I' for Inactive)
REMARK    1  A    between atoms: C_1  and  C_2
REMARK    2  A    between atoms: C_2  and  O_3
REMARK    3  A    between atoms: O_3  and  C_4
REMARK    4  A    between atoms: C_4  and  C_6
REMARK    5  A    between atoms: C_8  and  N_17
REMARK    6  A    between atoms: C_18  and  C_20
REMARK    7  A    between atoms: C_20  and  N_21
REMARK    8  A    between atoms: C_26  and  O_35
REMARK    9  A    between atoms: C_27  and  O_33
REMARK   10  A    between atoms: C_30  and  C_32
REMARK   11  A    between atoms: O_33  and  C_34
REMARK                            x       y       z     vdW  Elec       q    Type
REMARK                         _______ _______ _______ _____ _____    ______ ____
ROOT
ATOM      1  N   UNL     1       3.693  -0.954   1.835  0.00  0.00    -0.288 N 
ATOM      2  C   UNL     1       5.013  -1.152   1.644  0.00  0.00    +0.201 C 
ATOM      3  O   UNL     1       5.430  -2.265   1.405  0.00  0.00    -0.278 OA
ATOM      4  H   UNL     1       3.350  -0.054   1.951  0.00  0.00    +0.155 HD
ENDROOT
BRANCH   1   6
ATOM      5  C   UNL     1       3.211  -3.484   1.830  0.00  0.00    +0.234 C 
ATOM      6  C   UNL     1       2.841  -2.017   1.864  0.00  0.00    +0.053 C 
ATOM      7  C   UNL     1       1.460  -1.979   1.931  0.00  0.00    +0.020 A 
ATOM      8  C   UNL     1       0.535  -0.908   1.988  0.00  0.00    +0.050 A 
ATOM      9  C   UNL     1      -0.795  -1.170   2.050  0.00  0.00    +0.124 A 
ATOM     10  C   UNL     1      -1.283  -2.481   2.059  0.00  0.00    +0.040 A 
ATOM     11  C   UNL     1      -0.457  -3.553   2.007  0.00  0.00    +0.029 A 
ATOM     12  C   UNL     1       0.948  -3.360   1.941  0.00  0.00    +0.045 A 
ATOM     13  N   UNL     1       1.945  -4.222   1.883  0.00  0.00    -0.367 N 
ATOM     14  F   UNL     1      -1.668  -0.140   2.104  0.00  0.00    -0.205 F 
ATOM     15  H   UNL     1       1.856  -5.188   1.875  0.00  0.00    +0.161 HD
BRANCH   5  16
ATOM     16  C   UNL     1       4.064  -3.832   3.022  0.00  0.00    +0.336 C 
ATOM     17  O   UNL     1       3.562  -3.933   4.116  0.00  0.00    -0.248 OA
BRANCH  16  18
ATOM     18  O   UNL     1       5.383  -4.028   2.869  0.00  0.00    -0.463 OA
BRANCH  18  20
ATOM     19  C   UNL     1       7.598  -4.567   3.672  0.00  0.00    +0.048 C 
ATOM     20  C   UNL     1       6.109  -4.479   4.014  0.00  0.00    +0.229 C 
ENDBRANCH  18  20
ENDBRANCH  16  18
ENDBRANCH   5  16
ENDBRANCH   1   6
BRANCH   2  21
ATOM     21  C   UNL     1       5.969   0.010   1.728  0.00  0.00    +0.020 C 
BRANCH  21  22
ATOM     22  N   UNL     1       7.301  -0.420   1.283  0.00  0.00    +0.390 N 
ATOM     23  C   UNL     1       7.878  -1.342   2.273  0.00  0.00    -0.073 C 
ATOM     24  C   UNL     1       9.108  -2.011   1.659  0.00  0.00    +0.017 C 
ATOM     25  C   UNL     1      10.026  -0.961   1.085  0.00  0.00    -0.044 A 
ATOM     26  C   UNL     1      11.336  -1.313   0.796  0.00  0.00    +0.053 A 
ATOM     27  C   UNL     1      12.209  -0.380   0.265  0.00  0.00    +0.159 A 
ATOM     28  C   UNL     1      11.767   0.917   0.020  0.00  0.00    +0.161 A 
ATOM     29  C   UNL     1      10.459   1.262   0.312  0.00  0.00    +0.051 A 
ATOM     30  C   UNL     1       9.588   0.324   0.846  0.00  0.00    -0.054 A 
ATOM     31  C   UNL     1       8.176   0.749   1.154  0.00  0.00    -0.040 C 
ATOM     32  C   UNL     1       7.660   1.643   0.024  0.00  0.00    -0.008 C 
ATOM     33  H   UNL     1       7.226  -0.885   0.390  0.00  0.00    -0.080 HD
BRANCH  28  34
ATOM     34  O   UNL     1      12.616   1.841  -0.503  0.00  0.00    -0.491 OA
ATOM     35  C   UNL     1      12.092   3.151  -0.727  0.00  0.00    +0.277 C 
ENDBRANCH  28  34
BRANCH  27  36
ATOM     36  O   UNL     1      13.493  -0.729  -0.016  0.00  0.00    -0.503 OA
ATOM     37  H   UNL     1      13.621  -1.066  -0.913  0.00  0.00    +0.292 HD
ENDBRANCH  27  36
ENDBRANCH  21  22
ENDBRANCH   2  21
TORSDOF 8
