REMARK  Name = ZINC42080427
REMARK  5 active torsions:
REMARK  status: ('A' for Active; 'I' for Inactive)
REMARK    1  A    between atoms: C_1  and  C_2
REMARK    2  A    between atoms: C_3  and  N_9
REMARK    3  A    between atoms: C_4  and  C_8
REMARK    4  A    between atoms: N_5  and  C_7
REMARK    5  A    between atoms: N_9  and  C_10
REMARK                            x       y       z     vdW  Elec       q    Type
REMARK                         _______ _______ _______ _____ _____    ______ ____
ROOT
ATOM      1  C   UNL     1       0.204   1.106  -2.727  0.00  0.00    +0.190 C 
ATOM      2  C   UNL     1      -0.584   1.642  -3.900  0.00  0.00    +0.004 A 
ATOM      3  C   UNL     1      -1.930   1.848  -4.108  0.00  0.00    +0.008 A 
ATOM      4  C   UNL     1      -2.371   2.365  -5.314  0.00  0.00    +0.002 A 
ATOM      5  C   UNL     1      -1.457   2.671  -6.306  0.00  0.00    +0.017 A 
ATOM      6  C   UNL     1      -0.108   2.465  -6.100  0.00  0.00    +0.039 A 
ATOM      7  C   UNL     1       0.343   1.946  -4.888  0.00  0.00    +0.053 A 
ATOM      8  N   UNL     1       1.633   1.651  -4.445  0.00  0.00    -0.282 N 
ATOM      9  C   UNL     1       1.643   1.157  -3.192  0.00  0.00    +0.242 C 
ATOM     10  O   UNL     1       2.619   0.817  -2.556  0.00  0.00    -0.273 OA
ATOM     11 BR   UNL     1       1.130   2.888  -7.466  0.00  0.00    -0.048 Br
ATOM     12  H   UNL     1       2.432   1.787  -4.978  0.00  0.00    +0.155 HD
ENDROOT
BRANCH   1  13
ATOM     13  N   UNL     1      -0.191  -0.274  -2.431  0.00  0.00    -0.327 N 
ATOM     14  H   UNL     1       0.298  -1.013  -2.825  0.00  0.00    +0.147 HD
BRANCH  13  17
ATOM     15  C   UNL     1      -0.176   0.240   0.640  0.00  0.00    +0.069 C 
ATOM     16  C   UNL     1      -1.308  -0.308  -0.190  0.00  0.00    +0.081 A 
ATOM     17  C   UNL     1      -1.280  -0.526  -1.574  0.00  0.00    +0.072 A 
ATOM     18  C   UNL     1      -2.487  -1.024  -1.942  0.00  0.00    +0.057 A 
ATOM     19  N   UNL     1      -3.252  -1.116  -0.822  0.00  0.00    -0.270 N 
ATOM     20  N   UNL     1      -2.484  -0.665   0.260  0.00  0.00    -0.175 NA
ATOM     21  C   UNL     1      -4.631  -1.604  -0.756  0.00  0.00    +0.172 C 
ATOM     22  C   UNL     1      -2.905  -1.407  -3.339  0.00  0.00    +0.067 C 
ENDBRANCH  13  17
ENDBRANCH   1  13
TORSDOF 2
