REMARK  Name = ZINC29889034
REMARK  4 active torsions:
REMARK  status: ('A' for Active; 'I' for Inactive)
REMARK    1  A    between atoms: C_1  and  S_2
REMARK    2  A    between atoms: S_2  and  C_4
REMARK    3  A    between atoms: C_7  and  C_10
REMARK    4  A    between atoms: C_18  and  N_21
REMARK                            x       y       z     vdW  Elec       q    Type
REMARK                         _______ _______ _______ _____ _____    ______ ____
ROOT
ATOM      1  C   UNL     1       0.059  -4.251  -0.021  0.00  0.00    +0.251 C 
ATOM      2  O   UNL     1      -0.931  -4.870  -0.358  0.00  0.00    -0.270 OA
ATOM      3  N   UNL     1       1.172  -4.912   0.356  0.00  0.00    -0.267 N 
ATOM      4  C   UNL     1       2.382  -4.282   0.891  0.00  0.00    +0.118 C 
ATOM      5  C   UNL     1       3.352  -5.443   1.167  0.00  0.00    +0.056 C 
ATOM      6  C   UNL     1       2.591  -6.682   0.752  0.00  0.00    -0.024 A 
ATOM      7  C   UNL     1       1.337  -6.298   0.300  0.00  0.00    +0.042 A 
ATOM      8  C   UNL     1       0.444  -7.280  -0.135  0.00  0.00    +0.056 A 
ATOM      9  C   UNL     1       0.806  -8.610  -0.109  0.00  0.00    +0.128 A 
ATOM     10  C   UNL     1       2.057  -8.982   0.348  0.00  0.00    +0.033 A 
ATOM     11  C   UNL     1       2.951  -8.015   0.771  0.00  0.00    +0.008 A 
ENDROOT
BRANCH   1  15
ATOM     12  C   UNL     1       0.013  -0.004  -0.030  0.00  0.00    +0.039 A 
ATOM     13  C   UNL     1       1.095  -0.680   0.505  0.00  0.00    +0.018 A 
ATOM     14  C   UNL     1       1.114  -2.059   0.516  0.00  0.00    +0.014 A 
ATOM     15  C   UNL     1       0.043  -2.773  -0.024  0.00  0.00    +0.037 A 
ATOM     16  C   UNL     1      -1.043  -2.085  -0.567  0.00  0.00    +0.014 A 
ATOM     17  C   UNL     1      -1.052  -0.705  -0.567  0.00  0.00    +0.018 A 
BRANCH  12  19
ATOM     18  C   UNL     1      -0.801   2.191   1.539  0.00  0.00    +0.127 C 
ATOM     19  S   UNL     1      -0.007   1.758  -0.033  0.00  0.00    +0.051 S 
ATOM     20  O   UNL     1       1.367   2.117   0.016  0.00  0.00    -0.252 OA
ENDBRANCH  12  19
ENDBRANCH   1  15
BRANCH   9  21
ATOM     21  N   UNL     1      -0.148  -9.643  -0.571  0.00  0.00    +0.056 N 
ATOM     22  O   UNL     1      -1.250  -9.317  -0.974  0.00  0.00    -0.126 OA
ATOM     23  O   UNL     1       0.170 -10.818  -0.549  0.00  0.00    -0.126 OA
ENDBRANCH   9  21
TORSDOF 3
