REMARK  Name = ZINC38743060
REMARK  5 active torsions:
REMARK  status: ('A' for Active; 'I' for Inactive)
REMARK    1  A    between atoms: C_4  and  C_7
REMARK    2  A    between atoms: C_9  and  C_13
REMARK    3  A    between atoms: C_21  and  C_23
REMARK    4  A    between atoms: C_23  and  O_24
REMARK    5  A    between atoms: O_24  and  C_25
REMARK                            x       y       z     vdW  Elec       q    Type
REMARK                         _______ _______ _______ _____ _____    ______ ____
ROOT
ATOM      1  C   UNL     1       5.763  -2.987  -1.332  0.00  0.00    +0.206 C 
ATOM      2  N   UNL     1       5.054  -4.286  -1.429  0.00  0.00    -0.231 NA
ATOM      3  N   UNL     1       6.082  -5.335  -1.304  0.00  0.00    -0.224 NA
ATOM      4  C   UNL     1       7.162  -4.651  -0.565  0.00  0.00    +0.240 C 
ATOM      5  N   UNL     1       7.203  -3.325  -1.267  0.00  0.00    -0.206 N 
ATOM      6  N   UNL     1       8.467  -2.946  -1.664  0.00  0.00    -0.175 NA
ATOM      7  C   UNL     1       9.474  -3.755  -1.691  0.00  0.00    +0.132 C 
ATOM      8  S   UNL     1       8.810  -5.310  -1.013  0.00  0.00    -0.064 S 
ATOM      9  H   UNL     1       4.358  -4.374  -0.704  0.00  0.00    +0.143 HD
ATOM     10  H   UNL     1       6.401  -5.639  -2.212  0.00  0.00    +0.144 HD
ENDROOT
BRANCH   1  13
ATOM     11  C   UNL     1       3.699  -0.689  -0.037  0.00  0.00    +0.091 C 
ATOM     12  C   UNL     1       3.832  -2.029  -0.051  0.00  0.00    +0.034 C 
ATOM     13  C   UNL     1       5.335  -2.245  -0.065  0.00  0.00    +0.190 C 
ATOM     14  N   UNL     1       5.871  -0.874  -0.056  0.00  0.00    -0.176 NA
ATOM     15  N   UNL     1       4.919  -0.090  -0.047  0.00  0.00    -0.154 NA
BRANCH  11  19
ATOM     16  C   UNL     1      -0.017   1.379   0.010  0.00  0.00    +0.000 A 
ATOM     17  C   UNL     1       1.169   2.092   0.002  0.00  0.00    +0.001 A 
ATOM     18  C   UNL     1       2.377   1.426  -0.013  0.00  0.00    +0.010 A 
ATOM     19  C   UNL     1       2.402   0.033  -0.021  0.00  0.00    +0.002 A 
ATOM     20  C   UNL     1       1.205  -0.680  -0.013  0.00  0.00    +0.010 A 
ATOM     21  C   UNL     1       0.002  -0.004   0.002  0.00  0.00    +0.001 A 
ENDBRANCH  11  19
ENDBRANCH   1  13
BRANCH   7  22
ATOM     22  C   UNL     1      10.878  -3.476  -2.163  0.00  0.00    +0.293 C 
BRANCH  22  23
ATOM     23  O   UNL     1      10.970  -2.120  -2.606  0.00  0.00    -0.485 OA
BRANCH  23  24
ATOM     24  C   UNL     1      12.179  -1.702  -3.067  0.00  0.00    +0.121 A 
ATOM     25  C   UNL     1      13.252  -2.581  -3.097  0.00  0.00    +0.048 A 
ATOM     26  C   UNL     1      14.479  -2.156  -3.566  0.00  0.00    +0.042 A 
ATOM     27  C   UNL     1      14.640  -0.852  -4.005  0.00  0.00    +0.124 A 
ATOM     28  C   UNL     1      13.570   0.026  -3.975  0.00  0.00    +0.042 A 
ATOM     29  C   UNL     1      12.339  -0.399  -3.513  0.00  0.00    +0.048 A 
ATOM     30  F   UNL     1      15.841  -0.437  -4.462  0.00  0.00    -0.205 F 
ENDBRANCH  23  24
ENDBRANCH  22  23
ENDBRANCH   7  22
TORSDOF 5
