REMARK  Name = ZINC04943019
REMARK  5 active torsions:
REMARK  status: ('A' for Active; 'I' for Inactive)
REMARK    1  A    between atoms: C_1  and  C_2
REMARK    2  A    between atoms: C_3  and  C_9
REMARK    3  A    between atoms: C_12  and  C_14
REMARK    4  A    between atoms: C_14  and  N_15
REMARK    5  A    between atoms: N_20  and  C_21
REMARK                            x       y       z     vdW  Elec       q    Type
REMARK                         _______ _______ _______ _____ _____    ______ ____
ROOT
ATOM      1  C   UNL     1       3.696  -0.683  -0.038  0.00  0.00    +0.136 A 
ATOM      2  C   UNL     1       4.729  -0.446  -0.891  0.00  0.00    +0.050 A 
ATOM      3  C   UNL     1       5.752  -1.354  -0.551  0.00  0.00    +0.047 A 
ATOM      4  C   UNL     1       5.298  -2.092   0.481  0.00  0.00    +0.123 A 
ATOM      5  O   UNL     1       4.057  -1.680   0.791  0.00  0.00    -0.458 OA
ENDROOT
BRANCH   1   8
ATOM      6  C   UNL     1       1.225  -2.187  -0.023  0.00  0.00    +0.046 C 
ATOM      7  C   UNL     1       1.205  -0.680  -0.014  0.00  0.00    -0.022 A 
ATOM      8  C   UNL     1       2.404   0.035  -0.021  0.00  0.00    +0.022 A 
ATOM      9  C   UNL     1       2.377   1.430  -0.013  0.00  0.00    +0.012 A 
ATOM     10  C   UNL     1       1.168   2.094   0.002  0.00  0.00    +0.002 A 
ATOM     11  C   UNL     1      -0.017   1.381   0.010  0.00  0.00    +0.020 A 
ATOM     12  C   UNL     1       0.002  -0.004   0.002  0.00  0.00    +0.045 A 
ATOM     13 CL   UNL     1      -1.490  -0.891   0.012  0.00  0.00    -0.083 Cl
ENDBRANCH   1   8
BRANCH   4  14
ATOM     14  C   UNL     1       6.057  -3.193   1.175  0.00  0.00    +0.179 C 
BRANCH  14  15
ATOM     15  N   UNL     1       6.825  -2.629   2.288  0.00  0.00    -0.305 N 
ATOM     16  C   UNL     1       7.607  -3.454   3.078  0.00  0.00    +0.235 A 
ATOM     17  N   UNL     1       7.753  -4.754   2.943  0.00  0.00    -0.092 NA
ATOM     18  N   UNL     1       8.549  -5.213   3.841  0.00  0.00    -0.021 NA
ATOM     19  N   UNL     1       8.963  -4.258   4.601  0.00  0.00    -0.043 NA
ATOM     20  N   UNL     1       8.369  -3.074   4.129  0.00  0.00    -0.217 N 
ATOM     21  C   UNL     1       8.537  -1.720   4.662  0.00  0.00    +0.178 C 
ATOM     22  H   UNL     1       6.786  -1.677   2.472  0.00  0.00    +0.149 HD
ENDBRANCH  14  15
ENDBRANCH   4  14
TORSDOF 3
