REMARK  Name = ZINC31158196
REMARK  7 active torsions:
REMARK  status: ('A' for Active; 'I' for Inactive)
REMARK    1  A    between atoms: C_1  and  C_2
REMARK    2  A    between atoms: C_7  and  C_30
REMARK    3  A    between atoms: C_12  and  C_17
REMARK    4  A    between atoms: C_24  and  O_29
REMARK    5  A    between atoms: C_30  and  O_31
REMARK    6  A    between atoms: O_31  and  C_32
REMARK    7  A    between atoms: C_32  and  C_34
REMARK                            x       y       z     vdW  Elec       q    Type
REMARK                         _______ _______ _______ _____ _____    ______ ____
ROOT
ATOM      1  C   UNL     1      -0.019   1.527   0.010  0.00  0.00    +0.009 C 
ATOM      2  C   UNL     1       0.002  -0.004   0.002  0.00  0.00    +0.010 C 
ATOM      3  C   UNL     1      -1.441  -0.512  -0.034  0.00  0.00    +0.079 C 
ATOM      4  C   UNL     1      -1.450  -2.023   0.073  0.00  0.00    +0.146 C 
ATOM      5  O   UNL     1      -2.066  -2.690  -0.724  0.00  0.00    -0.297 OA
ATOM      6  C   UNL     1      -0.683  -2.650   1.208  0.00  0.00    +0.100 C 
ATOM      7  C   UNL     1       0.718  -2.050   1.262  0.00  0.00    +0.026 C 
ATOM      8  C   UNL     1       0.742  -0.537   1.221  0.00  0.00    +0.078 C 
ATOM      9  C   UNL     1       2.223  -0.076   1.171  0.00  0.00    +0.068 C 
ATOM     10  C   UNL     1       2.504   0.319   2.642  0.00  0.00    +0.211 C 
ATOM     11  O   UNL     1       1.281   0.082   3.361  0.00  0.00    -0.456 OA
ATOM     12  C   UNL     1       0.244   0.092   2.497  0.00  0.00    +0.315 C 
ATOM     13  O   UNL     1      -0.853   0.533   2.725  0.00  0.00    -0.250 OA
ATOM     14  C   UNL     1       1.499  -2.636   2.432  0.00  0.00    +0.008 C 
ATOM     15  C   UNL     1       1.687  -4.141   2.213  0.00  0.00    +0.034 C 
ATOM     16  C   UNL     1       0.333  -4.843   2.089  0.00  0.00    +0.150 C 
ATOM     17  C   UNL     1      -0.505  -4.159   1.004  0.00  0.00    +0.134 C 
ATOM     18  C   UNL     1      -0.375  -4.685  -0.424  0.00  0.00    +0.199 C 
ATOM     19  O   UNL     1      -1.544  -4.895   0.373  0.00  0.00    -0.364 OA
ENDROOT
BRANCH  10  20
ATOM     20  C   UNL     1       2.903   1.769   2.737  0.00  0.00    +0.030 A 
ATOM     21  C   UNL     1       4.220   2.281   2.753  0.00  0.00    +0.048 A 
ATOM     22  C   UNL     1       4.117   3.619   2.848  0.00  0.00    +0.195 A 
ATOM     23  O   UNL     1       2.815   3.942   2.889  0.00  0.00    -0.471 OA
ATOM     24  C   UNL     1       2.073   2.825   2.817  0.00  0.00    +0.202 A 
ENDBRANCH  10  20
BRANCH  16  25
ATOM     25  O   UNL     1       0.542  -6.214   1.734  0.00  0.00    -0.389 OA
ATOM     26  H   UNL     1       1.065  -6.711   2.377  0.00  0.00    +0.210 HD
ENDBRANCH  16  25
BRANCH   6  27
ATOM     27  C   UNL     1      -1.454  -2.428   2.511  0.00  0.00    +0.250 C 
BRANCH  27  28
ATOM     28  O   UNL     1      -2.745  -3.031   2.410  0.00  0.00    -0.464 OA
BRANCH  28  29
ATOM     29  C   UNL     1      -3.552  -2.926   3.477  0.00  0.00    +0.304 C 
ATOM     30  O   UNL     1      -3.175  -2.341   4.464  0.00  0.00    -0.251 OA
ATOM     31  C   UNL     1      -4.929  -3.538   3.443  0.00  0.00    +0.136 C 
ENDBRANCH  28  29
ENDBRANCH  27  28
ENDBRANCH   6  27
TORSDOF 5
