REMARK  Name = ZINC01081382
REMARK  1 active torsions:
REMARK  status: ('A' for Active; 'I' for Inactive)
REMARK    1  A    between atoms: C_9  and  C_12
REMARK                            x       y       z     vdW  Elec       q    Type
REMARK                         _______ _______ _______ _____ _____    ______ ____
ROOT
ATOM      1  C   UNL     1       2.988   5.126   0.899  0.00  0.00    +0.239 C 
ATOM      2  C   UNL     1       2.134   6.265   0.320  0.00  0.00    +0.204 C 
ATOM      3  C   UNL     1       2.741   6.486  -1.091  0.00  0.00    +0.262 C 
ATOM      4  C   UNL     1       3.541   5.213  -1.321  0.00  0.00    +0.340 C 
ATOM      5  O   UNL     1       3.748   4.679  -2.385  0.00  0.00    -0.248 OA
ATOM      6  O   UNL     1       3.973   4.791  -0.120  0.00  0.00    -0.454 OA
ATOM      7  O   UNL     1       3.675   7.565  -0.919  0.00  0.00    -0.331 OA
ATOM      8  C   UNL     1       3.473   8.142   0.372  0.00  0.00    +0.172 C 
ATOM      9  O   UNL     1       2.356   7.484   1.034  0.00  0.00    -0.338 OA
ATOM     10  C   UNL     1       3.161   9.634   0.224  0.00  0.00    +0.065 C 
ATOM     11  C   UNL     1       4.336  10.334  -0.463  0.00  0.00    +0.005 C 
ATOM     12  C   UNL     1       5.600  10.157   0.380  0.00  0.00    +0.000 C 
ATOM     13  C   UNL     1       5.911   8.666   0.526  0.00  0.00    +0.005 C 
ATOM     14  C   UNL     1       4.739   7.965   1.215  0.00  0.00    +0.065 C 
ENDROOT
BRANCH   1  23
ATOM     15  C   UNL     1       0.723  -0.497  -1.254  0.00  0.00    +0.000 C 
ATOM     16  C   UNL     1       0.002  -0.004   0.002  0.00  0.00    +0.005 C 
ATOM     17  C   UNL     1      -0.019   1.526   0.010  0.00  0.00    +0.065 C 
ATOM     18  C   UNL     1       1.417   2.054  -0.000  0.00  0.00    +0.171 C 
ATOM     19  C   UNL     1       2.142   1.559  -1.253  0.00  0.00    +0.065 C 
ATOM     20  C   UNL     1       2.159   0.029  -1.259  0.00  0.00    +0.005 C 
ATOM     21  O   UNL     1       2.107   1.585   1.169  0.00  0.00    -0.346 OA
ATOM     22  C   UNL     1       2.979   2.677   1.547  0.00  0.00    +0.198 C 
ATOM     23  C   UNL     1       2.109   3.910   1.198  0.00  0.00    +0.190 C 
ATOM     24  O   UNL     1       1.403   3.487   0.014  0.00  0.00    -0.339 OA
ENDBRANCH   1  23
TORSDOF 1
