REMARK  Name = ZINC42337014
REMARK  4 active torsions:
REMARK  status: ('A' for Active; 'I' for Inactive)
REMARK    1  A    between atoms: C_1  and  C_2
REMARK    2  A    between atoms: C_4  and  N_16
REMARK    3  A    between atoms: C_7  and  N_8
REMARK    4  A    between atoms: N_8  and  C_9
REMARK                            x       y       z     vdW  Elec       q    Type
REMARK                         _______ _______ _______ _____ _____    ______ ____
ROOT
ATOM      1  C   UNL     1      -0.018   1.503   0.010  0.00  0.00    +0.046 C 
ATOM      2  C   UNL     1       0.002  -0.004   0.002  0.00  0.00    -0.027 A 
ATOM      3  C   UNL     1       0.006  -0.689  -1.198  0.00  0.00    +0.038 A 
ATOM      4  C   UNL     1       0.025  -2.071  -1.206  0.00  0.00    +0.127 A 
ATOM      5  C   UNL     1       0.040  -2.773  -0.014  0.00  0.00    +0.034 A 
ATOM      6  C   UNL     1       0.036  -2.095   1.188  0.00  0.00    +0.025 A 
ATOM      7  C   UNL     1       0.023  -0.706   1.200  0.00  0.00    +0.030 A 
ENDROOT
BRANCH   4   8
ATOM      8  N   UNL     1       0.028  -2.802  -2.493  0.00  0.00    +0.056 N 
ATOM      9  O   UNL     1       0.014  -2.190  -3.536  0.00  0.00    -0.126 OA
ATOM     10  O   UNL     1       0.044  -4.011  -2.502  0.00  0.00    -0.126 OA
ENDBRANCH   4   8
BRANCH   7  11
ATOM     11  N   UNL     1       0.025  -0.016   2.415  0.00  0.00    -0.341 N 
ATOM     12  H   UNL     1       0.012   0.954   2.422  0.00  0.00    +0.146 HD
BRANCH  11  13
ATOM     13  C   UNL     1       0.047  -0.758   3.678  0.00  0.00    +0.072 C 
ATOM     14  C   UNL     1       1.488  -1.129   4.018  0.00  0.00    +0.035 C 
ATOM     15  C   UNL     1       1.509  -2.142   5.166  0.00  0.00    +0.105 C 
ATOM     16  S   UNL     1       0.779  -1.367   6.640  0.00  0.00    +0.022 S 
ATOM     17  O   UNL     1       0.550  -2.359   7.632  0.00  0.00    -0.257 OA
ATOM     18  C   UNL     1      -0.815  -0.743   6.028  0.00  0.00    +0.105 C 
ATOM     19  C   UNL     1      -0.563   0.105   4.778  0.00  0.00    +0.035 C 
ENDBRANCH  11  13
ENDBRANCH   7  11
TORSDOF 3
