REMARK  Name = ZINC37012328
REMARK  4 active torsions:
REMARK  status: ('A' for Active; 'I' for Inactive)
REMARK    1  A    between atoms: C_1  and  C_2
REMARK    2  A    between atoms: C_2  and  C_4
REMARK    3  A    between atoms: N_6  and  C_7
REMARK    4  A    between atoms: C_12  and  N_13
REMARK                            x       y       z     vdW  Elec       q    Type
REMARK                         _______ _______ _______ _____ _____    ______ ____
ROOT
ATOM      1  C   UNL     1       0.894  -2.071   3.040  0.00  0.00    +0.064 A 
ATOM      2  C   UNL     1       2.092  -1.516   3.470  0.00  0.00    +0.027 A 
ATOM      3  C   UNL     1       2.765  -2.073   4.539  0.00  0.00    +0.017 A 
ATOM      4  C   UNL     1       2.248  -3.185   5.181  0.00  0.00    +0.020 A 
ATOM      5  C   UNL     1       1.055  -3.740   4.754  0.00  0.00    +0.050 A 
ATOM      6  C   UNL     1       0.374  -3.183   3.689  0.00  0.00    +0.148 A 
ATOM      7 BR   UNL     1       3.174  -3.947   6.643  0.00  0.00    -0.050 Br
ENDROOT
BRANCH   1  10
ATOM      8  C   UNL     1       0.897  -0.975   0.928  0.00  0.00    +0.235 C 
ATOM      9  O   UNL     1       2.107  -0.911   0.976  0.00  0.00    -0.274 OA
ATOM     10  N   UNL     1       0.209  -1.507   1.957  0.00  0.00    -0.282 N 
ATOM     11  H   UNL     1      -0.761  -1.500   1.948  0.00  0.00    +0.155 HD
BRANCH   8  13
ATOM     12  C   UNL     1       0.736   0.900  -0.687  0.00  0.00    +0.034 C 
ATOM     13  C   UNL     1       0.162  -0.459  -0.283  0.00  0.00    +0.163 C 
ATOM     14 CL   UNL     1       0.359  -1.623  -1.646  0.00  0.00    -0.112 Cl
ENDBRANCH   8  13
ENDBRANCH   1  10
BRANCH   6  15
ATOM     15  N   UNL     1      -0.906  -3.774   3.237  0.00  0.00    +0.058 N 
ATOM     16  O   UNL     1      -1.407  -4.680   3.861  0.00  0.00    -0.126 OA
ATOM     17  O   UNL     1      -1.449  -3.350   2.244  0.00  0.00    -0.126 OA
ENDBRANCH   6  15
TORSDOF 3
