REMARK  Name = ZINC01040806
REMARK  5 active torsions:
REMARK  status: ('A' for Active; 'I' for Inactive)
REMARK    1  A    between atoms: C_1  and  C_2
REMARK    2  A    between atoms: C_2  and  C_15
REMARK    3  A    between atoms: C_7  and  C_13
REMARK    4  A    between atoms: C_10  and  S_11
REMARK    5  A    between atoms: S_11  and  C_12
REMARK                            x       y       z     vdW  Elec       q    Type
REMARK                         _______ _______ _______ _____ _____    ______ ____
ROOT
ATOM      1  C   UNL     1       4.173   2.400   1.408  0.00  0.00    +0.060 C 
ATOM      2  C   UNL     1       3.672   2.185  -0.021  0.00  0.00    +0.152 C 
ATOM      3  N   UNL     1       3.493   3.480  -0.704  0.00  0.00    -0.202 NA
ATOM      4  N   UNL     1       4.343   3.459  -1.777  0.00  0.00    -0.193 N 
ATOM      5  C   UNL     1       5.027   2.264  -1.811  0.00  0.00    +0.158 C 
ATOM      6  N   UNL     1       4.683   1.481  -0.821  0.00  0.00    -0.238 NA
ATOM      7  C   UNL     1       5.996   2.059  -2.906  0.00  0.00    +0.111 C 
ATOM      8  C   UNL     1       6.156   3.086  -3.832  0.00  0.00    +0.135 C 
ATOM      9  N   UNL     1       5.450   4.201  -3.713  0.00  0.00    -0.231 NA
ATOM     10  C   UNL     1       4.582   4.396  -2.741  0.00  0.00    +0.176 C 
ATOM     11  H   UNL     1       2.537   3.603  -1.002  0.00  0.00    +0.148 HD
ENDROOT
BRANCH   2  12
ATOM     12  C   UNL     1       2.378   1.412  -0.013  0.00  0.00    -0.003 A 
ATOM     13  C   UNL     1       1.171   2.087   0.002  0.00  0.00    +0.009 A 
ATOM     14  C   UNL     1      -0.017   1.379   0.010  0.00  0.00    +0.022 A 
ATOM     15  C   UNL     1       0.002  -0.004   0.002  0.00  0.00    +0.059 A 
ATOM     16  C   UNL     1       1.211  -0.679  -0.013  0.00  0.00    +0.060 A 
ATOM     17  C   UNL     1       2.398   0.030  -0.021  0.00  0.00    +0.028 A 
ATOM     18 CL   UNL     1       1.236  -2.415  -0.022  0.00  0.00    -0.082 Cl
ATOM     19 CL   UNL     1      -1.489  -0.893   0.011  0.00  0.00    -0.082 Cl
ENDBRANCH   2  12
BRANCH  10  20
ATOM     20  S   UNL     1       3.699   5.919  -2.683  0.00  0.00    -0.092 S 
ATOM     21  C   UNL     1       4.389   6.739  -4.142  0.00  0.00    +0.093 C 
ENDBRANCH  10  20
BRANCH   7  22
ATOM     22  C   UNL     1       6.747   0.845  -3.012  0.00  0.00    +0.104 C 
ATOM     23  N   UNL     1       7.343  -0.119  -3.096  0.00  0.00    -0.191 NA
ENDBRANCH   7  22
TORSDOF 3
