REMARK  Name = ZINC00161681
REMARK  3 active torsions:
REMARK  status: ('A' for Active; 'I' for Inactive)
REMARK    1  A    between atoms: C_1  and  C_2
REMARK    2  A    between atoms: N_8  and  C_9
REMARK    3  A    between atoms: N_18  and  C_19
REMARK                            x       y       z     vdW  Elec       q    Type
REMARK                         _______ _______ _______ _____ _____    ______ ____
ROOT
ATOM      1  C   UNL     1      -0.804   0.906  -0.584  0.00  0.00    +0.021 C 
ATOM      2  C   UNL     1       0.271   0.570   0.451  0.00  0.00    +0.072 C 
ATOM      3  C   UNL     1      -0.131   1.065   1.859  0.00  0.00    +0.158 C 
ATOM      4  N   UNL     1       0.782   2.053   2.385  0.00  0.00    -0.262 NA
ATOM      5  C   UNL     1       1.816   2.457   1.720  0.00  0.00    +0.164 C 
ATOM      6  S   UNL     1       1.789   1.562   0.180  0.00  0.00    -0.085 S 
ATOM      7  N   UNL     1       2.753   3.392   2.124  0.00  0.00    -0.203 N 
ATOM      8  C   UNL     1       3.840   3.628   1.363  0.00  0.00    +0.312 C 
ATOM      9  O   UNL     1       3.949   3.094   0.277  0.00  0.00    -0.252 OA
ATOM     10  N   UNL     1       4.805   4.458   1.807  0.00  0.00    -0.302 N 
ATOM     11  C   UNL     1       6.031   4.639   1.026  0.00  0.00    +0.129 C 
ATOM     12  H   UNL     1       4.688   4.934   2.644  0.00  0.00    +0.150 HD
ENDROOT
BRANCH   7  13
ATOM     13  C   UNL     1       2.571   4.092   3.325  0.00  0.00    +0.045 A 
ATOM     14  C   UNL     1       3.411   3.853   4.404  0.00  0.00    +0.025 A 
ATOM     15  C   UNL     1       3.233   4.549   5.583  0.00  0.00    +0.022 A 
ATOM     16  C   UNL     1       2.211   5.476   5.694  0.00  0.00    +0.041 A 
ATOM     17  C   UNL     1       1.369   5.712   4.622  0.00  0.00    +0.022 A 
ATOM     18  C   UNL     1       1.546   5.023   3.438  0.00  0.00    +0.025 A 
ATOM     19 CL   UNL     1       1.986   6.343   7.181  0.00  0.00    -0.084 Cl
ENDBRANCH   7  13
TORSDOF 1
