REMARK  Name = ZINC00207304
REMARK  3 active torsions:
REMARK  status: ('A' for Active; 'I' for Inactive)
REMARK    1  A    between atoms: C_3  and  S_6
REMARK    2  A    between atoms: S_6  and  N_9
REMARK    3  A    between atoms: N_9  and  C_10
REMARK                            x       y       z     vdW  Elec       q    Type
REMARK                         _______ _______ _______ _____ _____    ______ ____
ROOT
ATOM      1  C   UNL     1      -1.115   3.245  -1.562  0.00  0.00    +0.049 A 
ATOM      2  C   UNL     1      -0.060   4.149  -1.453  0.00  0.00    +0.028 A 
ATOM      3  C   UNL     1      -0.259   5.490  -1.697  0.00  0.00    +0.049 A 
ATOM      4  C   UNL     1      -1.518   5.954  -2.055  0.00  0.00    +0.136 A 
ATOM      5  C   UNL     1      -2.585   5.045  -2.166  0.00  0.00    +0.025 A 
ATOM      6  C   UNL     1      -2.374   3.688  -1.922  0.00  0.00    +0.036 A 
ATOM      7  C   UNL     1      -3.740   5.853  -2.549  0.00  0.00    +0.001 A 
ATOM      8  C   UNL     1      -3.311   7.123  -2.639  0.00  0.00    +0.109 A 
ATOM      9  O   UNL     1      -2.002   7.181  -2.347  0.00  0.00    -0.459 OA
ATOM     10  C   UNL     1      -4.206   8.282  -3.017  0.00  0.00    +0.075 C 
ATOM     11  C   UNL     1      -5.478   7.724  -3.665  0.00  0.00    +0.008 C 
ATOM     12  C   UNL     1      -6.070   6.630  -2.772  0.00  0.00    +0.005 C 
ATOM     13  C   UNL     1      -5.153   5.400  -2.804  0.00  0.00    +0.039 C 
ENDROOT
BRANCH   1  14
ATOM     14  N   UNL     1      -0.897   1.885  -1.312  0.00  0.00    -0.216 N 
ATOM     15  H   UNL     1      -1.263   1.218  -1.913  0.00  0.00    +0.174 HD
BRANCH  14  16
ATOM     16  S   UNL     1      -0.017   1.417   0.010  0.00  0.00    +0.079 S 
ATOM     17  O   UNL     1       0.002  -0.004   0.002  0.00  0.00    -0.149 OA
ATOM     18  O   UNL     1       1.172   2.195   0.003  0.00  0.00    -0.149 OA
BRANCH  16  21
ATOM     19  C   UNL     1      -2.451   1.790   3.236  0.00  0.00    +0.010 A 
ATOM     20  C   UNL     1      -1.862   1.205   2.132  0.00  0.00    +0.036 A 
ATOM     21  C   UNL     1      -0.927   1.900   1.439  0.00  0.00    +0.146 A 
ATOM     22  S   UNL     1      -0.850   3.430   2.357  0.00  0.00    -0.077 S 
ATOM     23  C   UNL     1      -2.076   3.043   3.595  0.00  0.00    +0.047 A 
ENDBRANCH  16  21
ENDBRANCH  14  16
ENDBRANCH   1  14
TORSDOF 3
