REMARK  Name = ZINC24093712
REMARK  10 active torsions:
REMARK  status: ('A' for Active; 'I' for Inactive)
REMARK    1  A    between atoms: C_1  and  C_2
REMARK    2  A    between atoms: C_2  and  N_3
REMARK    3  A    between atoms: N_3  and  C_4
REMARK    4  A    between atoms: C_10  and  C_12
REMARK    5  A    between atoms: C_12  and  N_13
REMARK    6  A    between atoms: C_16  and  C_20
REMARK    7  A    between atoms: C_16  and  C_21
REMARK    8  A    between atoms: C_24  and  C_27
REMARK    9  A    between atoms: C_27  and  C_28
REMARK   10  A    between atoms: C_27  and  C_29
REMARK                            x       y       z     vdW  Elec       q    Type
REMARK                         _______ _______ _______ _____ _____    ______ ____
ROOT
ATOM      1  N   UNL     1       2.905   5.533   1.550  0.00  0.00    -0.215 N 
ATOM      2  C   UNL     1       1.965   5.650   0.591  0.00  0.00    +0.251 C 
ATOM      3  O   UNL     1       1.184   6.565   0.439  0.00  0.00    -0.272 OA
ATOM      4  C   UNL     1       2.088   4.400  -0.258  0.00  0.00    +0.135 C 
ATOM      5  N   UNL     1       3.186   3.655   0.381  0.00  0.00    -0.281 N 
ATOM      6  C   UNL     1       3.598   4.395   1.425  0.00  0.00    +0.310 C 
ATOM      7  O   UNL     1       4.498   4.068   2.173  0.00  0.00    -0.252 OA
ATOM      8  C   UNL     1       2.446   4.763  -1.700  0.00  0.00    +0.047 C 
ATOM      9  H   UNL     1       3.503   2.685  -0.029  0.00  0.00    +0.152 HD
ENDROOT
BRANCH   4  10
ATOM     10  C   UNL     1       0.810   3.603  -0.215  0.00  0.00    -0.015 A 
ATOM     11  C   UNL     1       0.848   2.228  -0.352  0.00  0.00    +0.006 A 
ATOM     12  C   UNL     1      -0.324   1.496  -0.314  0.00  0.00    +0.004 A 
ATOM     13  C   UNL     1      -1.535   2.140  -0.143  0.00  0.00    -0.045 A 
ATOM     14  C   UNL     1      -1.573   3.514   0.000  0.00  0.00    +0.004 A 
ATOM     15  C   UNL     1      -0.401   4.246  -0.039  0.00  0.00    +0.006 A 
BRANCH  13  16
ATOM     16  C   UNL     1      -2.814   1.343  -0.107  0.00  0.00    +0.013 C 
ATOM     17  C   UNL     1      -3.513   1.560   1.237  0.00  0.00    +0.012 C 
ATOM     18  C   UNL     1      -3.733   1.802  -1.240  0.00  0.00    +0.012 C 
ENDBRANCH  13  16
ENDBRANCH   4  10
BRANCH   1  19
ATOM     19  C   UNL     1       3.140   6.530   2.598  0.00  0.00    +0.214 C 
BRANCH  19  21
ATOM     20  N   UNL     1       2.334   6.997   4.889  0.00  0.00    -0.274 N 
ATOM     21  C   UNL     1       2.284   6.210   3.796  0.00  0.00    +0.237 C 
ATOM     22  O   UNL     1       1.549   5.246   3.776  0.00  0.00    -0.274 OA
BRANCH  20  23
ATOM     23  C   UNL     1       1.470   6.763   5.955  0.00  0.00    +0.010 C 
ATOM     24  C   UNL     1       1.590   5.640   6.606  0.00  0.00    -0.008 C 
ATOM     25  C   UNL     1       0.728   5.250   7.771  0.00  0.00    +0.029 C 
ATOM     26  C   UNL     1       0.007   6.479   8.330  0.00  0.00    +0.004 C 
ATOM     27  C   UNL     1      -0.651   7.228   7.164  0.00  0.00    +0.006 C 
ATOM     28  C   UNL     1       0.452   7.817   6.282  0.00  0.00    +0.051 C 
ENDBRANCH  20  23
BRANCH  20  30
ATOM     29  C   UNL     1       2.683   9.353   4.330  0.00  0.00    +0.025 C 
ATOM     30  C   UNL     1       3.298   8.098   4.955  0.00  0.00    +0.110 C 
ENDBRANCH  20  30
ENDBRANCH  19  21
ENDBRANCH   1  19
TORSDOF 6
