REMARK  Name = ZINC25147515
REMARK  6 active torsions:
REMARK  status: ('A' for Active; 'I' for Inactive)
REMARK    1  A    between atoms: C_1  and  C_2
REMARK    2  A    between atoms: C_5  and  C_8
REMARK    3  A    between atoms: C_8  and  C_9
REMARK    4  A    between atoms: C_9  and  C_10
REMARK    5  A    between atoms: N_13  and  S_16
REMARK    6  A    between atoms: S_16  and  C_19
REMARK                            x       y       z     vdW  Elec       q    Type
REMARK                         _______ _______ _______ _____ _____    ______ ____
ROOT
ATOM      1  S   UNL     1      -2.805   4.287   0.052  0.00  0.00    +0.061 S 
ATOM      2  O   UNL     1      -3.755   3.388   0.607  0.00  0.00    -0.153 OA
ATOM      3  O   UNL     1      -2.557   5.572   0.607  0.00  0.00    -0.153 OA
ENDROOT
BRANCH   1   4
ATOM      4  C   UNL     1      -1.261   3.440   0.033  0.00  0.00    +0.108 A 
ATOM      5  C   UNL     1      -0.078   4.160   0.025  0.00  0.00    +0.030 A 
ATOM      6  C   UNL     1       1.135   3.504   0.010  0.00  0.00    +0.030 A 
ATOM      7  C   UNL     1       1.175   2.114   0.002  0.00  0.00    +0.066 A 
ATOM      8  C   UNL     1      -0.017   1.388   0.010  0.00  0.00    +0.068 A 
ATOM      9  C   UNL     1      -1.234   2.060   0.031  0.00  0.00    +0.056 A 
ATOM     10  N   UNL     1       0.002  -0.004   0.002  0.00  0.00    -0.316 N 
ATOM     11  H   UNL     1      -0.943  -0.567   0.008  0.00  0.00    +0.169 HD
ATOM     12  C   UNL     1       1.178  -0.664  -0.013  0.00  0.00    +0.314 A 
ATOM     13  O   UNL     1       1.199  -1.879  -0.020  0.00  0.00    -0.262 OA
ATOM     14  C   UNL     1       2.451   0.112  -0.021  0.00  0.00    +0.314 A 
ATOM     15  O   UNL     1       3.521  -0.464  -0.034  0.00  0.00    -0.262 OA
ATOM     16  N   UNL     1       2.404   1.460  -0.013  0.00  0.00    -0.316 N 
ATOM     17  H   UNL     1       3.337   2.042  -0.019  0.00  0.00    +0.169 HD
ENDBRANCH   1   4
BRANCH   1  21
ATOM     18  C   UNL     1      -4.846   5.408  -3.688  0.00  0.00    -0.008 C 
ATOM     19  C   UNL     1      -5.293   4.227  -2.824  0.00  0.00    +0.020 C 
ATOM     20  C   UNL     1      -4.059   3.534  -2.237  0.00  0.00    +0.110 C 
ATOM     21  N   UNL     1      -3.249   4.532  -1.525  0.00  0.00    -0.177 NA
ATOM     22  C   UNL     1      -2.847   5.753  -2.235  0.00  0.00    +0.110 C 
ATOM     23  C   UNL     1      -4.090   6.419  -2.823  0.00  0.00    +0.020 C 
BRANCH  18  24
ATOM     24  C   UNL     1      -6.075   6.082  -4.303  0.00  0.00    +0.008 C 
BRANCH  24  25
ATOM     25  C   UNL     1      -5.624   7.183  -5.265  0.00  0.00    +0.035 C 
BRANCH  25  30
ATOM     26  C   UNL     1     -10.263   9.728  -7.588  0.00  0.00    +0.044 C 
ATOM     27  C   UNL     1      -9.053   9.065  -6.983  0.00  0.00    -0.050 A 
ATOM     28  C   UNL     1      -8.514   9.552  -5.806  0.00  0.00    +0.003 A 
ATOM     29  C   UNL     1      -7.404   8.943  -5.251  0.00  0.00    +0.004 A 
ATOM     30  C   UNL     1      -6.834   7.847  -5.871  0.00  0.00    -0.047 A 
ATOM     31  C   UNL     1      -7.369   7.364  -7.050  0.00  0.00    +0.004 A 
ATOM     32  C   UNL     1      -8.482   7.970  -7.604  0.00  0.00    +0.003 A 
ENDBRANCH  25  30
ENDBRANCH  24  25
ENDBRANCH  18  24
ENDBRANCH   1  21
TORSDOF 5
