REMARK  Name = ZINC39698887
REMARK  5 active torsions:
REMARK  status: ('A' for Active; 'I' for Inactive)
REMARK    1  A    between atoms: C_1  and  C_2
REMARK    2  A    between atoms: C_6  and  S_14
REMARK    3  A    between atoms: N_7  and  C_8
REMARK    4  A    between atoms: S_14  and  C_15
REMARK    5  A    between atoms: C_17  and  C_27
REMARK                            x       y       z     vdW  Elec       q    Type
REMARK                         _______ _______ _______ _____ _____    ______ ____
ROOT
ATOM      1  C   UNL     1      -1.353  -2.947   3.790  0.00  0.00    +0.171 C 
ATOM      2  C   UNL     1      -1.455  -3.461   5.214  0.00  0.00    -0.009 C 
ATOM      3  C   UNL     1      -1.855  -4.790   5.381  0.00  0.00    +0.001 A 
ATOM      4  C   UNL     1      -1.977  -5.349   6.670  0.00  0.00    +0.010 A 
ATOM      5  C   UNL     1      -2.367  -6.645   6.805  0.00  0.00    +0.001 A 
ATOM      6  C   UNL     1      -2.650  -7.435   5.694  0.00  0.00    +0.002 A 
ATOM      7  C   UNL     1      -2.551  -6.952   4.424  0.00  0.00    +0.024 A 
ATOM      8  C   UNL     1      -2.153  -5.620   4.209  0.00  0.00    +0.041 A 
ATOM      9  N   UNL     1      -2.055  -5.147   2.962  0.00  0.00    -0.284 N 
ATOM     10  C   UNL     1      -1.689  -3.913   2.678  0.00  0.00    +0.235 C 
ATOM     11  O   UNL     1      -1.623  -3.552   1.518  0.00  0.00    -0.274 OA
ATOM     12  H   UNL     1      -2.265  -5.745   2.227  0.00  0.00    +0.155 HD
ENDROOT
BRANCH   2  13
ATOM     13  C   UNL     1      -1.159  -2.631   6.324  0.00  0.00    -0.020 A 
ATOM     14  C   UNL     1      -0.073  -2.932   7.162  0.00  0.00    +0.008 A 
ATOM     15  C   UNL     1       0.206  -2.119   8.238  0.00  0.00    +0.001 A 
ATOM     16  C   UNL     1      -0.581  -1.008   8.496  0.00  0.00    +0.000 A 
ATOM     17  C   UNL     1      -1.654  -0.702   7.675  0.00  0.00    +0.001 A 
ATOM     18  C   UNL     1      -1.947  -1.498   6.590  0.00  0.00    +0.008 A 
ENDBRANCH   2  13
BRANCH   1  19
ATOM     19  S   UNL     1       0.346  -2.367   3.529  0.00  0.00    -0.071 S 
BRANCH  19  24
ATOM     20  C   UNL     1       1.073   1.101   0.037  0.00  0.00    +0.051 C 
ATOM     21  C   UNL     1       0.900  -0.419   0.072  0.00  0.00    +0.174 C 
ATOM     22  N   UNL     1      -0.528  -0.777   0.047  0.00  0.00    -0.247 N 
ATOM     23  N   UNL     1      -0.779  -1.465   1.241  0.00  0.00    -0.163 NA
ATOM     24  C   UNL     1       0.287  -1.565   1.962  0.00  0.00    +0.176 C 
ATOM     25  N   UNL     1       1.383  -0.964   1.353  0.00  0.00    -0.286 N 
ATOM     26  H   UNL     1      -1.167  -0.577  -0.655  0.00  0.00    +0.170 HD
BRANCH  25  27
ATOM     27  C   UNL     1       2.747  -0.886   1.879  0.00  0.00    +0.077 C 
ATOM     28  C   UNL     1       2.737  -0.142   3.216  0.00  0.00    +0.022 C 
ATOM     29  C   UNL     1       4.162  -0.060   3.766  0.00  0.00    +0.002 C 
ATOM     30  C   UNL     1       4.710  -1.474   3.974  0.00  0.00    +0.000 C 
ATOM     31  C   UNL     1       4.721  -2.218   2.637  0.00  0.00    +0.002 C 
ATOM     32  C   UNL     1       3.295  -2.300   2.087  0.00  0.00    +0.022 C 
ENDBRANCH  25  27
ENDBRANCH  19  24
ENDBRANCH   1  19
TORSDOF 4
