REMARK  Name = ZINC20583338
REMARK  3 active torsions:
REMARK  status: ('A' for Active; 'I' for Inactive)
REMARK    1  A    between atoms: C_1  and  C_2
REMARK    2  A    between atoms: C_2  and  C_4
REMARK    3  A    between atoms: C_2  and  N_14
REMARK                            x       y       z     vdW  Elec       q    Type
REMARK                         _______ _______ _______ _____ _____    ______ ____
ROOT
ATOM      1  C   UNL     1       1.887   0.003  -1.450  0.00  0.00    -0.008 C 
ATOM      2  C   UNL     1       0.568  -0.757  -1.601  0.00  0.00    +0.012 C 
ATOM      3  C   UNL     1      -0.415  -0.293  -0.525  0.00  0.00    -0.010 C 
ATOM      4  C   UNL     1      -0.671   1.208  -0.680  0.00  0.00    +0.007 C 
ATOM      5  C   UNL     1       0.648   1.968  -0.529  0.00  0.00    -0.010 C 
ATOM      6  C   UNL     1       1.631   1.504  -1.605  0.00  0.00    +0.012 C 
ATOM      7  C   UNL     1       1.240   1.692   0.855  0.00  0.00    +0.007 C 
ATOM      8  C   UNL     1       1.495   0.191   1.011  0.00  0.00    -0.010 C 
ATOM      9  C   UNL     1       0.176  -0.569   0.859  0.00  0.00    +0.007 C 
ATOM     10  C   UNL     1       2.478  -0.273  -0.066  0.00  0.00    +0.012 C 
ENDROOT
BRANCH   1  12
ATOM     11  C   UNL     1       4.238   0.177  -2.277  0.00  0.00    +0.031 C 
ATOM     12  C   UNL     1       2.870  -0.461  -2.526  0.00  0.00    +0.094 C 
BRANCH  12  13
ATOM     13  N   UNL     1       2.995  -1.920  -2.477  0.00  0.00    -0.306 N 
ATOM     14  C   UNL     1       3.561  -2.667  -1.480  0.00  0.00    +0.223 A 
ATOM     15  N   UNL     1       3.462  -3.918  -1.830  0.00  0.00    -0.162 NA
ATOM     16  N   UNL     1       2.885  -4.013  -2.974  0.00  0.00    -0.255 N 
ATOM     17  C   UNL     1       2.577  -2.816  -3.418  0.00  0.00    +0.176 A 
ATOM     18  S   UNL     1       1.776  -2.438  -4.942  0.00  0.00    -0.011 S 
ATOM     19  H   UNL     1       2.722  -5.001  -3.428  0.00  0.00    +0.191 HD
ENDBRANCH  12  13
ENDBRANCH   1  12
TORSDOF 2
