REMARK  Name = ZINC01186344
REMARK  10 active torsions:
REMARK  status: ('A' for Active; 'I' for Inactive)
REMARK    1  A    between atoms: C_1  and  C_2
REMARK    2  A    between atoms: C_2  and  O_3
REMARK    3  A    between atoms: O_3  and  C_4
REMARK    4  A    between atoms: C_6  and  C_12
REMARK    5  A    between atoms: C_9  and  O_10
REMARK    6  A    between atoms: C_17  and  C_21
REMARK    7  A    between atoms: C_17  and  C_22
REMARK    8  A    between atoms: C_22  and  C_23
REMARK    9  A    between atoms: C_22  and  C_24
REMARK   10  A    between atoms: C_22  and  C_25
REMARK                            x       y       z     vdW  Elec       q    Type
REMARK                         _______ _______ _______ _____ _____    ______ ____
ROOT
ATOM      1  C   UNL     1      -2.495   1.016   0.019  0.00  0.00    +0.030 C 
ATOM      2  C   UNL     1      -2.483  -0.360  -0.092  0.00  0.00    +0.143 C 
ATOM      3  C   UNL     1      -1.226  -1.155  -0.115  0.00  0.00    +0.349 C 
ATOM      4  O   UNL     1      -0.246  -0.843   0.532  0.00  0.00    -0.245 OA
ATOM      5  O   UNL     1      -1.249  -2.259  -0.908  0.00  0.00    -0.418 OA
ATOM      6  C   UNL     1      -2.440  -3.088  -0.793  0.00  0.00    +0.262 C 
ATOM      7  O   UNL     1      -3.628  -2.272  -1.000  0.00  0.00    -0.418 OA
ATOM      8  C   UNL     1      -3.725  -1.170  -0.206  0.00  0.00    +0.349 C 
ATOM      9  O   UNL     1      -4.754  -0.870   0.369  0.00  0.00    -0.245 OA
ATOM     10  C   UNL     1      -2.490  -3.715   0.602  0.00  0.00    +0.105 C 
ENDROOT
BRANCH   1  13
ATOM     11  C   UNL     1       0.092   3.657   0.623  0.00  0.00    +0.163 A 
ATOM     12  C   UNL     1      -1.091   2.951   0.692  0.00  0.00    +0.057 A 
ATOM     13  C   UNL     1      -1.241   1.766  -0.045  0.00  0.00    -0.019 A 
ATOM     14  C   UNL     1      -0.182   1.301  -0.839  0.00  0.00    +0.027 A 
ATOM     15  C   UNL     1       0.994   2.013  -0.901  0.00  0.00    +0.063 A 
ATOM     16  C   UNL     1       1.138   3.190  -0.174  0.00  0.00    +0.173 A 
ATOM     17 BR   UNL     1       2.418   1.389  -1.977  0.00  0.00    -0.046 Br
BRANCH  16  18
ATOM     18  O   UNL     1       2.301   3.887  -0.239  0.00  0.00    -0.503 OA
ATOM     19  H   UNL     1       2.323   4.551  -0.943  0.00  0.00    +0.292 HD
ENDBRANCH  16  18
BRANCH  11  20
ATOM     20  O   UNL     1       0.239   4.808   1.332  0.00  0.00    -0.489 OA
BRANCH  20  22
ATOM     21  C   UNL     1      -0.522   6.532   2.845  0.00  0.00    +0.048 C 
ATOM     22  C   UNL     1      -0.872   5.227   2.126  0.00  0.00    +0.226 C 
ENDBRANCH  20  22
ENDBRANCH  11  20
ENDBRANCH   1  13
BRANCH   6  23
ATOM     23  C   UNL     1      -2.392  -4.195  -1.847  0.00  0.00    +0.039 C 
ATOM     24  C   UNL     1      -2.344  -3.569  -3.243  0.00  0.00    +0.018 C 
ATOM     25  C   UNL     1      -1.144  -5.053  -1.630  0.00  0.00    +0.018 C 
ATOM     26  C   UNL     1      -3.640  -5.071  -1.724  0.00  0.00    +0.018 C 
ENDBRANCH   6  23
TORSDOF 5
