REMARK  Name = ZINC20026614
REMARK  8 active torsions:
REMARK  status: ('A' for Active; 'I' for Inactive)
REMARK    1  A    between atoms: C_1  and  C_2
REMARK    2  A    between atoms: C_5  and  C_7
REMARK    3  A    between atoms: N_12  and  C_26
REMARK    4  A    between atoms: C_16  and  C_24
REMARK    5  A    between atoms: C_17  and  N_23
REMARK    6  A    between atoms: C_18  and  C_19
REMARK    7  A    between atoms: C_18  and  C_21
REMARK    8  A    between atoms: C_26  and  C_27
REMARK                            x       y       z     vdW  Elec       q    Type
REMARK                         _______ _______ _______ _____ _____    ______ ____
ROOT
ATOM      1  C   UNL     1      -0.809   1.962  -1.202  0.00  0.00    +0.100 C 
ATOM      2  C   UNL     1      -0.003   1.676  -2.469  0.00  0.00    +0.017 C 
ATOM      3  C   UNL     1      -0.809   1.921  -3.724  0.00  0.00    -0.069 C 
ATOM      4  N   UNL     1      -0.481   3.206  -4.347  0.00  0.00    +0.385 N 
ATOM      5  C   UNL     1       0.949   3.252  -4.699  0.00  0.00    -0.050 C 
ATOM      6  C   UNL     1       1.737   3.171  -3.414  0.00  0.00    -0.040 C 
ATOM      7  C   UNL     1       1.272   2.466  -2.400  0.00  0.00    -0.032 C 
ATOM      8  C   UNL     1       2.017   2.434  -1.116  0.00  0.00    +0.074 C 
ATOM      9  C   UNL     1       1.392   1.975  -0.001  0.00  0.00    +0.054 C 
ATOM     10  C   UNL     1      -0.018   1.468   0.010  0.00  0.00    +0.191 C 
ATOM     11  H   UNL     1      -0.692   4.005  -3.620  0.00  0.00    -0.081 HD
ENDROOT
BRANCH   1  16
ATOM     12  C   UNL     1       0.055   6.914  -0.790  0.00  0.00    +0.086 C 
ATOM     13  C   UNL     1      -0.671   5.598  -0.899  0.00  0.00    +0.102 A 
ATOM     14  C   UNL     1      -2.006   5.435  -0.914  0.00  0.00    +0.044 A 
ATOM     15  C   UNL     1      -2.249   4.047  -1.029  0.00  0.00    +0.045 A 
ATOM     16  C   UNL     1      -1.047   3.445  -1.078  0.00  0.00    +0.112 A 
ATOM     17  O   UNL     1      -0.095   4.389  -0.993  0.00  0.00    -0.464 OA
ENDBRANCH   1  16
BRANCH   9  18
ATOM     18  N   UNL     1       2.087   1.977   1.176  0.00  0.00    -0.358 N 
ATOM     19  H   UNL     1       1.610   1.612   2.097  0.00  0.00    +0.142 HD
ATOM     20  H   UNL     1       3.124   2.343   1.202  0.00  0.00    +0.142 HD
ENDBRANCH   9  18
BRANCH  10  21
ATOM     21  C   UNL     1       0.002  -0.004   0.002  0.00  0.00    +0.091 C 
ATOM     22  N   UNL     1       0.018  -1.140  -0.004  0.00  0.00    -0.194 NA
ENDBRANCH  10  21
BRANCH  10  23
ATOM     23  C   UNL     1      -0.685   1.931   1.238  0.00  0.00    +0.091 C 
ATOM     24  N   UNL     1      -1.200   2.289   2.185  0.00  0.00    -0.194 NA
ENDBRANCH  10  23
BRANCH   8  25
ATOM     25  C   UNL     1       3.376   2.880  -1.054  0.00  0.00    +0.101 C 
ATOM     26  N   UNL     1       4.454   3.233  -1.005  0.00  0.00    -0.191 NA
ENDBRANCH   8  25
BRANCH   4  27
ATOM     27  C   UNL     1      -1.322   3.449  -5.527  0.00  0.00    -0.043 C 
BRANCH  27  28
ATOM     28  C   UNL     1      -1.116   4.861  -6.010  0.00  0.00    -0.064 A 
ATOM     29  C   UNL     1      -1.914   5.880  -5.525  0.00  0.00    +0.002 A 
ATOM     30  C   UNL     1      -1.722   7.177  -5.964  0.00  0.00    +0.000 A 
ATOM     31  C   UNL     1      -0.738   7.453  -6.894  0.00  0.00    +0.000 A 
ATOM     32  C   UNL     1       0.057   6.433  -7.383  0.00  0.00    +0.000 A 
ATOM     33  C   UNL     1      -0.131   5.137  -6.940  0.00  0.00    +0.002 A 
ENDBRANCH  27  28
ENDBRANCH   4  27
TORSDOF 7
