REMARK  Name = ZINC40146909
REMARK  5 active torsions:
REMARK  status: ('A' for Active; 'I' for Inactive)
REMARK    1  A    between atoms: C_1  and  C_2
REMARK    2  A    between atoms: C_5  and  N_8
REMARK    3  A    between atoms: N_8  and  S_9
REMARK    4  A    between atoms: S_9  and  C_12
REMARK    5  A    between atoms: C_15  and  C_18
REMARK                            x       y       z     vdW  Elec       q    Type
REMARK                         _______ _______ _______ _____ _____    ______ ____
ROOT
ATOM      1  C   UNL     1       0.465  -4.467   2.668  0.00  0.00    +0.109 A 
ATOM      2  C   UNL     1       1.285  -3.771   3.538  0.00  0.00    +0.029 A 
ATOM      3  C   UNL     1       0.838  -3.446   4.802  0.00  0.00    +0.015 A 
ATOM      4  C   UNL     1      -0.446  -3.821   5.202  0.00  0.00    +0.037 A 
ATOM      5  C   UNL     1      -1.269  -4.523   4.319  0.00  0.00    +0.015 A 
ATOM      6  C   UNL     1      -0.810  -4.837   3.057  0.00  0.00    +0.029 A 
ENDROOT
BRANCH   4   7
ATOM      7  C   UNL     1      -0.932  -3.477   6.555  0.00  0.00    +0.251 C 
ATOM      8  O   UNL     1      -0.524  -2.476   7.112  0.00  0.00    -0.270 OA
ATOM      9  N   UNL     1      -1.829  -4.272   7.171  0.00  0.00    -0.269 N 
ATOM     10  C   UNL     1      -2.418  -3.875   8.457  0.00  0.00    +0.099 C 
ATOM     11  C   UNL     1      -3.808  -3.309   8.229  0.00  0.00    -0.050 C 
ATOM     12  C   UNL     1      -4.474  -2.885   9.556  0.00  0.00    -0.016 C 
ATOM     13  C   UNL     1      -5.981  -2.892   9.191  0.00  0.00    -0.020 C 
ATOM     14  C   UNL     1      -6.090  -3.808   7.952  0.00  0.00    -0.078 C 
ATOM     15  N   UNL     1      -4.731  -4.308   7.684  0.00  0.00    +0.385 N 
ATOM     16  C   UNL     1      -4.494  -4.522   6.256  0.00  0.00    -0.041 C 
ATOM     17  C   UNL     1      -3.513  -5.667   6.126  0.00  0.00    -0.042 A 
ATOM     18  C   UNL     1      -2.218  -5.491   6.592  0.00  0.00    +0.038 A 
ATOM     19  C   UNL     1      -1.309  -6.534   6.483  0.00  0.00    +0.024 A 
ATOM     20  C   UNL     1      -1.700  -7.727   5.905  0.00  0.00    +0.002 A 
ATOM     21  C   UNL     1      -2.991  -7.884   5.437  0.00  0.00    +0.000 A 
ATOM     22  C   UNL     1      -3.894  -6.860   5.553  0.00  0.00    +0.003 A 
ATOM     23  H   UNL     1      -4.598  -5.183   8.168  0.00  0.00    -0.081 HD
ENDBRANCH   4   7
BRANCH   1  24
ATOM     24  S   UNL     1       1.045  -4.878   1.056  0.00  0.00    +0.072 S 
ATOM     25  O   UNL     1       0.207  -5.920   0.576  0.00  0.00    -0.150 OA
ATOM     26  O   UNL     1       2.455  -5.019   1.155  0.00  0.00    -0.150 OA
BRANCH  24  27
ATOM     27  N   UNL     1       0.768  -3.563   0.087  0.00  0.00    -0.216 N 
ATOM     28  H   UNL     1       1.513  -3.103  -0.331  0.00  0.00    +0.174 HD
BRANCH  27  33
ATOM     29  C   UNL     1      -4.534  -1.754  -0.794  0.00  0.00    +0.044 C 
ATOM     30  C   UNL     1      -3.125  -2.235  -0.560  0.00  0.00    -0.050 A 
ATOM     31  C   UNL     1      -2.128  -1.327  -0.251  0.00  0.00    +0.005 A 
ATOM     32  C   UNL     1      -0.836  -1.765  -0.035  0.00  0.00    +0.025 A 
ATOM     33  C   UNL     1      -0.538  -3.118  -0.130  0.00  0.00    +0.048 A 
ATOM     34  C   UNL     1      -1.541  -4.027  -0.441  0.00  0.00    +0.025 A 
ATOM     35  C   UNL     1      -2.832  -3.584  -0.649  0.00  0.00    +0.005 A 
ENDBRANCH  27  33
ENDBRANCH  24  27
ENDBRANCH   1  24
TORSDOF 4
