REMARK  Name = ZINC64029739
REMARK  3 active torsions:
REMARK  status: ('A' for Active; 'I' for Inactive)
REMARK    1  A    between atoms: C_6  and  C_7
REMARK    2  A    between atoms: N_9  and  C_13
REMARK    3  A    between atoms: C_16  and  N_18
REMARK                            x       y       z     vdW  Elec       q    Type
REMARK                         _______ _______ _______ _____ _____    ______ ____
ROOT
ATOM      1  C   UNL     1      -1.293  -0.775   0.011  0.00  0.00    +0.165 C 
ATOM      2  C   UNL     1      -1.615  -1.250  -1.411  0.00  0.00    +0.142 C 
ATOM      3  N   UNL     1      -2.776  -2.153  -1.346  0.00  0.00    -0.320 N 
ATOM      4  C   UNL     1      -2.739  -3.258  -0.375  0.00  0.00    +0.133 C 
ATOM      5  C   UNL     1      -2.362  -2.685   0.996  0.00  0.00    +0.179 C 
ATOM      6  O   UNL     1      -1.167  -1.911   0.870  0.00  0.00    -0.369 OA
ENDROOT
BRANCH   1  12
ATOM      7  C   UNL     1      -0.017   1.378   0.010  0.00  0.00    +0.007 A 
ATOM      8  C   UNL     1       1.171   2.086   0.002  0.00  0.00    +0.020 A 
ATOM      9  C   UNL     1       2.378   1.410  -0.013  0.00  0.00    +0.041 A 
ATOM     10  C   UNL     1       2.396   0.027  -0.021  0.00  0.00    +0.020 A 
ATOM     11  C   UNL     1       1.208  -0.679  -0.013  0.00  0.00    +0.007 A 
ATOM     12  C   UNL     1       0.002  -0.004   0.002  0.00  0.00    -0.017 A 
ATOM     13 CL   UNL     1       3.870   2.298  -0.023  0.00  0.00    -0.084 Cl
ENDBRANCH   1  12
BRANCH   3  14
ATOM     14  C   UNL     1      -3.879  -1.966  -2.181  0.00  0.00    +0.070 A 
ATOM     15  C   UNL     1      -5.030  -2.690  -2.256  0.00  0.00    +0.033 A 
ATOM     16  C   UNL     1      -5.996  -2.312  -3.173  0.00  0.00    +0.042 A 
ATOM     17  C   UNL     1      -5.768  -1.238  -3.964  0.00  0.00    +0.165 A 
ATOM     18  S   UNL     1      -4.150  -0.712  -3.422  0.00  0.00    -0.050 S 
BRANCH  17  19
ATOM     19  N   UNL     1      -6.638  -0.647  -5.008  0.00  0.00    +0.063 N 
ATOM     20  O   UNL     1      -7.718  -1.137  -5.243  0.00  0.00    -0.126 OA
ATOM     21  O   UNL     1      -6.269   0.325  -5.625  0.00  0.00    -0.126 OA
ENDBRANCH  17  19
ENDBRANCH   3  14
TORSDOF 3
