REMARK  Name = ZINC47070601
REMARK  6 active torsions:
REMARK  status: ('A' for Active; 'I' for Inactive)
REMARK    1  A    between atoms: C_1  and  C_2
REMARK    2  A    between atoms: C_2  and  O_3
REMARK    3  A    between atoms: O_3  and  C_4
REMARK    4  A    between atoms: N_14  and  C_15
REMARK    5  A    between atoms: C_15  and  C_16
REMARK    6  A    between atoms: C_16  and  N_21
REMARK                            x       y       z     vdW  Elec       q    Type
REMARK                         _______ _______ _______ _____ _____    ______ ____
ROOT
ATOM      1  C   UNL     1      -2.026  -1.429   0.524  0.00  0.00    +0.403 C 
ATOM      2  O   UNL     1      -0.995  -2.073   0.512  0.00  0.00    -0.226 OA
ATOM      3  N   UNL     1      -3.215  -2.061   0.458  0.00  0.00    -0.264 N 
ATOM      4  C   UNL     1      -4.470  -1.295   0.465  0.00  0.00    +0.130 C 
ATOM      5  C   UNL     1      -5.287  -1.683  -0.774  0.00  0.00    +0.128 C 
ATOM      6  N   UNL     1      -5.352  -3.149  -0.854  0.00  0.00    -0.283 N 
ATOM      7  C   UNL     1      -4.097  -3.914  -0.861  0.00  0.00    +0.128 C 
ATOM      8  C   UNL     1      -3.280  -3.526   0.372  0.00  0.00    +0.130 C 
ATOM      9  C   UNL     1      -6.541  -3.780  -0.920  0.00  0.00    +0.302 C 
ATOM     10  O   UNL     1      -7.572  -3.145  -0.818  0.00  0.00    -0.253 OA
ATOM     11  N   UNL     1      -6.586  -5.115  -1.098  0.00  0.00    -0.297 N 
ATOM     12  H   UNL     1      -5.765  -5.631  -1.107  0.00  0.00    +0.150 HD
ENDROOT
BRANCH   1  13
ATOM     13  O   UNL     1      -1.980  -0.086   0.602  0.00  0.00    -0.451 OA
BRANCH  13  15
ATOM     14  C   UNL     1      -0.835   2.037   0.752  0.00  0.00    +0.048 C 
ATOM     15  C   UNL     1      -0.686   0.516   0.669  0.00  0.00    +0.230 C 
ENDBRANCH  13  15
ENDBRANCH   1  13
BRANCH  11  16
ATOM     16  C   UNL     1      -7.875  -5.787  -1.278  0.00  0.00    +0.128 C 
BRANCH  16  17
ATOM     17  C   UNL     1      -7.658  -7.300  -1.335  0.00  0.00    +0.047 C 
ATOM     18  C   UNL     1      -9.020  -7.992  -1.289  0.00  0.00    +0.035 C 
ATOM     19  C   UNL     1      -9.569  -8.197  -2.728  0.00  0.00    +0.071 C 
ATOM     20  S   UNL     1      -8.004  -8.661  -3.592  0.00  0.00    -0.159 S 
ATOM     21  C   UNL     1      -6.841  -7.635  -2.599  0.00  0.00    +0.093 C 
BRANCH  17  22
ATOM     22  N   UNL     1      -6.886  -7.708  -0.154  0.00  0.00    -0.290 NA
ATOM     23  C   UNL     1      -6.592  -9.148  -0.188  0.00  0.00    +0.113 C 
ATOM     24  C   UNL     1      -5.738  -9.518   1.027  0.00  0.00    +0.175 C 
ATOM     25  O   UNL     1      -6.425  -9.135   2.221  0.00  0.00    -0.377 OA
ATOM     26  C   UNL     1      -6.727  -7.739   2.288  0.00  0.00    +0.175 C 
ATOM     27  C   UNL     1      -7.591  -7.350   1.086  0.00  0.00    +0.113 C 
ENDBRANCH  17  22
ENDBRANCH  16  17
ENDBRANCH  11  16
TORSDOF 5
