REMARK  Name = ZINC11816968
REMARK  8 active torsions:
REMARK  status: ('A' for Active; 'I' for Inactive)
REMARK    1  A    between atoms: C_1  and  C_2
REMARK    2  A    between atoms: C_5  and  C_8
REMARK    3  A    between atoms: C_8  and  C_13
REMARK    4  A    between atoms: C_15  and  C_18
REMARK    5  A    between atoms: C_18  and  N_56
REMARK    6  A    between atoms: C_19  and  N_56
REMARK    7  A    between atoms: C_20  and  C_21
REMARK    8  A    between atoms: C_20  and  N_56
REMARK                            x       y       z     vdW  Elec       q    Type
REMARK                         _______ _______ _______ _____ _____    ______ ____
ROOT
ATOM      1  C   UNL     1       0.497   2.323   7.640  0.00  0.00    +0.182 A 
ATOM      2  N   UNL     1       0.326   3.352   6.791  0.00  0.00    -0.197 NA
ATOM      3  C   UNL     1      -0.465   2.902   5.846  0.00  0.00    +0.211 A 
ATOM      4  O   UNL     1      -0.751   1.633   6.152  0.00  0.00    -0.340 OA
ATOM      5  N   UNL     1      -0.186   1.319   7.178  0.00  0.00    -0.060 NA
ENDROOT
BRANCH   1   6
ATOM      6  C   UNL     1       1.329   2.333   8.897  0.00  0.00    +0.059 C 
ATOM      7  C   UNL     1       2.808   2.598   8.550  0.00  0.00    +0.019 C 
ATOM      8  C   UNL     1       3.596   1.705   9.541  0.00  0.00    +0.001 C 
ATOM      9  C   UNL     1       2.725   0.426   9.616  0.00  0.00    +0.001 C 
ATOM     10  C   UNL     1       1.276   0.953   9.575  0.00  0.00    +0.019 C 
BRANCH   6  15
ATOM     11  C   UNL     1      -0.611   6.397  12.519  0.00  0.00    +0.044 C 
ATOM     12  C   UNL     1      -0.105   5.337  11.575  0.00  0.00    -0.050 A 
ATOM     13  C   UNL     1       1.043   4.630  11.880  0.00  0.00    +0.003 A 
ATOM     14  C   UNL     1       1.507   3.658  11.013  0.00  0.00    +0.005 A 
ATOM     15  C   UNL     1       0.823   3.393   9.842  0.00  0.00    -0.034 A 
ATOM     16  C   UNL     1      -0.323   4.103   9.534  0.00  0.00    +0.005 A 
ATOM     17  C   UNL     1      -0.790   5.071  10.403  0.00  0.00    +0.003 A 
ENDBRANCH   6  15
ENDBRANCH   1   6
BRANCH   3  18
ATOM     18  C   UNL     1      -0.962   3.671   4.650  0.00  0.00    +0.021 C 
BRANCH  18  20
ATOM     19  C   UNL     1       1.273   4.131   3.840  0.00  0.00    -0.095 C 
ATOM     20  N   UNL     1      -0.016   3.477   3.531  0.00  0.00    +0.385 N 
ATOM     21  H   UNL     1       0.144   2.471   3.401  0.00  0.00    -0.081 HD
BRANCH  20  22
ATOM     22  C   UNL     1      -0.582   4.039   2.287  0.00  0.00    -0.044 C 
BRANCH  22  23
ATOM     23  C   UNL     1       0.307   3.629   1.111  0.00  0.00    +0.127 C 
ATOM     24  C   UNL     1      -0.206   4.288  -0.172  0.00  0.00    +0.189 C 
ATOM     25  O   UNL     1       0.561   3.813  -1.283  0.00  0.00    -0.375 OA
ATOM     26  C   UNL     1       0.524   2.391  -1.438  0.00  0.00    +0.188 C 
ATOM     27  C   UNL     1       1.038   1.732  -0.154  0.00  0.00    +0.188 C 
ATOM     28  O   UNL     1       0.272   2.207   0.957  0.00  0.00    -0.374 OA
ENDBRANCH  22  23
ENDBRANCH  20  22
ENDBRANCH  18  20
ENDBRANCH   3  18
TORSDOF 6
