REMARK  Name = ZINC00814416
REMARK  2 active torsions:
REMARK  status: ('A' for Active; 'I' for Inactive)
REMARK    1  A    between atoms: C_6  and  S_11
REMARK    2  A    between atoms: S_11  and  N_14
REMARK                            x       y       z     vdW  Elec       q    Type
REMARK                         _______ _______ _______ _____ _____    ______ ____
ROOT
ATOM      1  S   UNL     1       1.040   7.702   0.031  0.00  0.00    +0.075 S 
ATOM      2  O   UNL     1       2.317   8.132  -0.420  0.00  0.00    -0.150 OA
ATOM      3  O   UNL     1      -0.166   8.091  -0.612  0.00  0.00    -0.150 OA
ENDROOT
BRANCH   1   4
ATOM      4  N   UNL     1       0.910   8.182   1.611  0.00  0.00    -0.192 N 
ATOM      5  C   UNL     1      -0.401   8.280   2.268  0.00  0.00    +0.227 C 
ATOM      6  C   UNL     1      -0.441   9.536   3.101  0.00  0.00    +0.236 C 
ATOM      7  O   UNL     1      -1.500  10.095   3.292  0.00  0.00    -0.274 OA
ATOM      8  N   UNL     1       0.685  10.044   3.636  0.00  0.00    -0.283 N 
ATOM      9  C   UNL     1       1.927   9.447   3.390  0.00  0.00    +0.056 A 
ATOM     10  C   UNL     1       2.048   8.502   2.365  0.00  0.00    +0.073 A 
ATOM     11  C   UNL     1       3.269   7.912   2.105  0.00  0.00    +0.026 A 
ATOM     12  C   UNL     1       4.373   8.251   2.870  0.00  0.00    +0.002 A 
ATOM     13  C   UNL     1       4.255   9.178   3.888  0.00  0.00    +0.002 A 
ATOM     14  C   UNL     1       3.036   9.777   4.151  0.00  0.00    +0.025 A 
ATOM     15  H   UNL     1       0.635  10.833   4.198  0.00  0.00    +0.155 HD
ENDBRANCH   1   4
BRANCH   1  21
ATOM     16  C   UNL     1       0.010   1.072   0.030  0.00  0.00    +0.001 A 
ATOM     17  C   UNL     1      -1.214   1.738   0.060  0.00  0.00    +0.001 A 
ATOM     18  C   UNL     1      -1.272   3.098   0.073  0.00  0.00    +0.008 A 
ATOM     19  C   UNL     1      -0.082   3.845   0.045  0.00  0.00    -0.016 A 
ATOM     20  C   UNL     1      -0.102   5.250   0.051  0.00  0.00    +0.037 A 
ATOM     21  C   UNL     1       1.070   5.940   0.023  0.00  0.00    +0.109 A 
ATOM     22  C   UNL     1       2.294   5.275  -0.013  0.00  0.00    +0.029 A 
ATOM     23  C   UNL     1       2.352   3.915  -0.021  0.00  0.00    +0.010 A 
ATOM     24  C   UNL     1       1.162   3.168   0.008  0.00  0.00    -0.018 A 
ATOM     25  C   UNL     1       1.183   1.763   0.001  0.00  0.00    +0.008 A 
ENDBRANCH   1  21
TORSDOF 2
