REMARK  Name = ZINC64756022
REMARK  7 active torsions:
REMARK  status: ('A' for Active; 'I' for Inactive)
REMARK    1  A    between atoms: C_1  and  C_2
REMARK    2  A    between atoms: C_2  and  C_3
REMARK    3  A    between atoms: C_2  and  N_15
REMARK    4  A    between atoms: C_5  and  C_8
REMARK    5  A    between atoms: N_18  and  C_19
REMARK    6  A    between atoms: N_18  and  C_27
REMARK    7  A    between atoms: C_19  and  C_20
REMARK                            x       y       z     vdW  Elec       q    Type
REMARK                         _______ _______ _______ _____ _____    ______ ____
ROOT
ATOM      1  N   UNL     1       0.695  -0.365   1.324  0.00  0.00    -0.288 N 
ATOM      2  C   UNL     1       2.042  -0.425   1.314  0.00  0.00    +0.303 C 
ATOM      3  O   UNL     1       2.665   0.061   0.390  0.00  0.00    -0.253 OA
ATOM      4  N   UNL     1       2.697  -1.025   2.328  0.00  0.00    -0.278 N 
ATOM      5  H   UNL     1       0.195  -0.816   2.022  0.00  0.00    +0.151 HD
ENDROOT
BRANCH   4   6
ATOM      6  C   UNL     1       1.945  -1.707   3.384  0.00  0.00    +0.078 C 
ATOM      7  C   UNL     1       2.739  -2.273   4.563  0.00  0.00    +0.024 C 
ATOM      8  C   UNL     1       2.135  -3.218   3.523  0.00  0.00    +0.024 C 
ENDBRANCH   4   6
BRANCH   1  10
ATOM      9  C   UNL     1      -0.090   1.858   0.674  0.00  0.00    +0.038 C 
ATOM     10  C   UNL     1      -0.013   0.381   0.281  0.00  0.00    +0.160 C 
BRANCH  10  11
ATOM     11  C   UNL     1      -1.406  -0.171   0.126  0.00  0.00    +0.248 A 
ATOM     12  N   UNL     1      -1.998  -0.436  -1.004  0.00  0.00    -0.190 NA
ATOM     13  C   UNL     1      -3.234  -0.915  -0.774  0.00  0.00    +0.202 A 
ATOM     14  N   UNL     1      -3.434  -0.956   0.520  0.00  0.00    -0.056 NA
ATOM     15  O   UNL     1      -2.243  -0.477   1.126  0.00  0.00    -0.336 OA
BRANCH  13  16
ATOM     16  C   UNL     1      -4.209  -1.329  -1.814  0.00  0.00    +0.023 A 
ATOM     17  C   UNL     1      -3.871  -1.241  -3.163  0.00  0.00    +0.014 A 
ATOM     18  C   UNL     1      -4.780  -1.627  -4.126  0.00  0.00    +0.039 A 
ATOM     19  C   UNL     1      -6.028  -2.101  -3.754  0.00  0.00    +0.123 A 
ATOM     20  C   UNL     1      -6.368  -2.189  -2.414  0.00  0.00    +0.039 A 
ATOM     21  C   UNL     1      -5.463  -1.811  -1.444  0.00  0.00    +0.014 A 
ATOM     22  F   UNL     1      -6.915  -2.478  -4.701  0.00  0.00    -0.205 F 
ENDBRANCH  13  16
ENDBRANCH  10  11
ENDBRANCH   1  10
BRANCH   4  23
ATOM     23  C   UNL     1       4.161  -0.994   2.373  0.00  0.00    +0.144 C 
BRANCH  23  24
ATOM     24  C   UNL     1       4.617   0.288   3.019  0.00  0.00    -0.030 A 
ATOM     25  C   UNL     1       4.795   1.424   2.251  0.00  0.00    +0.008 A 
ATOM     26  C   UNL     1       5.213   2.600   2.843  0.00  0.00    +0.038 A 
ATOM     27  C   UNL     1       5.453   2.642   4.206  0.00  0.00    +0.123 A 
ATOM     28  C   UNL     1       5.274   1.505   4.975  0.00  0.00    +0.038 A 
ATOM     29  C   UNL     1       4.851   0.330   4.381  0.00  0.00    +0.008 A 
ATOM     30  F   UNL     1       5.862   3.792   4.786  0.00  0.00    -0.205 F 
ENDBRANCH  23  24
ENDBRANCH   4  23
TORSDOF 6
