REMARK  Name = ZINC22147068
REMARK  5 active torsions:
REMARK  status: ('A' for Active; 'I' for Inactive)
REMARK    1  A    between atoms: C_1  and  C_2
REMARK    2  A    between atoms: N_6  and  C_7
REMARK    3  A    between atoms: C_10  and  O_13
REMARK    4  A    between atoms: C_11  and  O_12
REMARK    5  A    between atoms: O_13  and  C_14
REMARK                            x       y       z     vdW  Elec       q    Type
REMARK                         _______ _______ _______ _____ _____    ______ ____
ROOT
ATOM      1  C   UNL     1      -1.107  -3.562  -0.006  0.00  0.00    +0.063 C 
ATOM      2  C   UNL     1      -0.416  -2.223  -0.006  0.00  0.00    +0.017 A 
ATOM      3  C   UNL     1      -1.039  -1.035   0.006  0.00  0.00    +0.034 A 
ATOM      4  C   UNL     1       0.002  -0.004   0.002  0.00  0.00    +0.045 A 
ATOM      5  C   UNL     1       1.229  -0.690  -0.013  0.00  0.00    +0.054 A 
ATOM      6  N   UNL     1       0.941  -2.038  -0.018  0.00  0.00    -0.347 N 
ATOM      7  C   UNL     1       1.937  -3.112  -0.033  0.00  0.00    +0.149 C 
ATOM      8  C   UNL     1       2.418   0.032  -0.021  0.00  0.00    +0.045 A 
ATOM      9  C   UNL     1       2.390   1.410  -0.013  0.00  0.00    +0.065 A 
ATOM     10  C   UNL     1       1.179   2.095   0.002  0.00  0.00    +0.176 A 
ATOM     11  C   UNL     1      -0.017   1.395   0.010  0.00  0.00    +0.169 A 
ATOM     12 BR   UNL     1       4.013   2.381  -0.024  0.00  0.00    -0.046 Br
ENDROOT
BRANCH  11  13
ATOM     13  O   UNL     1      -1.201   2.064   0.019  0.00  0.00    -0.503 OA
ATOM     14  H   UNL     1      -1.212   3.164   0.025  0.00  0.00    +0.292 HD
ENDBRANCH  11  13
BRANCH  10  15
ATOM     15  O   UNL     1       1.168   3.456   0.009  0.00  0.00    -0.490 OA
ATOM     16  C   UNL     1       1.176   4.098   1.286  0.00  0.00    +0.277 C 
ENDBRANCH  10  15
TORSDOF 2
