REMARK  Name = ZINC67332004
REMARK  8 active torsions:
REMARK  status: ('A' for Active; 'I' for Inactive)
REMARK    1  A    between atoms: C_1  and  C_2
REMARK    2  A    between atoms: C_2  and  C_3
REMARK    3  A    between atoms: C_3  and  C_4
REMARK    4  A    between atoms: C_10  and  C_13
REMARK    5  A    between atoms: N_15  and  C_16
REMARK    6  A    between atoms: C_16  and  C_17
REMARK    7  A    between atoms: N_22  and  C_23
REMARK    8  A    between atoms: C_23  and  C_24
REMARK                            x       y       z     vdW  Elec       q    Type
REMARK                         _______ _______ _______ _____ _____    ______ ____
ROOT
ATOM      1  C   UNL     1       2.892  -6.118   2.529  0.00  0.00    +0.218 C 
ATOM      2  O   UNL     1       1.862  -6.758   2.505  0.00  0.00    -0.275 OA
ATOM      3  N   UNL     1       4.074  -6.749   2.679  0.00  0.00    -0.317 N 
ATOM      4  H   UNL     1       4.898  -6.237   2.698  0.00  0.00    +0.149 HD
ENDROOT
BRANCH   1  11
ATOM      5  C   UNL     1       0.762  -2.018   1.233  0.00  0.00    +0.216 C 
ATOM      6  O   UNL     1       0.237  -2.626   0.325  0.00  0.00    -0.276 OA
ATOM      7  N   UNL     1       1.365  -2.689   2.235  0.00  0.00    -0.301 N 
ATOM      8  C   UNL     1       2.000  -1.966   3.345  0.00  0.00    +0.108 C 
ATOM      9  C   UNL     1       3.447  -2.451   3.485  0.00  0.00    +0.020 C 
ATOM     10  C   UNL     1       3.458  -3.973   3.639  0.00  0.00    +0.016 C 
ATOM     11  C   UNL     1       2.851  -4.618   2.390  0.00  0.00    +0.092 C 
ATOM     12  C   UNL     1       1.393  -4.158   2.241  0.00  0.00    +0.120 C 
BRANCH   5  13
ATOM     13  C   UNL     1       0.742  -0.511   1.242  0.00  0.00    +0.096 C 
BRANCH  13  15
ATOM     14  C   UNL     1      -0.019   1.526   0.010  0.00  0.00    +0.004 C 
ATOM     15  C   UNL     1       0.002  -0.004   0.002  0.00  0.00    +0.006 C 
ENDBRANCH  13  15
ENDBRANCH   5  13
ENDBRANCH   1  11
BRANCH   3  16
ATOM     16  C   UNL     1       4.114  -8.207   2.813  0.00  0.00    +0.089 C 
BRANCH  16  17
ATOM     17  C   UNL     1       5.566  -8.665   2.969  0.00  0.00    -0.051 C 
ATOM     18  C   UNL     1       5.609 -10.176   3.280  0.00  0.00    -0.016 C 
ATOM     19  C   UNL     1       6.764 -10.288   4.310  0.00  0.00    -0.020 C 
ATOM     20  C   UNL     1       6.597  -8.973   5.112  0.00  0.00    -0.078 C 
ATOM     21  N   UNL     1       6.194  -7.964   4.104  0.00  0.00    +0.383 N 
ATOM     22  H   UNL     1       5.533  -7.320   4.513  0.00  0.00    -0.081 HD
BRANCH  21  23
ATOM     23  C   UNL     1       7.376  -7.227   3.638  0.00  0.00    -0.075 C 
BRANCH  23  24
ATOM     24  C   UNL     1       7.951  -6.403   4.791  0.00  0.00    -0.028 C 
ATOM     25  C   UNL     1       6.942  -5.330   5.204  0.00  0.00    +0.002 C 
ATOM     26  C   UNL     1       7.517  -4.505   6.357  0.00  0.00    +0.000 C 
ATOM     27  C   UNL     1       8.817  -3.836   5.907  0.00  0.00    +0.000 C 
ATOM     28  C   UNL     1       9.826  -4.910   5.494  0.00  0.00    +0.000 C 
ATOM     29  C   UNL     1       9.251  -5.734   4.341  0.00  0.00    +0.002 C 
ENDBRANCH  23  24
ENDBRANCH  21  23
ENDBRANCH  16  17
ENDBRANCH   3  16
TORSDOF 7
