REMARK  Name = ZINC21865940
REMARK  5 active torsions:
REMARK  status: ('A' for Active; 'I' for Inactive)
REMARK    1  A    between atoms: C_1  and  C_2
REMARK    2  A    between atoms: C_7  and  S_15
REMARK    3  A    between atoms: C_12  and  C_14
REMARK    4  A    between atoms: S_15  and  O_18
REMARK    5  A    between atoms: O_18  and  C_19
REMARK                            x       y       z     vdW  Elec       q    Type
REMARK                         _______ _______ _______ _____ _____    ______ ____
ROOT
ATOM      1  C   UNL     1      -0.022   1.531   0.020  0.00  0.00    +0.029 C 
ATOM      2  C   UNL     1       0.000   0.001   0.005  0.00  0.00    +0.083 C 
ATOM      3  C   UNL     1      -1.433  -0.553   0.049  0.00  0.00    +0.059 C 
ATOM      4  C   UNL     1      -1.489  -1.363   1.325  0.00  0.00    -0.022 A 
ATOM      5  C   UNL     1      -2.518  -2.092   1.891  0.00  0.00    +0.036 A 
ATOM      6  C   UNL     1      -2.320  -2.758   3.086  0.00  0.00    +0.128 A 
ATOM      7  C   UNL     1      -1.090  -2.694   3.715  0.00  0.00    +0.032 A 
ATOM      8  C   UNL     1      -0.061  -1.968   3.154  0.00  0.00    +0.026 A 
ATOM      9  C   UNL     1      -0.253  -1.293   1.947  0.00  0.00    +0.040 A 
ATOM     10  N   UNL     1       0.649  -0.510   1.215  0.00  0.00    -0.268 N 
ATOM     11  C   UNL     1       1.926  -0.263   1.571  0.00  0.00    +0.217 C 
ATOM     12  O   UNL     1       2.344  -0.653   2.640  0.00  0.00    -0.276 OA
ATOM     13  C   UNL     1       2.833   0.499   0.639  0.00  0.00    +0.109 C 
ENDROOT
BRANCH   6  14
ATOM     14  S   UNL     1      -3.633  -3.687   3.807  0.00  0.00    +0.151 S 
ATOM     15  O   UNL     1      -3.357  -3.768   5.198  0.00  0.00    -0.131 OA
ATOM     16  O   UNL     1      -4.843  -3.141   3.300  0.00  0.00    -0.131 OA
BRANCH  14  17
ATOM     17  O   UNL     1      -3.533  -5.104   3.261  0.00  0.00    -0.341 OA
BRANCH  17  18
ATOM     18  C   UNL     1      -2.525  -5.836   3.804  0.00  0.00    +0.176 A 
ATOM     19  C   UNL     1      -1.265  -5.822   3.222  0.00  0.00    +0.050 A 
ATOM     20  C   UNL     1      -0.241  -6.566   3.775  0.00  0.00    +0.005 A 
ATOM     21  C   UNL     1      -0.469  -7.326   4.907  0.00  0.00    +0.022 A 
ATOM     22  C   UNL     1      -1.724  -7.343   5.490  0.00  0.00    +0.063 A 
ATOM     23  C   UNL     1      -2.752  -6.595   4.943  0.00  0.00    +0.104 A 
ATOM     24 CL   UNL     1      -4.324  -6.610   5.678  0.00  0.00    -0.078 Cl
ATOM     25 CL   UNL     1      -2.008  -8.299   6.911  0.00  0.00    -0.082 Cl
ENDBRANCH  17  18
ENDBRANCH  14  17
ENDBRANCH   6  14
TORSDOF 3
