REMARK  Name = ZINC36638570
REMARK  6 active torsions:
REMARK  status: ('A' for Active; 'I' for Inactive)
REMARK    1  A    between atoms: C_1  and  C_2
REMARK    2  A    between atoms: C_2  and  C_3
REMARK    3  A    between atoms: C_3  and  C_5
REMARK    4  A    between atoms: C_3  and  C_6
REMARK    5  A    between atoms: C_6  and  N_8
REMARK    6  A    between atoms: N_10  and  C_21
REMARK                            x       y       z     vdW  Elec       q    Type
REMARK                         _______ _______ _______ _____ _____    ______ ____
ROOT
ATOM      1  N   UNL     1       1.372  -2.746  -2.027  0.00  0.00    -0.159 NA
ATOM      2  C   UNL     1       1.108  -4.040  -2.172  0.00  0.00    +0.154 C 
ATOM      3  N   UNL     1       0.236  -4.808  -1.447  0.00  0.00    -0.273 N 
ATOM      4  C   UNL     1       0.363  -6.242  -1.498  0.00  0.00    +0.116 C 
ATOM      5  C   UNL     1       0.392  -6.909  -0.123  0.00  0.00    +0.190 C 
ATOM      6  S   UNL     1       2.089  -7.603  -0.018  0.00  0.00    -0.028 S 
ATOM      7  O   UNL     1       2.005  -9.021   0.023  0.00  0.00    -0.174 OA
ATOM      8  O   UNL     1       2.805  -6.917   1.000  0.00  0.00    -0.174 OA
ATOM      9  C   UNL     1       2.746  -7.094  -1.655  0.00  0.00    +0.182 C 
ATOM     10  C   UNL     1       1.473  -6.744  -2.436  0.00  0.00    +0.097 C 
ATOM     11  S   UNL     1       1.804  -5.175  -3.365  0.00  0.00    -0.086 S 
ENDROOT
BRANCH   3  12
ATOM     12  C   UNL     1      -0.762  -4.209  -0.670  0.00  0.00    +0.073 A 
ATOM     13  C   UNL     1      -0.487  -3.813   0.633  0.00  0.00    +0.064 A 
ATOM     14  C   UNL     1      -1.475  -3.222   1.398  0.00  0.00    +0.022 A 
ATOM     15  C   UNL     1      -2.737  -3.025   0.868  0.00  0.00    +0.003 A 
ATOM     16  C   UNL     1      -3.014  -3.417  -0.429  0.00  0.00    +0.022 A 
ATOM     17  C   UNL     1      -2.030  -4.004  -1.201  0.00  0.00    +0.064 A 
ATOM     18 CL   UNL     1      -2.377  -4.489  -2.831  0.00  0.00    -0.082 Cl
ATOM     19 CL   UNL     1       1.097  -4.061   1.300  0.00  0.00    -0.082 Cl
ENDBRANCH   3  12
BRANCH   1  20
ATOM     20  C   UNL     1       0.611  -1.998  -1.232  0.00  0.00    +0.241 C 
ATOM     21  O   UNL     1       0.970  -1.759  -0.096  0.00  0.00    -0.273 OA
BRANCH  20  22
ATOM     22  C   UNL     1      -0.696  -1.446  -1.741  0.00  0.00    +0.074 C 
ATOM     23  C   UNL     1      -0.453  -0.677  -3.042  0.00  0.00    +0.017 C 
BRANCH  22  25
ATOM     24  C   UNL     1      -2.676  -0.040  -1.157  0.00  0.00    +0.004 C 
ATOM     25  C   UNL     1      -1.293  -0.502  -0.695  0.00  0.00    +0.009 C 
ENDBRANCH  22  25
ENDBRANCH  20  22
ENDBRANCH   1  20
TORSDOF 4
