REMARK  Name = ZINC41117505
REMARK  3 active torsions:
REMARK  status: ('A' for Active; 'I' for Inactive)
REMARK    1  A    between atoms: C_1  and  N_2
REMARK    2  A    between atoms: C_6  and  S_12
REMARK    3  A    between atoms: S_12  and  N_15
REMARK                            x       y       z     vdW  Elec       q    Type
REMARK                         _______ _______ _______ _____ _____    ______ ____
ROOT
ATOM      1  S   UNL     1      -4.352  -4.013   0.001  0.00  0.00    +0.061 S 
ATOM      2  O   UNL     1      -3.754  -5.183   0.542  0.00  0.00    -0.153 OA
ATOM      3  O   UNL     1      -5.517  -3.424   0.562  0.00  0.00    -0.153 OA
ENDROOT
BRANCH   1   9
ATOM      4  C   UNL     1      -0.018   1.461   0.010  0.00  0.00    +0.138 C 
ATOM      5  N   UNL     1       0.002  -0.004   0.002  0.00  0.00    -0.274 N 
ATOM      6  C   UNL     1      -1.146  -0.797   0.003  0.00  0.00    +0.040 A 
ATOM      7  C   UNL     1      -2.495  -0.448   0.012  0.00  0.00    +0.026 A 
ATOM      8  C   UNL     1      -3.464  -1.429   0.011  0.00  0.00    +0.030 A 
ATOM      9  C   UNL     1      -3.107  -2.765   0.002  0.00  0.00    +0.106 A 
ATOM     10  C   UNL     1      -1.769  -3.120  -0.007  0.00  0.00    +0.034 A 
ATOM     11  C   UNL     1      -0.800  -2.143  -0.007  0.00  0.00    -0.015 A 
ATOM     12  C   UNL     1       0.711  -2.193  -0.015  0.00  0.00    +0.133 C 
ATOM     13  C   UNL     1       1.128  -0.738  -0.013  0.00  0.00    +0.224 C 
ATOM     14  O   UNL     1       2.264  -0.314  -0.022  0.00  0.00    -0.275 OA
ENDBRANCH   1   9
BRANCH   1  15
ATOM     15  N   UNL     1      -4.706  -4.350  -1.581  0.00  0.00    -0.169 NA
ATOM     16  C   UNL     1      -5.756  -3.611  -2.301  0.00  0.00    +0.138 C 
ATOM     17  C   UNL     1      -5.177  -3.102  -3.625  0.00  0.00    +0.177 C 
ATOM     18  O   UNL     1      -4.564  -4.189  -4.325  0.00  0.00    -0.374 OA
ATOM     19  C   UNL     1      -3.473  -4.786  -3.626  0.00  0.00    +0.137 C 
ATOM     20  C   UNL     1      -3.977  -5.397  -2.321  0.00  0.00    +0.109 C 
ATOM     21  C   UNL     1      -4.954  -6.533  -2.634  0.00  0.00    +0.023 C 
ATOM     22  C   UNL     1      -4.256  -7.596  -3.484  0.00  0.00    +0.002 C 
ATOM     23  C   UNL     1      -3.790  -6.965  -4.799  0.00  0.00    +0.003 C 
ATOM     24  C   UNL     1      -2.814  -5.861  -4.485  0.00  0.00    +0.033 C 
ENDBRANCH   1  15
TORSDOF 2
