REMARK  Name = ZINC15569744
REMARK  2 active torsions:
REMARK  status: ('A' for Active; 'I' for Inactive)
REMARK    1  A    between atoms: C_1  and  C_2
REMARK    2  A    between atoms: N_6  and  C_10
REMARK                            x       y       z     vdW  Elec       q    Type
REMARK                         _______ _______ _______ _____ _____    ______ ____
ROOT
ATOM      1  C   UNL     1       3.468  -1.706  -0.042  0.00  0.00    +0.043 A 
ATOM      2  C   UNL     1       4.226  -0.543   0.011  0.00  0.00    +0.024 A 
ATOM      3  C   UNL     1       3.606   0.688   0.024  0.00  0.00    +0.010 A 
ATOM      4  C   UNL     1       2.212   0.770  -0.015  0.00  0.00    -0.014 A 
ATOM      5  C   UNL     1       1.458  -0.400  -0.068  0.00  0.00    -0.034 A 
ATOM      6  C   UNL     1       2.081  -1.629  -0.080  0.00  0.00    +0.028 A 
ATOM      7  C   UNL     1       0.003  -0.002  -0.101  0.00  0.00    +0.071 C 
ATOM      8  C   UNL     1      -0.018   1.506  -0.063  0.00  0.00    -0.035 A 
ATOM      9  C   UNL     1       1.303   1.942  -0.012  0.00  0.00    -0.014 A 
ATOM     10  C   UNL     1       1.571   3.312   0.031  0.00  0.00    +0.009 A 
ATOM     11  C   UNL     1       0.530   4.218   0.023  0.00  0.00    +0.001 A 
ATOM     12  C   UNL     1      -0.779   3.774  -0.028  0.00  0.00    +0.000 A 
ATOM     13  C   UNL     1      -1.051   2.418  -0.076  0.00  0.00    +0.004 A 
ENDROOT
BRANCH   1  18
ATOM     14  C   UNL     1       3.996  -6.295   0.403  0.00  0.00    +0.038 C 
ATOM     15  C   UNL     1       4.862  -5.037   0.500  0.00  0.00    +0.156 C 
ATOM     16  C   UNL     1       4.038  -3.847   0.953  0.00  0.00    +0.245 C 
ATOM     17  O   UNL     1       3.445  -3.725   2.003  0.00  0.00    -0.273 OA
ATOM     18  N   UNL     1       4.101  -2.955  -0.055  0.00  0.00    -0.220 N 
ATOM     19  C   UNL     1       4.849  -3.408  -1.069  0.00  0.00    +0.144 C 
ATOM     20  S   UNL     1       5.141  -2.523  -2.505  0.00  0.00    -0.018 S 
ATOM     21  N   UNL     1       5.344  -4.636  -0.833  0.00  0.00    -0.315 N 
ATOM     22  H   UNL     1       5.909  -5.157  -1.425  0.00  0.00    +0.148 HD
ENDBRANCH   1  18
TORSDOF 1
