REMARK  Name = ZINC63162048
REMARK  8 active torsions:
REMARK  status: ('A' for Active; 'I' for Inactive)
REMARK    1  A    between atoms: C_1  and  C_2
REMARK    2  A    between atoms: C_2  and  C_3
REMARK    3  A    between atoms: N_5  and  C_6
REMARK    4  A    between atoms: C_9  and  C_12
REMARK    5  A    between atoms: C_12  and  C_13
REMARK    6  A    between atoms: C_12  and  N_14
REMARK    7  A    between atoms: N_17  and  C_18
REMARK    8  A    between atoms: C_20  and  C_26
REMARK                            x       y       z     vdW  Elec       q    Type
REMARK                         _______ _______ _______ _____ _____    ______ ____
ROOT
ATOM      1  N   UNL     1      -7.111  -4.780  -1.182  0.00  0.00    -0.293 N 
ATOM      2  C   UNL     1      -8.264  -5.070  -1.817  0.00  0.00    +0.304 C 
ATOM      3  O   UNL     1      -9.239  -4.360  -1.662  0.00  0.00    -0.252 OA
ATOM      4  N   UNL     1      -8.337  -6.148  -2.623  0.00  0.00    -0.265 N 
ATOM      5  H   UNL     1      -6.334  -5.346  -1.306  0.00  0.00    +0.151 HD
ATOM      6  H   UNL     1      -7.583  -6.754  -2.692  0.00  0.00    +0.157 HD
ENDROOT
BRANCH   4   7
ATOM      7  C   UNL     1      -9.503  -6.393  -3.362  0.00  0.00    +0.100 A 
ATOM      8  C   UNL     1      -9.458  -6.451  -4.728  0.00  0.00    +0.042 A 
ATOM      9  C   UNL     1     -10.638  -6.698  -5.443  0.00  0.00    +0.073 A 
ATOM     10  C   UNL     1     -11.805  -6.877  -4.782  0.00  0.00    +0.098 A 
ATOM     11  N   UNL     1     -11.852  -6.819  -3.424  0.00  0.00    -0.327 N 
ATOM     12  H   UNL     1     -12.698  -6.950  -2.968  0.00  0.00    +0.168 HD
ATOM     13  C   UNL     1     -10.737  -6.590  -2.705  0.00  0.00    +0.270 A 
ATOM     14  O   UNL     1     -10.794  -6.546  -1.486  0.00  0.00    -0.266 OA
BRANCH   9  15
ATOM     15  C   UNL     1     -10.608  -6.764  -6.948  0.00  0.00    +0.419 C 
ATOM     16  F   UNL     1     -11.896  -7.020  -7.430  0.00  0.00    -0.166 F 
ATOM     17  F   UNL     1     -10.152  -5.545  -7.459  0.00  0.00    -0.166 F 
ATOM     18  F   UNL     1      -9.747  -7.790  -7.352  0.00  0.00    -0.166 F 
ENDBRANCH   9  15
ENDBRANCH   4   7
BRANCH   1  19
ATOM     19  C   UNL     1      -7.032  -3.608  -0.306  0.00  0.00    +0.102 C 
ATOM     20  C   UNL     1      -7.536  -3.981   1.090  0.00  0.00    +0.033 C 
BRANCH  19  24
ATOM     21  C   UNL     1      -2.974  -2.291  -0.052  0.00  0.00    +0.033 A 
ATOM     22  C   UNL     1      -4.004  -1.362  -0.137  0.00  0.00    +0.023 A 
ATOM     23  C   UNL     1      -5.314  -1.791  -0.219  0.00  0.00    +0.007 A 
ATOM     24  C   UNL     1      -5.601  -3.144  -0.216  0.00  0.00    -0.027 A 
ATOM     25  C   UNL     1      -4.579  -4.071  -0.131  0.00  0.00    +0.007 A 
ATOM     26  C   UNL     1      -3.266  -3.648  -0.055  0.00  0.00    +0.023 A 
BRANCH  21  29
ATOM     27  C   UNL     1      -0.669  -2.568  -0.568  0.00  0.00    +0.217 C 
ATOM     28  O   UNL     1      -0.928  -3.622  -1.108  0.00  0.00    -0.275 OA
ATOM     29  N   UNL     1      -1.646  -1.859   0.032  0.00  0.00    -0.286 N 
ATOM     30  H   UNL     1      -1.429  -1.050   0.521  0.00  0.00    +0.155 HD
BRANCH  27  32
ATOM     31  C   UNL     1       1.651  -3.037  -1.307  0.00  0.00    +0.013 C 
ATOM     32  C   UNL     1       0.747  -2.050  -0.566  0.00  0.00    +0.093 C 
ENDBRANCH  27  32
ENDBRANCH  21  29
ENDBRANCH  19  24
ENDBRANCH   1  19
TORSDOF 6
