REMARK  Name = ZINC02398773
REMARK  3 active torsions:
REMARK  status: ('A' for Active; 'I' for Inactive)
REMARK    1  A    between atoms: C_1  and  C_2
REMARK    2  A    between atoms: C_5  and  C_8
REMARK    3  A    between atoms: C_11  and  C_26
REMARK                            x       y       z     vdW  Elec       q    Type
REMARK                         _______ _______ _______ _____ _____    ______ ____
ROOT
ATOM      1  C   UNL     1       0.059  -4.275  -0.021  0.00  0.00    +0.106 C 
ATOM      2  C   UNL     1       1.488  -4.773   0.227  0.00  0.00    +0.058 C 
ATOM      3  C   UNL     1       1.521  -6.305   0.165  0.00  0.00    +0.143 C 
ATOM      4  N   UNL     1       0.446  -6.835   1.004  0.00  0.00    -0.224 N 
ATOM      5  C   UNL     1      -0.629  -6.117   1.411  0.00  0.00    +0.216 A 
ATOM      6  N   UNL     1      -1.382  -6.893   2.143  0.00  0.00    -0.179 NA
ATOM      7  C   UNL     1      -0.824  -8.110   2.225  0.00  0.00    +0.251 A 
ATOM      8  N   UNL     1       0.297  -8.114   1.540  0.00  0.00    -0.131 NA
ATOM      9  N   UNL     1      -1.351  -9.200   2.929  0.00  0.00    -0.176 N 
ATOM     10  C   UNL     1      -0.744 -10.392   2.980  0.00  0.00    +0.229 C 
ATOM     11  O   UNL     1       0.306 -10.668   2.441  0.00  0.00    -0.275 OA
ATOM     12  C   UNL     1      -1.575 -11.339   3.817  0.00  0.00    +0.106 C 
ATOM     13  C   UNL     1      -2.781 -10.479   4.246  0.00  0.00    +0.106 C 
ATOM     14  C   UNL     1      -2.502  -9.135   3.611  0.00  0.00    +0.229 C 
ATOM     15  O   UNL     1      -3.209  -8.155   3.702  0.00  0.00    -0.275 OA
ATOM     16  N   UNL     1      -0.815  -4.788   1.051  0.00  0.00    -0.307 N 
ATOM     17  H   UNL     1      -1.479  -4.228   1.482  0.00  0.00    +0.149 HD
ENDROOT
BRANCH   1  22
ATOM     18  C   UNL     1      -0.018   1.503   0.010  0.00  0.00    +0.044 C 
ATOM     19  C   UNL     1       0.002  -0.004   0.002  0.00  0.00    -0.050 A 
ATOM     20  C   UNL     1       0.006  -0.689  -1.199  0.00  0.00    +0.004 A 
ATOM     21  C   UNL     1       0.025  -2.071  -1.206  0.00  0.00    +0.006 A 
ATOM     22  C   UNL     1       0.040  -2.768  -0.013  0.00  0.00    -0.027 A 
ATOM     23  C   UNL     1       0.037  -2.084   1.188  0.00  0.00    +0.006 A 
ATOM     24  C   UNL     1       0.023  -0.702   1.195  0.00  0.00    +0.004 A 
ENDBRANCH   1  22
BRANCH   3  25
ATOM     25  C   UNL     1       2.851  -6.803   0.669  0.00  0.00    -0.023 A 
ATOM     26  C   UNL     1       3.250  -6.518   1.962  0.00  0.00    +0.008 A 
ATOM     27  C   UNL     1       4.469  -6.974   2.425  0.00  0.00    +0.038 A 
ATOM     28  C   UNL     1       5.292  -7.716   1.594  0.00  0.00    +0.123 A 
ATOM     29  C   UNL     1       4.891  -8.000   0.299  0.00  0.00    +0.038 A 
ATOM     30  C   UNL     1       3.669  -7.548  -0.160  0.00  0.00    +0.008 A 
ATOM     31  F   UNL     1       6.484  -8.162   2.046  0.00  0.00    -0.205 F 
ENDBRANCH   3  25
TORSDOF 2
