REMARK  Name = ZINC00432203
REMARK  2 active torsions:
REMARK  status: ('A' for Active; 'I' for Inactive)
REMARK    1  A    between atoms: C_13  and  C_14
REMARK    2  A    between atoms: C_14  and  C_15
REMARK                            x       y       z     vdW  Elec       q    Type
REMARK                         _______ _______ _______ _____ _____    ______ ____
ROOT
ATOM      1  C   UNL     1       0.221   1.699  -0.200  0.00  0.00    +0.001 A 
ATOM      2  C   UNL     1       1.475   2.275  -0.290  0.00  0.00    +0.000 A 
ATOM      3  C   UNL     1       2.608   1.482  -0.238  0.00  0.00    +0.005 A 
ATOM      4  C   UNL     1       2.488   0.116  -0.095  0.00  0.00    -0.032 A 
ATOM      5  C   UNL     1       1.230  -0.472  -0.003  0.00  0.00    -0.014 A 
ATOM      6  C   UNL     1       0.091   0.334  -0.057  0.00  0.00    +0.009 A 
ATOM      7  C   UNL     1       1.381  -1.942   0.143  0.00  0.00    -0.014 A 
ATOM      8  C   UNL     1       0.430  -2.956   0.271  0.00  0.00    +0.009 A 
ATOM      9  C   UNL     1       0.836  -4.268   0.394  0.00  0.00    +0.001 A 
ATOM     10  C   UNL     1       2.182  -4.585   0.392  0.00  0.00    +0.000 A 
ATOM     11  C   UNL     1       3.130  -3.585   0.266  0.00  0.00    +0.005 A 
ATOM     12  C   UNL     1       2.734  -2.270   0.142  0.00  0.00    -0.032 A 
ATOM     13  C   UNL     1       3.514  -0.987  -0.008  0.00  0.00    +0.059 C 
ENDROOT
BRANCH  13  14
ATOM     14  C   UNL     1       4.416  -0.773   1.209  0.00  0.00    +0.109 C 
BRANCH  14  15
ATOM     15  C   UNL     1       5.547  -1.768   1.176  0.00  0.00    +0.217 C 
ATOM     16  O   UNL     1       5.702  -2.479   0.206  0.00  0.00    -0.276 OA
ATOM     17  N   UNL     1       6.388  -1.868   2.225  0.00  0.00    -0.284 N 
ATOM     18  C   UNL     1       6.224  -1.024   3.421  0.00  0.00    +0.204 C 
ATOM     19  C   UNL     1       7.557  -0.401   3.749  0.00  0.00    +0.237 C 
ATOM     20  O   UNL     1       7.590   0.635   4.377  0.00  0.00    -0.274 OA
ATOM     21  N   UNL     1       8.706  -0.972   3.360  0.00  0.00    -0.254 N 
ATOM     22  C   UNL     1       8.760  -2.092   2.626  0.00  0.00    +0.237 C 
ATOM     23  O   UNL     1       9.838  -2.524   2.279  0.00  0.00    -0.274 OA
ATOM     24  C   UNL     1       7.502  -2.830   2.225  0.00  0.00    +0.204 C 
ATOM     25  H   UNL     1       9.541  -0.553   3.623  0.00  0.00    +0.158 HD
ENDBRANCH  14  15
ENDBRANCH  13  14
TORSDOF 2
