REMARK  Name = ZINC39961021
REMARK  7 active torsions:
REMARK  status: ('A' for Active; 'I' for Inactive)
REMARK    1  A    between atoms: C_1  and  C_2
REMARK    2  A    between atoms: C_10  and  C_14
REMARK    3  A    between atoms: C_16  and  C_23
REMARK    4  A    between atoms: C_17  and  O_22
REMARK    5  A    between atoms: C_18  and  O_20
REMARK    6  A    between atoms: O_20  and  C_21
REMARK    7  A    between atoms: C_23  and  C_24
REMARK                            x       y       z     vdW  Elec       q    Type
REMARK                         _______ _______ _______ _____ _____    ______ ____
ROOT
ATOM      1  C   UNL     1      -0.019   1.526   0.010  0.00  0.00    +0.007 C 
ATOM      2  C   UNL     1       0.002  -0.004   0.002  0.00  0.00    -0.012 C 
ATOM      3  C   UNL     1       0.702  -0.489  -1.265  0.00  0.00    +0.008 C 
ATOM      4  C   UNL     1       2.123   0.085  -1.344  0.00  0.00    +0.033 C 
ATOM      5  C   UNL     1       2.809  -0.263  -0.025  0.00  0.00    -0.042 C 
ATOM      6  C   UNL     1       3.969  -0.910   0.082  0.00  0.00    +0.071 C 
ATOM      7  C   UNL     1       4.411  -1.344   1.434  0.00  0.00    +0.112 C 
ATOM      8  N   UNL     1       5.514  -2.022   1.629  0.00  0.00    -0.223 NA
ATOM      9  C   UNL     1       6.259  -2.323   0.554  0.00  0.00    +0.154 C 
ATOM     10  N   UNL     1       5.965  -1.993  -0.688  0.00  0.00    -0.157 NA
ATOM     11  C   UNL     1       4.871  -1.306  -1.052  0.00  0.00    +0.272 C 
ATOM     12  O   UNL     1       4.628  -1.025  -2.214  0.00  0.00    -0.268 OA
ATOM     13  S   UNL     1       3.169  -0.735   2.531  0.00  0.00    -0.097 S 
ATOM     14  C   UNL     1       2.124   0.119   1.288  0.00  0.00    +0.080 C 
ATOM     15  C   UNL     1       0.729  -0.504   1.254  0.00  0.00    +0.022 C 
ENDROOT
BRANCH   9  16
ATOM     16  C   UNL     1       7.505  -3.086   0.780  0.00  0.00    +0.021 A 
ATOM     17  C   UNL     1       8.325  -3.423  -0.299  0.00  0.00    +0.019 A 
ATOM     18  C   UNL     1       9.486  -4.133  -0.087  0.00  0.00    +0.002 A 
ATOM     19  C   UNL     1       9.846  -4.515   1.198  0.00  0.00    +0.162 A 
ATOM     20  C   UNL     1       9.032  -4.181   2.280  0.00  0.00    +0.162 A 
ATOM     21  C   UNL     1       7.869  -3.465   2.074  0.00  0.00    +0.060 A 
BRANCH  20  22
ATOM     22  O   UNL     1       9.386  -4.557   3.538  0.00  0.00    -0.491 OA
ATOM     23  C   UNL     1       8.505  -4.181   4.599  0.00  0.00    +0.277 C 
ENDBRANCH  20  22
BRANCH  19  24
ATOM     24  O   UNL     1      10.992  -5.214   1.402  0.00  0.00    -0.503 OA
ATOM     25  H   UNL     1      11.768  -4.660   1.562  0.00  0.00    +0.292 HD
ENDBRANCH  19  24
BRANCH  18  26
ATOM     26  C   UNL     1      10.369  -4.497  -1.254  0.00  0.00    +0.065 C 
BRANCH  26  27
ATOM     27  C   UNL     1      10.030  -5.887  -1.726  0.00  0.00    -0.030 C 
ATOM     28  C   UNL     1       9.709  -6.093  -2.979  0.00  0.00    +0.004 C 
ENDBRANCH  26  27
ENDBRANCH  18  26
ENDBRANCH   9  16
TORSDOF 5
