REMARK  Name = ZINC39165169
REMARK  6 active torsions:
REMARK  status: ('A' for Active; 'I' for Inactive)
REMARK    1  A    between atoms: C_1  and  C_2
REMARK    2  A    between atoms: C_4  and  S_9
REMARK    3  A    between atoms: C_5  and  C_8
REMARK    4  A    between atoms: S_9  and  N_12
REMARK    5  A    between atoms: N_12  and  C_13
REMARK    6  A    between atoms: C_22  and  C_25
REMARK                            x       y       z     vdW  Elec       q    Type
REMARK                         _______ _______ _______ _____ _____    ______ ____
ROOT
ATOM      1  C   UNL     1       2.135   1.667  -3.247  0.00  0.00    +0.050 A 
ATOM      2  C   UNL     1       2.929   1.302  -2.167  0.00  0.00    +0.028 A 
ATOM      3  C   UNL     1       4.255   1.692  -2.116  0.00  0.00    +0.049 A 
ATOM      4  C   UNL     1       4.792   2.449  -3.143  0.00  0.00    +0.143 A 
ATOM      5  C   UNL     1       3.998   2.818  -4.227  0.00  0.00    +0.078 A 
ATOM      6  C   UNL     1       2.672   2.421  -4.281  0.00  0.00    +0.051 A 
ATOM      7  N   UNL     1       4.557   3.586  -5.257  0.00  0.00    -0.279 N 
ATOM      8  C   UNL     1       5.902   3.686  -5.344  0.00  0.00    +0.258 C 
ATOM      9  O   UNL     1       6.407   4.370  -6.209  0.00  0.00    -0.271 OA
ATOM     10  C   UNL     1       6.771   2.944  -4.361  0.00  0.00    +0.256 C 
ATOM     11  O   UNL     1       6.096   2.840  -3.105  0.00  0.00    -0.478 OA
ATOM     12  C   UNL     1       7.066   1.542  -4.899  0.00  0.00    +0.062 C 
ATOM     13  H   UNL     1       3.987   4.039  -5.899  0.00  0.00    +0.155 HD
ENDROOT
BRANCH   1  14
ATOM     14  N   UNL     1       0.794   1.269  -3.294  0.00  0.00    -0.216 N 
ATOM     15  H   UNL     1       0.108   1.905  -3.551  0.00  0.00    +0.174 HD
BRANCH  14  16
ATOM     16  S   UNL     1       0.378  -0.287  -2.911  0.00  0.00    +0.072 S 
ATOM     17  O   UNL     1       1.253  -1.134  -3.644  0.00  0.00    -0.150 OA
ATOM     18  O   UNL     1      -1.036  -0.370  -3.026  0.00  0.00    -0.150 OA
BRANCH  16  21
ATOM     19  C   UNL     1      -0.019   1.526   0.010  0.00  0.00    +0.041 C 
ATOM     20  C   UNL     1       0.002  -0.004   0.002  0.00  0.00    +0.176 C 
ATOM     21  C   UNL     1       0.759  -0.524  -1.207  0.00  0.00    +0.134 C 
ATOM     22  C   UNL     1       1.780  -1.203  -0.679  0.00  0.00    +0.085 C 
ATOM     23  N   UNL     1       1.738  -1.160   0.671  0.00  0.00    -0.157 NA
ATOM     24  N   UNL     1       0.787  -0.521   1.136  0.00  0.00    -0.178 NA
ATOM     25  C   UNL     1       2.837  -1.919  -1.480  0.00  0.00    +0.069 C 
ENDBRANCH  16  21
ENDBRANCH  14  16
ENDBRANCH   1  14
TORSDOF 3
