REMARK  Name = ZINC64181695
REMARK  7 active torsions:
REMARK  status: ('A' for Active; 'I' for Inactive)
REMARK    1  A    between atoms: C_4  and  C_7
REMARK    2  A    between atoms: C_7  and  C_9
REMARK    3  A    between atoms: C_7  and  S_20
REMARK    4  A    between atoms: C_9  and  C_11
REMARK    5  A    between atoms: S_20  and  C_21
REMARK    6  A    between atoms: N_26  and  C_27
REMARK    7  A    between atoms: C_27  and  C_28
REMARK                            x       y       z     vdW  Elec       q    Type
REMARK                         _______ _______ _______ _____ _____    ______ ____
ROOT
ATOM      1  C   UNL     1       3.711  -0.707  -0.038  0.00  0.00    +0.150 C 
ENDROOT
BRANCH   1   5
ATOM      2  C   UNL     1      -0.017   1.378   0.010  0.00  0.00    +0.000 A 
ATOM      3  C   UNL     1       1.171   2.086   0.002  0.00  0.00    +0.000 A 
ATOM      4  C   UNL     1       2.377   1.411  -0.013  0.00  0.00    +0.005 A 
ATOM      5  C   UNL     1       2.396   0.029  -0.020  0.00  0.00    -0.027 A 
ATOM      6  C   UNL     1       1.208  -0.679  -0.012  0.00  0.00    +0.005 A 
ATOM      7  C   UNL     1       0.002  -0.004   0.002  0.00  0.00    +0.000 A 
ENDBRANCH   1   5
BRANCH   1   8
ATOM      8  C   UNL     1       3.816  -1.579   1.188  0.00  0.00    +0.179 C 
ATOM      9  O   UNL     1       3.492  -2.748   1.131  0.00  0.00    -0.291 OA
BRANCH   8  10
ATOM     10  C   UNL     1       4.290  -1.036   2.401  0.00  0.00    +0.024 C 
ATOM     11  C   UNL     1       4.450  -1.696   3.606  0.00  0.00    +0.006 A 
ATOM     12  C   UNL     1       4.216  -3.031   4.011  0.00  0.00    +0.010 A 
ATOM     13  C   UNL     1       4.467  -3.411   5.284  0.00  0.00    +0.001 A 
ATOM     14  C   UNL     1       4.963  -2.523   6.251  0.00  0.00    +0.002 A 
ATOM     15  C   UNL     1       5.221  -1.228   5.968  0.00  0.00    +0.026 A 
ATOM     16  C   UNL     1       4.975  -0.732   4.604  0.00  0.00    +0.043 A 
ATOM     17  N   UNL     1       5.131   0.444   4.065  0.00  0.00    -0.380 N 
ATOM     18  C   UNL     1       4.735   0.388   2.655  0.00  0.00    +0.152 C 
ATOM     19  H   UNL     1       5.461   1.232   4.524  0.00  0.00    +0.160 HD
ENDBRANCH   8  10
ENDBRANCH   1   8
BRANCH   1  20
ATOM     20  S   UNL     1       3.806  -1.741  -1.525  0.00  0.00    -0.101 S 
BRANCH  20  21
ATOM     21  C   UNL     1       3.820  -0.546  -2.890  0.00  0.00    +0.256 C 
ATOM     22  N   UNL     1       2.640   0.337  -2.823  0.00  0.00    -0.218 N 
ATOM     23  N   UNL     1       3.141   1.633  -2.658  0.00  0.00    -0.063 NA
ATOM     24  N   UNL     1       4.368   1.665  -2.617  0.00  0.00    -0.060 NA
ATOM     25  N   UNL     1       4.948   0.394  -2.749  0.00  0.00    -0.198 N 
ATOM     26  H   UNL     1       1.709   0.073  -2.882  0.00  0.00    +0.173 HD
BRANCH  25  27
ATOM     27  C   UNL     1       6.376   0.065  -2.746  0.00  0.00    +0.204 C 
BRANCH  27  28
ATOM     28  C   UNL     1       6.906   0.115  -4.156  0.00  0.00    +0.124 A 
ATOM     29  C   UNL     1       7.430   1.196  -4.762  0.00  0.00    +0.046 A 
ATOM     30  C   UNL     1       7.796   0.797  -6.068  0.00  0.00    +0.041 A 
ATOM     31  C   UNL     1       7.473  -0.504  -6.182  0.00  0.00    +0.195 A 
ATOM     32  O   UNL     1       6.940  -0.913  -5.019  0.00  0.00    -0.466 OA
ENDBRANCH  27  28
ENDBRANCH  25  27
ENDBRANCH  20  21
ENDBRANCH   1  20
TORSDOF 7
