REMARK  Name = ZINC09940633
REMARK  8 active torsions:
REMARK  status: ('A' for Active; 'I' for Inactive)
REMARK    1  A    between atoms: C_1  and  C_2
REMARK    2  A    between atoms: C_2  and  C_3
REMARK    3  A    between atoms: C_2  and  C_4
REMARK    4  A    between atoms: C_4  and  C_6
REMARK    5  A    between atoms: C_4  and  N_13
REMARK    6  A    between atoms: N_19  and  S_22
REMARK    7  A    between atoms: S_22  and  C_25
REMARK    8  A    between atoms: C_28  and  C_31
REMARK                            x       y       z     vdW  Elec       q    Type
REMARK                         _______ _______ _______ _____ _____    ______ ____
ROOT
ATOM      1  N   UNL     1       2.330  -2.985  -6.280  0.00  0.00    -0.292 N 
ATOM      2  C   UNL     1       1.173  -2.895  -5.594  0.00  0.00    +0.303 C 
ATOM      3  O   UNL     1       0.121  -3.174  -6.138  0.00  0.00    -0.253 OA
ATOM      4  N   UNL     1       1.181  -2.496  -4.307  0.00  0.00    -0.283 N 
ATOM      5  C   UNL     1       2.451  -2.266  -3.603  0.00  0.00    +0.126 C 
ATOM      6  C   UNL     1       2.469  -3.122  -2.331  0.00  0.00    +0.128 C 
ATOM      7  N   UNL     1       1.208  -2.911  -1.605  0.00  0.00    -0.174 NA
ATOM      8  C   UNL     1      -0.061  -3.147  -2.307  0.00  0.00    +0.128 C 
ATOM      9  C   UNL     1      -0.079  -2.285  -3.581  0.00  0.00    +0.126 C 
ATOM     10  H   UNL     1       3.175  -2.837  -5.826  0.00  0.00    +0.151 HD
ENDROOT
BRANCH   7  11
ATOM     11  S   UNL     1       1.219  -2.422  -0.023  0.00  0.00    +0.061 S 
ATOM     12  O   UNL     1       2.472  -2.820   0.517  0.00  0.00    -0.153 OA
ATOM     13  O   UNL     1      -0.019  -2.838   0.539  0.00  0.00    -0.153 OA
BRANCH  11  14
ATOM     14  C   UNL     1       1.206  -0.660  -0.022  0.00  0.00    +0.106 A 
ATOM     15  C   UNL     1       0.001   0.020  -0.011  0.00  0.00    +0.030 A 
ATOM     16  C   UNL     1      -0.017   1.399  -0.009  0.00  0.00    +0.021 A 
ATOM     17  C   UNL     1       1.186   2.109  -0.018  0.00  0.00    +0.052 A 
ATOM     18  C   UNL     1       2.398   1.417  -0.030  0.00  0.00    +0.021 A 
ATOM     19  C   UNL     1       2.401   0.037  -0.031  0.00  0.00    +0.030 A 
BRANCH  17  20
ATOM     20  C   UNL     1       1.175   3.541  -0.017  0.00  0.00    +0.099 C 
ATOM     21  N   UNL     1       1.167   4.677  -0.015  0.00  0.00    -0.191 NA
ENDBRANCH  17  20
ENDBRANCH  11  14
ENDBRANCH   7  11
BRANCH   1  22
ATOM     22  C   UNL     1       2.312  -3.305  -7.709  0.00  0.00    +0.107 C 
BRANCH  22  23
ATOM     23  C   UNL     1       3.623  -3.937  -8.099  0.00  0.00    -0.027 A 
ATOM     24  C   UNL     1       4.807  -3.449  -7.576  0.00  0.00    +0.007 A 
ATOM     25  C   UNL     1       6.010  -4.032  -7.929  0.00  0.00    +0.020 A 
ATOM     26  C   UNL     1       6.030  -5.095  -8.814  0.00  0.00    +0.041 A 
ATOM     27  C   UNL     1       4.846  -5.579  -9.341  0.00  0.00    +0.020 A 
ATOM     28  C   UNL     1       3.643  -4.999  -8.983  0.00  0.00    +0.007 A 
ATOM     29 CL   UNL     1       7.541  -5.822  -9.264  0.00  0.00    -0.084 Cl
ENDBRANCH  22  23
BRANCH  22  31
ATOM     30  C   UNL     1       0.771  -1.382  -8.121  0.00  0.00    +0.009 C 
ATOM     31  C   UNL     1       2.103  -2.023  -8.517  0.00  0.00    +0.008 C 
ATOM     32  C   UNL     1       3.245  -1.046  -8.228  0.00  0.00    +0.009 C 
ENDBRANCH  22  31
ENDBRANCH   1  22
TORSDOF 6
