REMARK  Name = ZINC30787024
REMARK  7 active torsions:
REMARK  status: ('A' for Active; 'I' for Inactive)
REMARK    1  A    between atoms: C_1  and  C_2
REMARK    2  A    between atoms: C_2  and  C_3
REMARK    3  A    between atoms: C_2  and  C_4
REMARK    4  A    between atoms: C_4  and  C_6
REMARK    5  A    between atoms: C_4  and  N_21
REMARK    6  A    between atoms: C_14  and  C_16
REMARK    7  A    between atoms: N_24  and  C_25
REMARK                            x       y       z     vdW  Elec       q    Type
REMARK                         _______ _______ _______ _____ _____    ______ ____
ROOT
ATOM      1  C   UNL     1      -6.182  -0.615   0.974  0.00  0.00    +0.163 C 
ENDROOT
BRANCH   1   2
ATOM      2  C   UNL     1      -5.628   0.784   0.889  0.00  0.00    +0.236 C 
ATOM      3  O   UNL     1      -6.298   1.672   0.406  0.00  0.00    -0.274 OA
ATOM      4  N   UNL     1      -4.390   1.048   1.351  0.00  0.00    -0.297 N 
ATOM      5  C   UNL     1      -3.881   2.426   1.380  0.00  0.00    +0.127 C 
ATOM      6  C   UNL     1      -2.557   2.476   0.608  0.00  0.00    +0.127 C 
ATOM      7  N   UNL     1      -1.691   1.391   1.090  0.00  0.00    -0.294 N 
ATOM      8  C   UNL     1      -2.198   0.012   1.056  0.00  0.00    +0.127 C 
ATOM      9  C   UNL     1      -3.524  -0.037   1.833  0.00  0.00    +0.127 C 
ATOM     10  C   UNL     1      -0.452   1.655   1.551  0.00  0.00    +0.253 C 
ATOM     11  O   UNL     1      -0.110   2.805   1.753  0.00  0.00    -0.269 OA
BRANCH  10  12
ATOM     12  C   UNL     1       0.484   0.557   1.808  0.00  0.00    +0.074 A 
ATOM     13  C   UNL     1       1.727   0.593   2.421  0.00  0.00    +0.021 A 
ATOM     14  C   UNL     1       2.405  -0.595   2.530  0.00  0.00    +0.008 A 
ATOM     15  C   UNL     1       1.838  -1.730   2.042  0.00  0.00    +0.046 A 
ATOM     16  S   UNL     1       0.324  -1.175   1.408  0.00  0.00    -0.092 S 
ENDBRANCH  10  12
ENDBRANCH   1   2
BRANCH   1  17
ATOM     17  N   UNL     1      -7.646  -0.561   0.996  0.00  0.00    -0.288 N 
ATOM     18  C   UNL     1      -8.349  -1.565   1.556  0.00  0.00    +0.304 C 
ATOM     19  O   UNL     1      -7.768  -2.516   2.043  0.00  0.00    -0.252 OA
ATOM     20  N   UNL     1      -9.695  -1.516   1.576  0.00  0.00    -0.269 N 
ATOM     21  H   UNL     1      -8.171   0.299   0.555  0.00  0.00    +0.151 HD
ATOM     22  H   UNL     1     -10.223  -0.702   1.057  0.00  0.00    +0.156 HD
BRANCH  20  23
ATOM     23  C   UNL     1     -10.422  -2.500   2.256  0.00  0.00    +0.035 A 
ATOM     24  C   UNL     1     -11.665  -2.899   1.782  0.00  0.00    +0.023 A 
ATOM     25  C   UNL     1     -12.377  -3.874   2.453  0.00  0.00    +0.002 A 
ATOM     26  C   UNL     1     -11.859  -4.444   3.601  0.00  0.00    +0.000 A 
ATOM     27  C   UNL     1     -10.624  -4.045   4.079  0.00  0.00    +0.002 A 
ATOM     28  C   UNL     1      -9.904  -3.074   3.409  0.00  0.00    +0.023 A 
ENDBRANCH  20  23
ENDBRANCH   1  17
BRANCH   1  30
ATOM     29  C   UNL     1      -6.202  -2.867  -0.109  0.00  0.00    +0.009 C 
ATOM     30  C   UNL     1      -5.719  -1.421  -0.241  0.00  0.00    +0.012 C 
ATOM     31  C   UNL     1      -6.301  -0.803  -1.514  0.00  0.00    +0.009 C 
ENDBRANCH   1  30
TORSDOF 5
