REMARK  Name = ZINC60933960
REMARK  6 active torsions:
REMARK  status: ('A' for Active; 'I' for Inactive)
REMARK    1  A    between atoms: C_4  and  N_23
REMARK    2  A    between atoms: C_6  and  C_7
REMARK    3  A    between atoms: C_8  and  C_9
REMARK    4  A    between atoms: N_11  and  C_12
REMARK    5  A    between atoms: N_16  and  C_17
REMARK    6  A    between atoms: C_17  and  C_18
REMARK                            x       y       z     vdW  Elec       q    Type
REMARK                         _______ _______ _______ _____ _____    ______ ____
ROOT
ATOM      1  C   UNL     1      -3.694  -0.858   0.034  0.00  0.00    +0.242 C 
ATOM      2  O   UNL     1      -3.674  -2.075   0.027  0.00  0.00    -0.270 OA
ATOM      3  N   UNL     1      -4.872  -0.203   0.049  0.00  0.00    -0.267 N 
ATOM      4  H   UNL     1      -4.888   0.767   0.055  0.00  0.00    +0.157 HD
ENDROOT
BRANCH   3   5
ATOM      5  C   UNL     1      -6.067  -0.919   0.057  0.00  0.00    +0.124 A 
ATOM      6  C   UNL     1      -6.194  -2.275   0.057  0.00  0.00    +0.065 A 
ATOM      7  C   UNL     1      -7.558  -2.578   0.068  0.00  0.00    +0.136 A 
ATOM      8  N   UNL     1      -8.231  -1.456   0.074  0.00  0.00    -0.178 NA
ATOM      9  N   UNL     1      -7.319  -0.393   0.073  0.00  0.00    -0.246 N 
BRANCH   9  10
ATOM     10  C   UNL     1      -7.656   1.033   0.083  0.00  0.00    +0.181 C 
BRANCH  10  11
ATOM     11  C   UNL     1      -7.786   1.528  -1.334  0.00  0.00    -0.019 A 
ATOM     12  C   UNL     1      -6.686   2.028  -2.006  0.00  0.00    +0.013 A 
ATOM     13  C   UNL     1      -6.837   2.466  -3.280  0.00  0.00    +0.045 A 
ATOM     14  S   UNL     1      -8.575   2.176  -3.567  0.00  0.00    -0.105 S 
ATOM     15  C   UNL     1      -8.982   1.486  -1.971  0.00  0.00    +0.050 A 
ENDBRANCH  10  11
ENDBRANCH   9  10
ENDBRANCH   3   5
BRANCH   1  17
ATOM     16  C   UNL     1      -1.260  -0.760   0.011  0.00  0.00    +0.013 C 
ATOM     17  C   UNL     1      -2.439  -0.105   0.026  0.00  0.00    +0.068 C 
BRANCH  16  23
ATOM     18  C   UNL     1      -0.017   1.394   0.010  0.00  0.00    +0.009 A 
ATOM     19  C   UNL     1       1.169   2.096   0.002  0.00  0.00    +0.023 A 
ATOM     20  C   UNL     1       2.378   1.420  -0.013  0.00  0.00    +0.071 A 
ATOM     21  C   UNL     1       2.405   0.035  -0.021  0.00  0.00    +0.145 A 
ATOM     22  C   UNL     1       1.227  -0.680  -0.013  0.00  0.00    +0.042 A 
ATOM     23  C   UNL     1       0.002  -0.004   0.002  0.00  0.00    -0.023 A 
ATOM     24 CL   UNL     1       3.867   2.313  -0.024  0.00  0.00    -0.081 Cl
BRANCH  21  25
ATOM     25  N   UNL     1       3.701  -0.679  -0.038  0.00  0.00    +0.058 N 
ATOM     26  O   UNL     1       3.726  -1.888  -0.045  0.00  0.00    -0.126 OA
ATOM     27  O   UNL     1       4.736  -0.053  -0.046  0.00  0.00    -0.126 OA
ENDBRANCH  21  25
ENDBRANCH  16  23
ENDBRANCH   1  17
TORSDOF 6
