REMARK  Name = ZINC66699529
REMARK  12 active torsions:
REMARK  status: ('A' for Active; 'I' for Inactive)
REMARK    1  A    between atoms: C_1  and  C_2
REMARK    2  A    between atoms: N_7  and  C_9
REMARK    3  A    between atoms: C_9  and  C_10
REMARK    4  A    between atoms: C_10  and  N_11
REMARK    5  A    between atoms: C_17  and  C_20
REMARK    6  A    between atoms: C_17  and  N_21
REMARK    7  A    between atoms: N_21  and  C_22
REMARK    8  A    between atoms: C_23  and  O_25
REMARK    9  A    between atoms: O_25  and  C_26
REMARK   10  A    between atoms: C_26  and  C_27
REMARK   11  A    between atoms: C_26  and  C_28
REMARK   12  A    between atoms: C_26  and  C_29
REMARK                            x       y       z     vdW  Elec       q    Type
REMARK                         _______ _______ _______ _____ _____    ______ ____
ROOT
ATOM      1  N   UNL     1       1.647  -6.354   3.150  0.00  0.00    -0.301 N 
ATOM      2  C   UNL     1       2.106  -5.570   4.145  0.00  0.00    +0.302 C 
ATOM      3  O   UNL     1       1.803  -4.393   4.181  0.00  0.00    -0.253 OA
ATOM      4  N   UNL     1       2.902  -6.091   5.100  0.00  0.00    -0.286 N 
ATOM      5  C   UNL     1       3.315  -5.280   6.254  0.00  0.00    +0.111 C 
ATOM      6  C   UNL     1       2.959  -6.034   7.539  0.00  0.00    +0.045 C 
ATOM      7  C   UNL     1       3.583  -7.431   7.496  0.00  0.00    +0.040 C 
ATOM      8  C   UNL     1       3.016  -8.209   6.307  0.00  0.00    +0.045 C 
ATOM      9  C   UNL     1       3.368  -7.481   5.011  0.00  0.00    +0.111 C 
ATOM     10  C   UNL     1       3.259  -8.174   8.793  0.00  0.00    +0.032 C 
ATOM     11  H   UNL     1       1.948  -7.273   3.078  0.00  0.00    +0.150 HD
ENDROOT
BRANCH   7  12
ATOM     12  N   UNL     1       5.037  -7.312   7.353  0.00  0.00    -0.265 N 
ATOM     13  C   UNL     1       5.734  -8.069   6.311  0.00  0.00    +0.136 C 
ATOM     14  C   UNL     1       5.731  -6.506   8.180  0.00  0.00    +0.404 C 
ATOM     15  O   UNL     1       5.153  -5.878   9.044  0.00  0.00    -0.226 OA
BRANCH  14  16
ATOM     16  O   UNL     1       7.067  -6.396   8.048  0.00  0.00    -0.445 OA
BRANCH  16  17
ATOM     17  C   UNL     1       7.739  -5.524   8.959  0.00  0.00    +0.107 C 
ATOM     18  C   UNL     1       7.506  -6.005  10.392  0.00  0.00    +0.055 C 
ATOM     19  C   UNL     1       9.239  -5.530   8.657  0.00  0.00    +0.055 C 
ATOM     20  C   UNL     1       7.193  -4.104   8.802  0.00  0.00    +0.055 C 
ENDBRANCH  16  17
ENDBRANCH  14  16
ENDBRANCH   7  12
BRANCH   1  21
ATOM     21  C   UNL     1       0.692  -5.818   2.177  0.00  0.00    +0.087 C 
BRANCH  21  22
ATOM     22  C   UNL     1       0.334  -6.905   1.161  0.00  0.00    -0.060 C 
BRANCH  22  28
ATOM     23  C   UNL     1      -2.578  -8.032  -2.610  0.00  0.00    +0.005 C 
ATOM     24  C   UNL     1      -2.122  -6.908  -1.676  0.00  0.00    -0.031 C 
ATOM     25  C   UNL     1      -1.520  -5.769  -2.503  0.00  0.00    -0.001 C 
ATOM     26  C   UNL     1      -0.997  -4.685  -1.556  0.00  0.00    -0.018 C 
ATOM     27  C   UNL     1       0.019  -5.303  -0.594  0.00  0.00    -0.079 C 
ATOM     28  N   UNL     1      -0.624  -6.367   0.186  0.00  0.00    +0.381 N 
ATOM     29  C   UNL     1      -1.065  -7.444  -0.709  0.00  0.00    -0.076 C 
ATOM     30  H   UNL     1      -1.422  -5.990   0.674  0.00  0.00    -0.082 HD
ENDBRANCH  22  28
ENDBRANCH  21  22
ENDBRANCH   1  21
TORSDOF 6
