REMARK  Name = ZINC04469478
REMARK  5 active torsions:
REMARK  status: ('A' for Active; 'I' for Inactive)
REMARK    1  A    between atoms: C_1  and  C_2
REMARK    2  A    between atoms: C_5  and  C_9
REMARK    3  A    between atoms: C_6  and  C_8
REMARK    4  A    between atoms: C_9  and  C_11
REMARK    5  A    between atoms: C_11  and  N_12
REMARK                            x       y       z     vdW  Elec       q    Type
REMARK                         _______ _______ _______ _____ _____    ______ ____
ROOT
ATOM      1  N   UNL     1       1.023  -6.409  -0.625  0.00  0.00    -0.217 N 
ATOM      2  C   UNL     1       2.264  -6.904  -0.435  0.00  0.00    +0.247 C 
ATOM      3  O   UNL     1       3.316  -6.313  -0.547  0.00  0.00    -0.273 OA
ATOM      4  C   UNL     1       2.064  -8.353  -0.055  0.00  0.00    +0.113 C 
ATOM      5  C   UNL     1       2.756  -9.282  -1.012  0.00  0.00    +0.035 C 
ATOM      6  C   UNL     1       1.960 -10.584  -1.246  0.00  0.00    +0.003 C 
ATOM      7  C   UNL     1       1.349 -11.150   0.051  0.00  0.00    +0.000 C 
ATOM      8  C   UNL     1       2.295 -11.063   1.217  0.00  0.00    +0.000 C 
ATOM      9  C   UNL     1       1.997  -9.763   1.990  0.00  0.00    +0.003 C 
ATOM     10  C   UNL     1       2.604  -8.593   1.369  0.00  0.00    +0.035 C 
ATOM     11  N   UNL     1       0.608  -8.531  -0.072  0.00  0.00    -0.285 N 
ATOM     12  C   UNL     1       0.083  -7.338  -0.413  0.00  0.00    +0.310 C 
ATOM     13  O   UNL     1      -1.110  -7.130  -0.519  0.00  0.00    -0.252 OA
ATOM     14  H   UNL     1       0.120  -9.345   0.127  0.00  0.00    +0.151 HD
ENDROOT
BRANCH   1  15
ATOM     15  C   UNL     1       0.740  -5.024  -1.010  0.00  0.00    +0.197 C 
BRANCH  15  16
ATOM     16  C   UNL     1       0.587  -4.179   0.229  0.00  0.00    +0.181 C 
ATOM     17  O   UNL     1       0.703  -4.685   1.325  0.00  0.00    -0.290 OA
BRANCH  16  22
ATOM     18  C   UNL     1      -0.549   1.436  -0.242  0.00  0.00    +0.044 C 
ATOM     19  C   UNL     1      -0.251  -0.036  -0.118  0.00  0.00    -0.050 A 
ATOM     20  C   UNL     1       0.012  -0.782  -1.254  0.00  0.00    +0.004 A 
ATOM     21  C   UNL     1       0.286  -2.130  -1.149  0.00  0.00    +0.012 A 
ATOM     22  C   UNL     1       0.296  -2.742   0.108  0.00  0.00    +0.022 A 
ATOM     23  C   UNL     1       0.029  -1.981   1.251  0.00  0.00    -0.040 A 
ATOM     24  C   UNL     1      -0.237  -0.633   1.130  0.00  0.00    +0.007 A 
ATOM     25  C   UNL     1       0.037  -2.630   2.610  0.00  0.00    +0.044 C 
ENDBRANCH  16  22
ENDBRANCH  15  16
ENDBRANCH   1  15
TORSDOF 3
