REMARK  Name = ZINC19830684
REMARK  8 active torsions:
REMARK  status: ('A' for Active; 'I' for Inactive)
REMARK    1  A    between atoms: C_1  and  C_2
REMARK    2  A    between atoms: C_2  and  C_3
REMARK    3  A    between atoms: C_2  and  N_4
REMARK    4  A    between atoms: C_5  and  C_7
REMARK    5  A    between atoms: N_10  and  C_13
REMARK    6  A    between atoms: N_16  and  C_19
REMARK    7  A    between atoms: C_19  and  C_20
REMARK    8  A    between atoms: C_25  and  C_26
REMARK                            x       y       z     vdW  Elec       q    Type
REMARK                         _______ _______ _______ _____ _____    ______ ____
ROOT
ATOM      1  C   UNL     1       1.673   1.958   0.107  0.00  0.00    -0.066 C 
ATOM      2  C   UNL     1       0.199   1.544   0.058  0.00  0.00    +0.000 C 
ATOM      3  C   UNL     1       0.105   0.017   0.019  0.00  0.00    +0.083 C 
ATOM      4  N   UNL     1       0.814  -0.489  -1.164  0.00  0.00    -0.298 NA
ATOM      5  C   UNL     1       2.240  -0.144  -1.115  0.00  0.00    +0.083 C 
ATOM      6  C   UNL     1       2.399   1.378  -1.110  0.00  0.00    +0.000 C 
ENDROOT
BRANCH   1  10
ATOM      7  C   UNL     1       2.355   6.055   1.121  0.00  0.00    +0.071 C 
ATOM      8  C   UNL     1       3.248   5.377   0.079  0.00  0.00    -0.006 C 
ATOM      9  C   UNL     1       3.164   3.859   0.251  0.00  0.00    -0.078 C 
ATOM     10  N   UNL     1       1.772   3.423   0.086  0.00  0.00    +0.382 N 
ATOM     11  C   UNL     1       0.902   4.024   1.105  0.00  0.00    -0.078 C 
ATOM     12  C   UNL     1       0.919   5.548   0.958  0.00  0.00    -0.006 C 
ATOM     13  H   UNL     1       1.426   3.773  -0.898  0.00  0.00    -0.081 HD
BRANCH   7  15
ATOM     14  N   UNL     1       1.669   8.354   1.726  0.00  0.00    -0.313 N 
ATOM     15  C   UNL     1       2.387   7.548   0.918  0.00  0.00    +0.216 C 
ATOM     16  O   UNL     1       3.058   8.024   0.028  0.00  0.00    -0.276 OA
ATOM     17  H   UNL     1       1.060   7.921   2.534  0.00  0.00    +0.149 HD
BRANCH  14  19
ATOM     18  C   UNL     1       0.417  10.423   2.086  0.00  0.00    +0.027 C 
ATOM     19  C   UNL     1       1.701   9.805   1.529  0.00  0.00    +0.067 C 
ATOM     20  C   UNL     1       2.910  10.393   2.259  0.00  0.00    +0.027 C 
ENDBRANCH  14  19
ENDBRANCH   7  15
ENDBRANCH   1  10
BRANCH   4  21
ATOM     21  C   UNL     1       0.627  -1.939  -1.309  0.00  0.00    +0.123 C 
BRANCH  21  22
ATOM     22  C   UNL     1       1.023  -2.359  -2.702  0.00  0.00    +0.007 A 
ATOM     23  C   UNL     1       2.155  -3.016  -3.043  0.00  0.00    +0.110 A 
ATOM     24  N   UNL     1       2.134  -3.204  -4.379  0.00  0.00    -0.284 N 
ATOM     25  H   UNL     1       2.967  -3.724  -4.875  0.00  0.00    +0.188 HD
ATOM     26  N   UNL     1       0.950  -2.645  -4.875  0.00  0.00    -0.178 NA
ATOM     27  C   UNL     1       0.282  -2.143  -3.868  0.00  0.00    +0.070 A 
BRANCH  27  28
ATOM     28  C   UNL     1      -1.054  -1.450  -3.951  0.00  0.00    +0.040 C 
ATOM     29  C   UNL     1      -2.119  -2.448  -4.410  0.00  0.00    +0.010 C 
ATOM     30  C   UNL     1      -3.475  -1.744  -4.495  0.00  0.00    +0.001 C 
ATOM     31  C   UNL     1      -3.389  -0.591  -5.497  0.00  0.00    +0.000 C 
ATOM     32  C   UNL     1      -2.324   0.407  -5.038  0.00  0.00    +0.001 C 
ATOM     33  C   UNL     1      -0.969  -0.297  -4.953  0.00  0.00    +0.010 C 
ENDBRANCH  27  28
ENDBRANCH  21  22
ENDBRANCH   4  21
TORSDOF 6
