REMARK  Name = ZINC18169547
REMARK  5 active torsions:
REMARK  status: ('A' for Active; 'I' for Inactive)
REMARK    1  A    between atoms: C_7  and  C_20
REMARK    2  A    between atoms: N_9  and  C_10
REMARK    3  A    between atoms: C_10  and  C_11
REMARK    4  A    between atoms: C_11  and  O_12
REMARK    5  A    between atoms: O_12  and  C_13
REMARK                            x       y       z     vdW  Elec       q    Type
REMARK                         _______ _______ _______ _____ _____    ______ ____
ROOT
ATOM      1  C   UNL     1       0.778   1.403  -0.573  0.00  0.00    +0.001 A 
ATOM      2  C   UNL     1       1.984   1.957  -0.171  0.00  0.00    +0.002 A 
ATOM      3  C   UNL     1       2.995   1.158   0.320  0.00  0.00    +0.026 A 
ATOM      4  C   UNL     1       2.808  -0.217   0.416  0.00  0.00    +0.050 A 
ATOM      5  C   UNL     1       1.587  -0.775   0.009  0.00  0.00    +0.007 A 
ATOM      6  C   UNL     1       0.575   0.042  -0.485  0.00  0.00    +0.010 A 
ATOM      7  C   UNL     1       1.711  -2.229   0.236  0.00  0.00    +0.001 A 
ATOM      8  C   UNL     1       2.981  -2.429   0.754  0.00  0.00    +0.095 A 
ATOM      9  N   UNL     1       3.615  -1.248   0.857  0.00  0.00    -0.343 N 
ENDROOT
BRANCH   7  10
ATOM     10  C   UNL     1       0.737  -3.213  -0.022  0.00  0.00    +0.028 C 
ATOM     11  C   UNL     1       1.081  -4.366  -0.722  0.00  0.00    +0.101 C 
ATOM     12  C   UNL     1       0.150  -5.503  -0.837  0.00  0.00    +0.255 C 
ATOM     13  N   UNL     1       0.560  -6.584  -1.534  0.00  0.00    -0.262 N 
ATOM     14  C   UNL     1       1.774  -6.622  -2.102  0.00  0.00    +0.164 C 
ATOM     15  N   UNL     1       2.652  -5.625  -2.028  0.00  0.00    -0.154 NA
ATOM     16  C   UNL     1       2.385  -4.501  -1.385  0.00  0.00    +0.274 C 
ATOM     17  O   UNL     1       3.293  -3.503  -1.332  0.00  0.00    -0.268 OA
ATOM     18  S   UNL     1       2.220  -8.030  -2.968  0.00  0.00    -0.016 S 
ATOM     19  O   UNL     1      -0.952  -5.468  -0.321  0.00  0.00    -0.270 OA
ATOM     20  H   UNL     1      -0.033  -7.346  -1.625  0.00  0.00    +0.157 HD
ENDBRANCH   7  10
BRANCH   9  21
ATOM     21  C   UNL     1       4.979  -1.077   1.366  0.00  0.00    +0.163 C 
BRANCH  21  22
ATOM     22  C   UNL     1       4.927  -0.731   2.855  0.00  0.00    +0.250 C 
BRANCH  22  23
ATOM     23  O   UNL     1       6.256  -0.565   3.352  0.00  0.00    -0.487 OA
BRANCH  23  24
ATOM     24  C   UNL     1       6.389  -0.252   4.668  0.00  0.00    +0.156 A 
ATOM     25  C   UNL     1       5.263  -0.113   5.466  0.00  0.00    +0.048 A 
ATOM     26  C   UNL     1       5.400   0.205   6.804  0.00  0.00    +0.004 A 
ATOM     27  C   UNL     1       6.658   0.386   7.348  0.00  0.00    +0.003 A 
ATOM     28  C   UNL     1       7.783   0.250   6.556  0.00  0.00    +0.042 A 
ATOM     29  C   UNL     1       7.652  -0.075   5.218  0.00  0.00    +0.165 A 
ATOM     30  F   UNL     1       8.752  -0.215   4.446  0.00  0.00    -0.202 F 
ENDBRANCH  23  24
ENDBRANCH  22  23
ENDBRANCH  21  22
ENDBRANCH   9  21
TORSDOF 5
