REMARK  Name = ZINC63476889
REMARK  5 active torsions:
REMARK  status: ('A' for Active; 'I' for Inactive)
REMARK    1  A    between atoms: C_1  and  C_2
REMARK    2  A    between atoms: N_5  and  C_18
REMARK    3  A    between atoms: C_7  and  C_9
REMARK    4  A    between atoms: N_11  and  C_12
REMARK    5  A    between atoms: C_12  and  C_16
REMARK                            x       y       z     vdW  Elec       q    Type
REMARK                         _______ _______ _______ _____ _____    ______ ____
ROOT
ATOM      1  C   UNL     1      -0.548   0.959  -0.092  0.00  0.00    +0.038 C 
ATOM      2  C   UNL     1      -0.014  -0.451   0.165  0.00  0.00    +0.157 C 
ATOM      3  C   UNL     1       0.729  -0.945  -1.054  0.00  0.00    +0.259 C 
ATOM      4  O   UNL     1       0.133  -1.514  -1.945  0.00  0.00    -0.271 OA
ATOM      5  N   UNL     1       2.059  -0.748  -1.144  0.00  0.00    -0.157 N 
ATOM      6  N   UNL     1       2.760  -0.110  -0.115  0.00  0.00    -0.152 NA
ATOM      7  C   UNL     1       2.224   0.044   1.064  0.00  0.00    +0.200 C 
ATOM      8  N   UNL     1       0.927  -0.428   1.295  0.00  0.00    -0.313 N 
ATOM      9  H   UNL     1       0.656  -0.730   2.176  0.00  0.00    +0.148 HD
ENDROOT
BRANCH   5  10
ATOM     10  C   UNL     1       2.748  -1.186  -2.281  0.00  0.00    +0.060 A 
ATOM     11  C   UNL     1       3.913  -1.930  -2.145  0.00  0.00    +0.025 A 
ATOM     12  C   UNL     1       4.590  -2.361  -3.268  0.00  0.00    +0.002 A 
ATOM     13  C   UNL     1       4.110  -2.053  -4.528  0.00  0.00    +0.000 A 
ATOM     14  C   UNL     1       2.950  -1.313  -4.667  0.00  0.00    +0.002 A 
ATOM     15  C   UNL     1       2.265  -0.883  -3.547  0.00  0.00    +0.025 A 
ENDBRANCH   5  10
BRANCH   7  16
ATOM     16  C   UNL     1       2.977   0.708   2.143  0.00  0.00    +0.280 C 
ATOM     17  O   UNL     1       2.471   0.849   3.240  0.00  0.00    -0.267 OA
ATOM     18  N   UNL     1       4.226   1.160   1.913  0.00  0.00    -0.291 N 
ATOM     19  H   UNL     1       4.629   1.048   1.038  0.00  0.00    +0.151 HD
BRANCH  18  20
ATOM     20  C   UNL     1       4.974   1.821   2.985  0.00  0.00    +0.122 C 
ATOM     21  C   UNL     1       4.627   3.309   3.152  0.00  0.00    +0.041 C 
ATOM     22  C   UNL     1       6.128   3.552   3.385  0.00  0.00    +0.006 C 
ATOM     23  C   UNL     1       6.381   2.277   2.564  0.00  0.00    +0.041 C 
BRANCH  20  24
ATOM     24  C   UNL     1       4.954   1.063   4.247  0.00  0.00    +0.088 C 
ATOM     25  N   UNL     1       4.938   0.479   5.221  0.00  0.00    -0.194 NA
ENDBRANCH  20  24
ENDBRANCH  18  20
ENDBRANCH   7  16
TORSDOF 4
