REMARK  Name = ZINC65406011
REMARK  6 active torsions:
REMARK  status: ('A' for Active; 'I' for Inactive)
REMARK    1  A    between atoms: C_1  and  C_2
REMARK    2  A    between atoms: C_2  and  O_3
REMARK    3  A    between atoms: O_3  and  C_4
REMARK    4  A    between atoms: C_4  and  C_6
REMARK    5  A    between atoms: C_11  and  N_12
REMARK    6  A    between atoms: N_21  and  C_27
REMARK                            x       y       z     vdW  Elec       q    Type
REMARK                         _______ _______ _______ _____ _____    ______ ____
ROOT
ATOM      1  N   UNL     1       0.885  -4.532   1.716  0.00  0.00    -0.269 N 
ATOM      2  C   UNL     1       0.799  -5.860   1.927  0.00  0.00    +0.307 C 
ATOM      3  O   UNL     1       1.199  -6.337   2.971  0.00  0.00    -0.252 OA
ATOM      4  N   UNL     1       0.269  -6.660   0.980  0.00  0.00    -0.282 N 
ATOM      5  C   UNL     1      -0.318  -6.092  -0.243  0.00  0.00    +0.124 C 
ATOM      6  C   UNL     1      -1.716  -6.689  -0.441  0.00  0.00    +0.104 C 
ATOM      7  N   UNL     1      -1.621  -8.154  -0.410  0.00  0.00    -0.287 NA
ATOM      8  C   UNL     1      -2.897  -8.787  -0.767  0.00  0.00    +0.104 C 
ATOM      9  C   UNL     1      -2.655 -10.276  -1.024  0.00  0.00    +0.123 C 
ATOM     10  N   UNL     1      -1.897 -10.860   0.078  0.00  0.00    -0.302 N 
ATOM     11  C   UNL     1      -1.195 -10.127   0.950  0.00  0.00    +0.234 C 
ATOM     12  O   UNL     1      -0.562 -10.696   1.814  0.00  0.00    -0.274 OA
ATOM     13  C   UNL     1      -1.161  -8.627   0.901  0.00  0.00    +0.161 C 
ATOM     14  C   UNL     1       0.270  -8.123   1.143  0.00  0.00    +0.137 C 
ATOM     15  C   UNL     1      -1.905 -12.316   0.237  0.00  0.00    +0.132 C 
ATOM     16  H   UNL     1       0.502  -4.142   0.914  0.00  0.00    +0.156 HD
ENDROOT
BRANCH   1  22
ATOM     17  C   UNL     1       2.247  -2.594   2.226  0.00  0.00    +0.080 A 
ATOM     18  C   UNL     1       2.877  -1.783   3.173  0.00  0.00    +0.017 A 
ATOM     19  C   UNL     1       2.789  -2.094   4.513  0.00  0.00    +0.001 A 
ATOM     20  C   UNL     1       2.077  -3.209   4.926  0.00  0.00    +0.002 A 
ATOM     21  C   UNL     1       1.449  -4.020   4.003  0.00  0.00    +0.024 A 
ATOM     22  C   UNL     1       1.522  -3.719   2.649  0.00  0.00    +0.049 A 
BRANCH  17  23
ATOM     23  C   UNL     1       2.337  -2.267   0.792  0.00  0.00    +0.341 C 
ATOM     24  O   UNL     1       1.869  -3.024  -0.035  0.00  0.00    -0.245 OA
BRANCH  23  25
ATOM     25  O   UNL     1       2.939  -1.127   0.398  0.00  0.00    -0.461 OA
BRANCH  25  27
ATOM     26  C   UNL     1       3.705   0.456  -1.260  0.00  0.00    +0.048 C 
ATOM     27  C   UNL     1       2.991  -0.874  -1.008  0.00  0.00    +0.229 C 
ENDBRANCH  25  27
ENDBRANCH  23  25
ENDBRANCH  17  23
ENDBRANCH   1  22
TORSDOF 4
