REMARK  Name = ZINC35643645
REMARK  12 active torsions:
REMARK  status: ('A' for Active; 'I' for Inactive)
REMARK    1  A    between atoms: C_1  and  C_2
REMARK    2  A    between atoms: C_2  and  O_3
REMARK    3  A    between atoms: O_3  and  C_4
REMARK    4  A    between atoms: C_4  and  C_6
REMARK    5  A    between atoms: C_7  and  C_23
REMARK    6  A    between atoms: N_8  and  C_22
REMARK    7  A    between atoms: C_12  and  C_14
REMARK    8  A    between atoms: C_17  and  O_20
REMARK    9  A    between atoms: O_20  and  C_21
REMARK   10  A    between atoms: C_23  and  N_24
REMARK   11  A    between atoms: C_28  and  C_31
REMARK   12  A    between atoms: C_32  and  C_34
REMARK                            x       y       z     vdW  Elec       q    Type
REMARK                         _______ _______ _______ _____ _____    ______ ____
ROOT
ATOM      1  C   UNL     1       0.952  -2.082   0.085  0.00  0.00    +0.080 C 
ATOM      2  C   UNL     1       1.317  -3.249  -0.485  0.00  0.00    +0.041 C 
ATOM      3  N   UNL     1       2.087  -3.272  -1.613  0.00  0.00    -0.260 N 
ATOM      4  C   UNL     1       2.533  -2.170  -2.230  0.00  0.00    +0.307 C 
ATOM      5  O   UNL     1       3.213  -2.291  -3.230  0.00  0.00    -0.252 OA
ATOM      6  N   UNL     1       2.250  -0.932  -1.780  0.00  0.00    -0.288 N 
ATOM      7  C   UNL     1       1.419  -0.798  -0.571  0.00  0.00    +0.144 C 
ATOM      8  C   UNL     1       2.447  -4.575  -2.179  0.00  0.00    +0.139 C 
ATOM      9  H   UNL     1       2.583  -0.147  -2.242  0.00  0.00    +0.151 HD
ENDROOT
BRANCH   7  10
ATOM     10  C   UNL     1       2.210  -0.018   0.447  0.00  0.00    -0.022 A 
ATOM     11  C   UNL     1       3.530  -0.347   0.696  0.00  0.00    +0.009 A 
ATOM     12  C   UNL     1       4.257   0.367   1.629  0.00  0.00    +0.046 A 
ATOM     13  C   UNL     1       3.662   1.416   2.315  0.00  0.00    +0.120 A 
ATOM     14  C   UNL     1       2.338   1.745   2.062  0.00  0.00    +0.046 A 
ATOM     15  C   UNL     1       1.617   1.031   1.125  0.00  0.00    +0.009 A 
BRANCH  13  16
ATOM     16  O   UNL     1       4.375   2.119   3.233  0.00  0.00    -0.495 OA
ATOM     17  C   UNL     1       3.699   3.186   3.901  0.00  0.00    +0.277 C 
ENDBRANCH  13  16
ENDBRANCH   7  10
BRANCH   1  18
ATOM     18  C   UNL     1       0.154  -2.057   1.253  0.00  0.00    +0.339 C 
ATOM     19  O   UNL     1      -1.032  -1.792   1.175  0.00  0.00    -0.245 OA
BRANCH  18  20
ATOM     20  O   UNL     1       0.707  -2.327   2.454  0.00  0.00    -0.462 OA
BRANCH  20  22
ATOM     21  C   UNL     1       0.641  -2.615   4.853  0.00  0.00    +0.048 C 
ATOM     22  C   UNL     1      -0.158  -2.284   3.591  0.00  0.00    +0.229 C 
ENDBRANCH  20  22
ENDBRANCH  18  20
ENDBRANCH   1  18
BRANCH   2  23
ATOM     23  C   UNL     1       0.869  -4.549   0.132  0.00  0.00    +0.136 C 
BRANCH  23  24
ATOM     24  N   UNL     1      -0.020  -5.253  -0.801  0.00  0.00    -0.294 NA
ATOM     25  C   UNL     1      -1.268  -4.506  -1.004  0.00  0.00    +0.104 C 
ATOM     26  C   UNL     1      -2.086  -5.176  -2.114  0.00  0.00    +0.124 C 
ATOM     27  N   UNL     1      -2.260  -6.596  -1.774  0.00  0.00    -0.292 N 
ATOM     28  C   UNL     1      -1.065  -7.379  -1.423  0.00  0.00    +0.087 C 
ATOM     29  C   UNL     1      -0.288  -6.623  -0.341  0.00  0.00    +0.107 C 
ATOM     30  C   UNL     1      -1.487  -8.752  -0.895  0.00  0.00    +0.029 C 
ATOM     31  C   UNL     1      -3.481  -7.165  -1.784  0.00  0.00    +0.250 C 
ATOM     32  O   UNL     1      -3.618  -8.317  -1.419  0.00  0.00    -0.270 OA
BRANCH  31  33
ATOM     33  C   UNL     1      -4.653  -6.390  -2.238  0.00  0.00    +0.072 A 
ATOM     34  C   UNL     1      -4.500  -5.378  -3.188  0.00  0.00    +0.016 A 
ATOM     35  C   UNL     1      -5.598  -4.659  -3.609  0.00  0.00    +0.001 A 
ATOM     36  C   UNL     1      -6.852  -4.935  -3.091  0.00  0.00    +0.003 A 
ATOM     37  C   UNL     1      -7.014  -5.934  -2.150  0.00  0.00    +0.039 A 
ATOM     38  C   UNL     1      -5.923  -6.669  -1.723  0.00  0.00    +0.135 A 
ATOM     39  F   UNL     1      -6.082  -7.649  -0.807  0.00  0.00    -0.205 F 
ENDBRANCH  31  33
ENDBRANCH  23  24
ENDBRANCH   2  23
TORSDOF 8
