REMARK  Name = ZINC06062335
REMARK  6 active torsions:
REMARK  status: ('A' for Active; 'I' for Inactive)
REMARK    1  A    between atoms: C_1  and  C_2
REMARK    2  A    between atoms: C_2  and  C_4
REMARK    3  A    between atoms: C_2  and  O_17
REMARK    4  A    between atoms: N_6  and  C_7
REMARK    5  A    between atoms: O_17  and  C_18
REMARK    6  A    between atoms: C_21  and  N_25
REMARK                            x       y       z     vdW  Elec       q    Type
REMARK                         _______ _______ _______ _____ _____    ______ ____
ROOT
ATOM      1  C   UNL     1      -2.056   5.664  -1.168  0.00  0.00    +0.254 C 
ATOM      2  O   UNL     1      -2.763   5.129  -1.996  0.00  0.00    -0.272 OA
ATOM      3  N   UNL     1      -1.339   4.914  -0.308  0.00  0.00    -0.307 N 
ATOM      4  H   UNL     1      -0.774   5.342   0.354  0.00  0.00    +0.149 HD
ENDROOT
BRANCH   3   5
ATOM      5  C   UNL     1      -1.413   3.452  -0.373  0.00  0.00    +0.035 C 
ATOM      6  C   UNL     1      -0.948   2.979  -1.752  0.00  0.00    +0.029 C 
ATOM      7  C   UNL     1      -1.025   1.453  -1.821  0.00  0.00    -0.008 C 
ATOM      8  C   UNL     1      -0.123   0.848  -0.743  0.00  0.00    +0.007 C 
ATOM      9  C   UNL     1      -0.588   1.321   0.636  0.00  0.00    -0.008 C 
ATOM     10  C   UNL     1      -0.511   2.847   0.704  0.00  0.00    +0.029 C 
ATOM     11  C   UNL     1      -2.031   0.872   0.869  0.00  0.00    +0.007 C 
ATOM     12  C   UNL     1      -2.934   1.477  -0.208  0.00  0.00    -0.008 C 
ATOM     13  C   UNL     1      -2.469   1.004  -1.587  0.00  0.00    +0.007 C 
ATOM     14  C   UNL     1      -2.857   3.003  -0.140  0.00  0.00    +0.029 C 
ENDBRANCH   3   5
BRANCH   1  16
ATOM     15  C   UNL     1      -2.445   7.640   0.278  0.00  0.00    +0.062 C 
ATOM     16  C   UNL     1      -1.980   7.167  -1.101  0.00  0.00    +0.256 C 
BRANCH  16  17
ATOM     17  O   UNL     1      -2.823   7.732  -2.107  0.00  0.00    -0.478 OA
BRANCH  17  18
ATOM     18  C   UNL     1      -2.509   8.980  -2.546  0.00  0.00    +0.140 A 
ATOM     19  C   UNL     1      -1.484   9.691  -1.942  0.00  0.00    +0.049 A 
ATOM     20  C   UNL     1      -1.164  10.957  -2.392  0.00  0.00    +0.036 A 
ATOM     21  C   UNL     1      -1.870  11.520  -3.439  0.00  0.00    +0.128 A 
ATOM     22  C   UNL     1      -2.896  10.815  -4.042  0.00  0.00    +0.056 A 
ATOM     23  C   UNL     1      -3.218   9.546  -3.597  0.00  0.00    +0.085 A 
ATOM     24 CL   UNL     1      -4.506   8.661  -4.353  0.00  0.00    -0.080 Cl
BRANCH  21  25
ATOM     25  N   UNL     1      -1.528  12.878  -3.917  0.00  0.00    +0.056 N 
ATOM     26  O   UNL     1      -2.150  13.374  -4.839  0.00  0.00    -0.126 OA
ATOM     27  O   UNL     1      -0.625  13.500  -3.387  0.00  0.00    -0.126 OA
ENDBRANCH  21  25
ENDBRANCH  17  18
ENDBRANCH  16  17
ENDBRANCH   1  16
TORSDOF 5
