REMARK  Name = ZINC52551587
REMARK  4 active torsions:
REMARK  status: ('A' for Active; 'I' for Inactive)
REMARK    1  A    between atoms: C_1  and  C_2
REMARK    2  A    between atoms: C_2  and  C_3
REMARK    3  A    between atoms: C_2  and  C_4
REMARK    4  A    between atoms: C_13  and  C_15
REMARK                            x       y       z     vdW  Elec       q    Type
REMARK                         _______ _______ _______ _____ _____    ______ ____
ROOT
ATOM      1  C   UNL     1      -1.433  -0.534   0.013  0.00  0.00    +0.058 C 
ATOM      2  C   UNL     1      -1.417  -2.063  -0.005  0.00  0.00    +0.114 C 
ATOM      3  N   UNL     1      -1.053  -2.592  -1.315  0.00  0.00    -0.311 N 
ATOM      4  C   UNL     1      -1.510  -2.039  -2.462  0.00  0.00    +0.242 C 
ATOM      5  O   UNL     1      -1.362  -2.594  -3.535  0.00  0.00    -0.270 OA
ATOM      6  C   UNL     1      -2.167  -0.792  -2.365  0.00  0.00    +0.042 C 
ATOM      7  C   UNL     1      -2.167  -0.042  -1.218  0.00  0.00    +0.055 C 
ATOM      8  N   UNL     1      -2.856   1.084  -1.371  0.00  0.00    -0.255 NA
ATOM      9  C   UNL     1      -3.359   1.238  -2.569  0.00  0.00    +0.053 C 
ATOM     10  C   UNL     1      -2.947   0.001  -3.373  0.00  0.00    +0.098 C 
ATOM     11  H   UNL     1      -0.465  -3.362  -1.366  0.00  0.00    +0.149 HD
ENDROOT
BRANCH   9  12
ATOM     12  C   UNL     1      -4.162   2.376  -3.047  0.00  0.00    -0.001 A 
ATOM     13  C   UNL     1      -4.649   2.413  -4.362  0.00  0.00    +0.029 A 
ATOM     14  C   UNL     1      -5.397   3.499  -4.767  0.00  0.00    +0.111 A 
ATOM     15  N   UNL     1      -5.656   4.491  -3.938  0.00  0.00    -0.263 NA
ATOM     16  C   UNL     1      -5.219   4.497  -2.693  0.00  0.00    +0.111 A 
ATOM     17  C   UNL     1      -4.468   3.450  -2.200  0.00  0.00    +0.029 A 
ENDBRANCH   9  12
BRANCH   1  19
ATOM     18  C   UNL     1      -0.019   1.526   0.010  0.00  0.00    +0.008 C 
ATOM     19  C   UNL     1       0.002  -0.004   0.002  0.00  0.00    -0.007 C 
ATOM     20  C   UNL     1       0.742  -0.511   1.242  0.00  0.00    +0.008 C 
ENDBRANCH   1  19
TORSDOF 2
