REMARK  Name = ZINC50709276
REMARK  5 active torsions:
REMARK  status: ('A' for Active; 'I' for Inactive)
REMARK    1  A    between atoms: C_2  and  C_12
REMARK    2  A    between atoms: C_5  and  N_10
REMARK    3  A    between atoms: C_6  and  N_7
REMARK    4  A    between atoms: C_18  and  C_20
REMARK    5  A    between atoms: C_20  and  O_21
REMARK                            x       y       z     vdW  Elec       q    Type
REMARK                         _______ _______ _______ _____ _____    ______ ____
ROOT
ATOM      1  C   UNL     1       2.294   1.734   0.043  0.00  0.00    +0.047 A 
ATOM      2  C   UNL     1       0.976   2.084   0.349  0.00  0.00    +0.041 A 
ATOM      3  C   UNL     1      -0.046   1.141   0.205  0.00  0.00    +0.035 A 
ATOM      4  C   UNL     1       0.249  -0.130  -0.237  0.00  0.00    +0.065 A 
ATOM      5  C   UNL     1       1.564  -0.474  -0.540  0.00  0.00    +0.074 A 
ATOM      6  C   UNL     1       2.583   0.463  -0.399  0.00  0.00    +0.149 A 
ATOM      7 CL   UNL     1      -1.018  -1.302  -0.414  0.00  0.00    -0.082 Cl
ENDROOT
BRANCH   2   8
ATOM      8  C   UNL     1       0.663   3.446   0.822  0.00  0.00    +0.247 C 
ATOM      9  O   UNL     1      -0.474   3.870   0.746  0.00  0.00    -0.270 OA
ATOM     10  N   UNL     1       1.638   4.220   1.339  0.00  0.00    -0.292 N 
ATOM     11  C   UNL     1       3.019   3.789   1.619  0.00  0.00    +0.108 C 
ATOM     12  C   UNL     1       3.522   4.758   2.718  0.00  0.00    +0.021 C 
ATOM     13  C   UNL     1       2.860   6.092   2.283  0.00  0.00    +0.026 C 
ATOM     14  C   UNL     1       1.501   5.636   1.711  0.00  0.00    +0.102 C 
BRANCH  14  15
ATOM     15  C   UNL     1       1.147   6.466   0.476  0.00  0.00    +0.178 C 
BRANCH  15  16
ATOM     16  O   UNL     1       2.234   6.427  -0.452  0.00  0.00    -0.393 OA
ATOM     17  H   UNL     1       2.079   6.934  -1.260  0.00  0.00    +0.209 HD
ENDBRANCH  15  16
ENDBRANCH  14  15
ENDBRANCH   2   8
BRANCH   6  18
ATOM     18  N   UNL     1       3.979   0.093  -0.723  0.00  0.00    +0.058 N 
ATOM     19  O   UNL     1       4.394  -1.007  -0.441  0.00  0.00    -0.126 OA
ATOM     20  O   UNL     1       4.704   0.890  -1.270  0.00  0.00    -0.126 OA
ENDBRANCH   6  18
BRANCH   5  21
ATOM     21  N   UNL     1       1.860  -1.759  -0.986  0.00  0.00    -0.355 N 
ATOM     22  H   UNL     1       1.146  -2.401  -1.121  0.00  0.00    +0.142 HD
ATOM     23  H   UNL     1       2.780  -2.011  -1.162  0.00  0.00    +0.142 HD
ENDBRANCH   5  21
TORSDOF 5
