REMARK  Name = ZINC64042772
REMARK  6 active torsions:
REMARK  status: ('A' for Active; 'I' for Inactive)
REMARK    1  A    between atoms: C_1  and  C_2
REMARK    2  A    between atoms: C_2  and  C_13
REMARK    3  A    between atoms: N_15  and  C_16
REMARK    4  A    between atoms: C_16  and  C_17
REMARK    5  A    between atoms: C_17  and  C_19
REMARK    6  A    between atoms: C_17  and  C_25
REMARK                            x       y       z     vdW  Elec       q    Type
REMARK                         _______ _______ _______ _____ _____    ______ ____
ROOT
ATOM      1  C   UNL     1      -3.443  -1.177   1.191  0.00  0.00    +0.117 C 
ENDROOT
BRANCH   1   4
ATOM      2  C   UNL     1      -1.412  -0.526   0.012  0.00  0.00    +0.257 C 
ATOM      3  O   UNL     1      -1.959  -0.816  -1.030  0.00  0.00    -0.271 OA
ATOM      4  N   UNL     1      -2.068  -0.670   1.181  0.00  0.00    -0.311 N 
ATOM      5  H   UNL     1      -1.631  -0.438   2.015  0.00  0.00    +0.149 HD
BRANCH   2   7
ATOM      6  C   UNL     1      -0.019   1.526   0.010  0.00  0.00    +0.066 C 
ATOM      7  C   UNL     1       0.002  -0.004   0.002  0.00  0.00    +0.190 C 
ATOM      8  C   UNL     1       0.719  -0.497  -1.256  0.00  0.00    +0.093 C 
ATOM      9  C   UNL     1       0.962  -1.981  -1.168  0.00  0.00    -0.029 A 
ATOM     10  C   UNL     1       1.186  -2.715  -2.316  0.00  0.00    +0.004 A 
ATOM     11  C   UNL     1       1.412  -4.077  -2.235  0.00  0.00    +0.000 A 
ATOM     12  C   UNL     1       1.418  -4.716  -1.008  0.00  0.00    +0.001 A 
ATOM     13  C   UNL     1       1.195  -3.995   0.149  0.00  0.00    +0.015 A 
ATOM     14  C   UNL     1       0.965  -2.623   0.071  0.00  0.00    +0.062 A 
ATOM     15  C   UNL     1       0.715  -1.830   1.297  0.00  0.00    +0.340 C 
ATOM     16  O   UNL     1       0.536  -2.364   2.373  0.00  0.00    -0.245 OA
ATOM     17  O   UNL     1       0.696  -0.479   1.164  0.00  0.00    -0.445 OA
ENDBRANCH   2   7
ENDBRANCH   1   4
BRANCH   1  18
ATOM     18  C   UNL     1      -3.951  -1.244   2.632  0.00  0.00    +0.064 C 
BRANCH  18  19
ATOM     19  C   UNL     1      -5.317  -1.879   2.654  0.00  0.00    -0.033 C 
ATOM     20  C   UNL     1      -5.679  -3.007   3.308  0.00  0.00    -0.000 A 
ATOM     21  C   UNL     1      -4.938  -3.943   4.160  0.00  0.00    +0.010 A 
ATOM     22  C   UNL     1      -5.587  -5.008   4.685  0.00  0.00    +0.001 A 
ATOM     23  C   UNL     1      -6.946  -5.238   4.435  0.00  0.00    +0.002 A 
ATOM     24  C   UNL     1      -7.694  -4.423   3.662  0.00  0.00    +0.026 A 
ATOM     25  C   UNL     1      -7.114  -3.272   3.060  0.00  0.00    +0.043 A 
ATOM     26  N   UNL     1      -7.620  -2.345   2.283  0.00  0.00    -0.380 N 
ATOM     27  C   UNL     1      -6.563  -1.382   1.955  0.00  0.00    +0.145 C 
ATOM     28  H   UNL     1      -8.540  -2.301   1.979  0.00  0.00    +0.160 HD
ENDBRANCH  18  19
BRANCH  18  29
ATOM     29  C   UNL     1      -4.036   0.150   3.199  0.00  0.00    -0.039 A 
ATOM     30  C   UNL     1      -4.857   1.090   2.604  0.00  0.00    +0.004 A 
ATOM     31  C   UNL     1      -4.935   2.368   3.124  0.00  0.00    +0.000 A 
ATOM     32  C   UNL     1      -4.193   2.707   4.240  0.00  0.00    +0.000 A 
ATOM     33  C   UNL     1      -3.373   1.766   4.837  0.00  0.00    +0.000 A 
ATOM     34  C   UNL     1      -3.299   0.487   4.319  0.00  0.00    +0.004 A 
ENDBRANCH  18  29
ENDBRANCH   1  18
TORSDOF 5
