REMARK  Name = ZINC09500994
REMARK  2 active torsions:
REMARK  status: ('A' for Active; 'I' for Inactive)
REMARK    1  A    between atoms: N_8  and  C_11
REMARK    2  A    between atoms: C_11  and  C_12
REMARK                            x       y       z     vdW  Elec       q    Type
REMARK                         _______ _______ _______ _____ _____    ______ ____
ROOT
ATOM      1  C   UNL     1      -1.048  -1.083  -1.408  0.00  0.00    +0.236 C 
ATOM      2  O   UNL     1      -0.003  -0.493  -1.582  0.00  0.00    -0.274 OA
ATOM      3  N   UNL     1      -2.197  -0.392  -1.273  0.00  0.00    -0.297 N 
ATOM      4  C   UNL     1      -3.493  -1.086  -1.233  0.00  0.00    +0.108 C 
ATOM      5  C   UNL     1      -4.253  -0.644   0.021  0.00  0.00    +0.019 C 
ATOM      6  C   UNL     1      -4.352   0.883   0.049  0.00  0.00    +0.007 C 
ATOM      7  C   UNL     1      -2.940   1.480   0.104  0.00  0.00    +0.010 C 
ATOM      8  C   UNL     1      -2.184   1.072  -1.163  0.00  0.00    +0.079 C 
ATOM      9  C   UNL     1      -0.747   1.582  -1.110  0.00  0.00    +0.023 C 
ATOM     10  C   UNL     1      -0.039   1.019   0.123  0.00  0.00    +0.002 C 
ATOM     11  C   UNL     1      -0.787   1.464   1.382  0.00  0.00    +0.000 C 
ATOM     12  C   UNL     1      -2.219   0.925   1.335  0.00  0.00    +0.005 C 
ENDROOT
BRANCH   1  13
ATOM     13  C   UNL     1      -1.063  -2.588  -1.343  0.00  0.00    +0.222 C 
BRANCH  13  21
ATOM     14  C   UNL     1       3.432  -4.053   0.381  0.00  0.00    +0.023 A 
ATOM     15  C   UNL     1       4.624  -4.523  -0.018  0.00  0.00    +0.048 A 
ATOM     16  S   UNL     1       4.455  -4.628  -1.790  0.00  0.00    -0.077 S 
ATOM     17  C   UNL     1       2.788  -4.039  -1.942  0.00  0.00    +0.115 A 
ATOM     18  C   UNL     1       2.411  -3.777  -0.612  0.00  0.00    +0.072 A 
ATOM     19  C   UNL     1       1.079  -3.278  -0.433  0.00  0.00    +0.263 A 
ATOM     20  O   UNL     1       0.659  -3.021   0.682  0.00  0.00    -0.267 OA
ATOM     21  N   UNL     1       0.300  -3.098  -1.516  0.00  0.00    -0.290 N 
ATOM     22  C   UNL     1       0.749  -3.384  -2.765  0.00  0.00    +0.203 A 
ATOM     23  N   UNL     1       1.959  -3.835  -2.961  0.00  0.00    -0.230 NA
ENDBRANCH  13  21
ENDBRANCH   1  13
TORSDOF 2
