REMARK  Name = ZINC20533650
REMARK  7 active torsions:
REMARK  status: ('A' for Active; 'I' for Inactive)
REMARK    1  A    between atoms: C_1  and  C_2
REMARK    2  A    between atoms: C_2  and  C_3
REMARK    3  A    between atoms: C_2  and  C_4
REMARK    4  A    between atoms: N_12  and  C_15
REMARK    5  A    between atoms: C_15  and  C_16
REMARK    6  A    between atoms: C_19  and  O_22
REMARK    7  A    between atoms: O_22  and  C_23
REMARK                            x       y       z     vdW  Elec       q    Type
REMARK                         _______ _______ _______ _____ _____    ______ ____
ROOT
ATOM      1  C   UNL     1       0.720  -0.515  -1.249  0.00  0.00    +0.070 C 
ATOM      2  C   UNL     1       0.603  -2.051  -1.345  0.00  0.00    +0.107 C 
ATOM      3  C   UNL     1       0.425  -2.343  -2.862  0.00  0.00    +0.122 C 
ATOM      4  C   UNL     1      -0.968  -2.925  -2.942  0.00  0.00    +0.229 C 
ATOM      5  O   UNL     1      -1.512  -3.303  -3.957  0.00  0.00    -0.275 OA
ATOM      6  N   UNL     1      -1.508  -2.959  -1.718  0.00  0.00    -0.237 N 
ATOM      7  C   UNL     1      -0.707  -2.492  -0.733  0.00  0.00    +0.227 C 
ATOM      8  O   UNL     1      -0.984  -2.431   0.446  0.00  0.00    -0.275 OA
ATOM      9  C   UNL     1       0.460  -0.962  -3.527  0.00  0.00    +0.136 C 
ATOM     10  N   UNL     1       0.053  -0.001  -2.474  0.00  0.00    -0.295 NA
ATOM     11  C   UNL     1      -0.468  -0.894  -4.707  0.00  0.00    +0.006 A 
ATOM     12  C   UNL     1      -1.824  -1.076  -4.858  0.00  0.00    +0.046 A 
ATOM     13  C   UNL     1      -2.407  -0.941  -6.108  0.00  0.00    +0.124 A 
ATOM     14  C   UNL     1      -1.620  -0.624  -7.203  0.00  0.00    +0.040 A 
ATOM     15  C   UNL     1      -0.261  -0.442  -7.054  0.00  0.00    +0.026 A 
ATOM     16  C   UNL     1       0.332  -0.575  -5.801  0.00  0.00    +0.039 A 
ATOM     17  N   UNL     1       1.665  -0.441  -5.403  0.00  0.00    -0.283 N 
ATOM     18  C   UNL     1       1.823  -0.652  -4.082  0.00  0.00    +0.243 C 
ATOM     19  O   UNL     1       2.864  -0.602  -3.461  0.00  0.00    -0.273 OA
ATOM     20  F   UNL     1      -3.738  -1.118  -6.258  0.00  0.00    -0.205 F 
ATOM     21  H   UNL     1      -0.950   0.020  -2.359  0.00  0.00    +0.124 HD
ATOM     22  H   UNL     1       2.391  -0.221  -6.007  0.00  0.00    +0.155 HD
ENDROOT
BRANCH   1  24
ATOM     23  C   UNL     1       0.777  -0.438   1.248  0.00  0.00    +0.009 C 
ATOM     24  C   UNL     1       0.002  -0.004   0.002  0.00  0.00    +0.001 C 
ATOM     25  C   UNL     1      -0.077   1.523  -0.043  0.00  0.00    +0.009 C 
ENDBRANCH   1  24
BRANCH   6  26
ATOM     26  C   UNL     1      -2.858  -3.466  -1.461  0.00  0.00    +0.151 C 
BRANCH  26  27
ATOM     27  C   UNL     1      -2.793  -4.945  -1.176  0.00  0.00    -0.029 A 
ATOM     28  C   UNL     1      -2.893  -5.853  -2.214  0.00  0.00    +0.009 A 
ATOM     29  C   UNL     1      -2.834  -7.209  -1.955  0.00  0.00    +0.046 A 
ATOM     30  C   UNL     1      -2.674  -7.659  -0.652  0.00  0.00    +0.120 A 
ATOM     31  C   UNL     1      -2.573  -6.745   0.387  0.00  0.00    +0.046 A 
ATOM     32  C   UNL     1      -2.627  -5.391   0.123  0.00  0.00    +0.009 A 
BRANCH  30  33
ATOM     33  O   UNL     1      -2.616  -8.992  -0.395  0.00  0.00    -0.495 OA
ATOM     34  C   UNL     1      -2.450  -9.383   0.969  0.00  0.00    +0.277 C 
ENDBRANCH  30  33
ENDBRANCH  26  27
ENDBRANCH   6  26
TORSDOF 4
