REMARK  Name = ZINC05017681
REMARK  7 active torsions:
REMARK  status: ('A' for Active; 'I' for Inactive)
REMARK    1  A    between atoms: C_1  and  C_2
REMARK    2  A    between atoms: C_2  and  O_3
REMARK    3  A    between atoms: O_3  and  C_4
REMARK    4  A    between atoms: C_4  and  C_6
REMARK    5  A    between atoms: C_7  and  C_21
REMARK    6  A    between atoms: C_12  and  C_14
REMARK    7  A    between atoms: C_21  and  N_48
REMARK                            x       y       z     vdW  Elec       q    Type
REMARK                         _______ _______ _______ _____ _____    ______ ____
ROOT
ATOM      1  C   UNL     1      -0.760  -0.674  -0.942  0.00  0.00    +0.076 C 
ATOM      2  C   UNL     1       0.047   0.022  -0.113  0.00  0.00    +0.008 C 
ATOM      3  N   UNL     1       0.826  -0.614   0.812  0.00  0.00    -0.274 N 
ATOM      4  C   UNL     1       0.846  -1.942   0.977  0.00  0.00    +0.304 C 
ATOM      5  O   UNL     1       1.569  -2.417   1.831  0.00  0.00    -0.252 OA
ATOM      6  N   UNL     1       0.096  -2.770   0.224  0.00  0.00    -0.288 N 
ATOM      7  C   UNL     1      -0.776  -2.183  -0.808  0.00  0.00    +0.145 C 
ATOM      8  H   UNL     1       1.392  -0.072   1.383  0.00  0.00    +0.156 HD
ATOM      9  H   UNL     1       0.129  -3.730   0.358  0.00  0.00    +0.151 HD
ENDROOT
BRANCH   7  10
ATOM     10  C   UNL     1      -2.192  -2.608  -0.515  0.00  0.00    -0.004 A 
ATOM     11  C   UNL     1      -2.618  -2.740   0.793  0.00  0.00    +0.007 A 
ATOM     12  C   UNL     1      -3.916  -3.130   1.061  0.00  0.00    +0.000 A 
ATOM     13  C   UNL     1      -4.790  -3.389   0.021  0.00  0.00    +0.001 A 
ATOM     14  C   UNL     1      -4.365  -3.258  -1.287  0.00  0.00    +0.020 A 
ATOM     15  C   UNL     1      -3.067  -2.862  -1.556  0.00  0.00    +0.046 A 
ATOM     16 CL   UNL     1      -2.534  -2.690  -3.200  0.00  0.00    -0.083 Cl
ENDBRANCH   7  10
BRANCH   1  17
ATOM     17  C   UNL     1      -1.563  -0.017  -1.904  0.00  0.00    +0.339 C 
ATOM     18  O   UNL     1      -2.740   0.187  -1.676  0.00  0.00    -0.245 OA
BRANCH  17  19
ATOM     19  O   UNL     1      -1.023   0.384  -3.073  0.00  0.00    -0.462 OA
BRANCH  19  21
ATOM     20  C   UNL     1      -1.107   1.419  -5.256  0.00  0.00    +0.048 C 
ATOM     21  C   UNL     1      -1.892   1.041  -3.998  0.00  0.00    +0.229 C 
ENDBRANCH  19  21
ENDBRANCH  17  19
ENDBRANCH   1  17
BRANCH   2  22
ATOM     22  C   UNL     1       0.094   1.525  -0.213  0.00  0.00    -0.026 C 
BRANCH  22  28
ATOM     23  C   UNL     1      -1.822   1.780   1.239  0.00  0.00    -0.068 C 
ATOM     24  C   UNL     1      -2.198   1.993   2.710  0.00  0.00    +0.050 C 
ATOM     25  S   UNL     1      -1.951   3.750   3.115  0.00  0.00    -0.164 S 
ATOM     26  C   UNL     1      -0.264   4.068   2.512  0.00  0.00    +0.050 C 
ATOM     27  C   UNL     1      -0.164   3.559   1.069  0.00  0.00    -0.068 C 
ATOM     28  N   UNL     1      -0.387   2.094   1.058  0.00  0.00    +0.384 N 
ATOM     29  H   UNL     1       0.142   1.674   1.831  0.00  0.00    -0.081 HD
ENDBRANCH  22  28
ENDBRANCH   2  22
TORSDOF 6
