REMARK  Name = ZINC54200798
REMARK  6 active torsions:
REMARK  status: ('A' for Active; 'I' for Inactive)
REMARK    1  A    between atoms: C_1  and  C_2
REMARK    2  A    between atoms: C_7  and  C_33
REMARK    3  A    between atoms: N_12  and  C_13
REMARK    4  A    between atoms: C_13  and  C_14
REMARK    5  A    between atoms: C_14  and  C_16
REMARK    6  A    between atoms: C_14  and  N_22
REMARK                            x       y       z     vdW  Elec       q    Type
REMARK                         _______ _______ _______ _____ _____    ______ ____
ROOT
ATOM      1  C   UNL     1       0.271  -2.572   5.294  0.00  0.00    +0.132 C 
ENDROOT
BRANCH   1   2
ATOM      2  N   UNL     1       1.530  -3.221   4.918  0.00  0.00    -0.225 N 
ATOM      3  C   UNL     1       1.618  -4.329   4.161  0.00  0.00    +0.254 C 
ATOM      4  O   UNL     1       0.682  -4.942   3.689  0.00  0.00    -0.270 OA
ATOM      5  C   UNL     1       3.046  -4.676   4.000  0.00  0.00    +0.049 A 
ATOM      6  C   UNL     1       3.728  -5.688   3.342  0.00  0.00    +0.014 A 
ATOM      7  C   UNL     1       5.112  -5.727   3.391  0.00  0.00    +0.001 A 
ATOM      8  C   UNL     1       5.817  -4.765   4.090  0.00  0.00    +0.001 A 
ATOM      9  C   UNL     1       5.149  -3.748   4.753  0.00  0.00    +0.014 A 
ATOM     10  C   UNL     1       3.764  -3.696   4.714  0.00  0.00    +0.049 A 
ATOM     11  C   UNL     1       2.749  -2.783   5.280  0.00  0.00    +0.254 C 
ATOM     12  O   UNL     1       2.978  -1.802   5.959  0.00  0.00    -0.270 OA
ENDBRANCH   1   2
BRANCH   1  13
ATOM     13  C   UNL     1      -0.523  -3.494   6.183  0.00  0.00    -0.025 A 
ATOM     14  C   UNL     1       0.130  -4.387   7.013  0.00  0.00    +0.005 A 
ATOM     15  C   UNL     1      -0.598  -5.233   7.828  0.00  0.00    +0.000 A 
ATOM     16  C   UNL     1      -1.980  -5.186   7.815  0.00  0.00    +0.000 A 
ATOM     17  C   UNL     1      -2.633  -4.293   6.986  0.00  0.00    +0.000 A 
ATOM     18  C   UNL     1      -1.905  -3.444   6.173  0.00  0.00    +0.005 A 
ENDBRANCH   1  13
BRANCH   1  19
ATOM     19  C   UNL     1      -0.537  -2.258   4.034  0.00  0.00    +0.133 C 
BRANCH  19  29
ATOM     20  C   UNL     1       2.788  -1.052   0.262  0.00  0.00    +0.028 C 
ATOM     21  C   UNL     1       1.992  -0.254   1.297  0.00  0.00    +0.075 C 
ATOM     22  C   UNL     1       2.348   1.232   1.184  0.00  0.00    +0.022 C 
ATOM     23  C   UNL     1       1.886   1.762  -0.175  0.00  0.00    +0.004 C 
ATOM     24  C   UNL     1       0.367   1.619  -0.290  0.00  0.00    +0.022 C 
ATOM     25  C   UNL     1      -0.012   0.138  -0.195  0.00  0.00    +0.075 C 
ATOM     26  N   UNL     1       0.554  -0.419   1.045  0.00  0.00    -0.280 N 
ATOM     27  C   UNL     1      -0.229  -1.063   1.933  0.00  0.00    +0.303 C 
ATOM     28  O   UNL     1      -1.394  -1.287   1.666  0.00  0.00    -0.253 OA
ATOM     29  N   UNL     1       0.279  -1.460   3.116  0.00  0.00    -0.297 N 
ATOM     30  C   UNL     1      -1.535  -0.002  -0.173  0.00  0.00    +0.028 C 
ATOM     31  H   UNL     1       1.186  -1.217   3.361  0.00  0.00    +0.150 HD
ENDBRANCH  19  29
ENDBRANCH   1  19
TORSDOF 4
