REMARK  Name = ZINC15068421
REMARK  7 active torsions:
REMARK  status: ('A' for Active; 'I' for Inactive)
REMARK    1  A    between atoms: C_1  and  C_2
REMARK    2  A    between atoms: C_2  and  C_3
REMARK    3  A    between atoms: C_2  and  C_4
REMARK    4  A    between atoms: C_18  and  C_19
REMARK    5  A    between atoms: C_18  and  N_55
REMARK    6  A    between atoms: C_21  and  C_24
REMARK    7  A    between atoms: C_24  and  C_25
REMARK                            x       y       z     vdW  Elec       q    Type
REMARK                         _______ _______ _______ _____ _____    ______ ____
ROOT
ATOM      1  C   UNL     1      -0.853   4.591   6.230  0.00  0.00    -0.017 C 
ATOM      2  C   UNL     1      -0.109   5.905   6.288  0.00  0.00    +0.007 A 
ATOM      3  C   UNL     1       0.768   6.298   5.337  0.00  0.00    -0.022 A 
ATOM      4  C   UNL     1       1.273   7.594   5.730  0.00  0.00    +0.003 A 
ATOM      5  C   UNL     1       2.190   8.474   5.147  0.00  0.00    +0.010 A 
ATOM      6  C   UNL     1       2.438   9.646   5.816  0.00  0.00    +0.001 A 
ATOM      7  C   UNL     1       1.815   9.956   7.014  0.00  0.00    +0.002 A 
ATOM      8  C   UNL     1       0.903   9.105   7.614  0.00  0.00    +0.026 A 
ATOM      9  C   UNL     1       0.632   7.906   6.957  0.00  0.00    +0.047 A 
ATOM     10  N   UNL     1      -0.195   6.863   7.262  0.00  0.00    -0.359 N 
ATOM     11  H   UNL     1      -0.759   6.809   8.049  0.00  0.00    +0.166 HD
ATOM     12  C   UNL     1       1.100   5.472   4.120  0.00  0.00    +0.019 C 
ATOM     13  C   UNL     1       0.613   4.038   4.373  0.00  0.00    -0.072 C 
ATOM     14  N   UNL     1      -0.791   4.090   4.837  0.00  0.00    +0.391 N 
ATOM     15  H   UNL     1      -1.318   4.728   4.230  0.00  0.00    -0.080 HD
ENDROOT
BRANCH   1  17
ATOM     16  C   UNL     1      -2.406   5.200   8.090  0.00  0.00    +0.006 C 
ATOM     17  C   UNL     1      -2.318   4.813   6.613  0.00  0.00    -0.025 C 
ATOM     18  C   UNL     1      -2.905   5.935   5.755  0.00  0.00    +0.006 C 
ENDBRANCH   1  17
BRANCH  14  19
ATOM     19  C   UNL     1      -1.397   2.744   4.759  0.00  0.00    +0.023 C 
BRANCH  19  20
ATOM     20  C   UNL     1      -1.519   2.351   3.309  0.00  0.00    +0.211 A 
ATOM     21  N   UNL     1      -0.630   1.698   2.600  0.00  0.00    -0.197 NA
ATOM     22  C   UNL     1      -1.166   1.575   1.372  0.00  0.00    +0.176 A 
ATOM     23  N   UNL     1      -2.329   2.154   1.396  0.00  0.00    -0.061 NA
ATOM     24  O   UNL     1      -2.553   2.601   2.501  0.00  0.00    -0.340 OA
BRANCH  22  25
ATOM     25  C   UNL     1      -0.531   0.896   0.186  0.00  0.00    +0.115 C 
BRANCH  25  26
ATOM     26  C   UNL     1      -0.917  -0.560   0.174  0.00  0.00    -0.037 A 
ATOM     27  C   UNL     1      -2.057  -0.968  -0.494  0.00  0.00    +0.004 A 
ATOM     28  C   UNL     1      -2.412  -2.304  -0.506  0.00  0.00    +0.003 A 
ATOM     29  C   UNL     1      -1.628  -3.234   0.152  0.00  0.00    +0.038 A 
ATOM     30  C   UNL     1      -0.487  -2.827   0.822  0.00  0.00    +0.124 A 
ATOM     31  C   UNL     1      -0.130  -1.489   0.828  0.00  0.00    +0.042 A 
ATOM     32  F   UNL     1       0.280  -3.734   1.464  0.00  0.00    -0.205 F 
ENDBRANCH  25  26
ENDBRANCH  22  25
ENDBRANCH  19  20
ENDBRANCH  14  19
TORSDOF 5
