REMARK  Name = ZINC45865497
REMARK  4 active torsions:
REMARK  status: ('A' for Active; 'I' for Inactive)
REMARK    1  A    between atoms: C_1  and  C_2
REMARK    2  A    between atoms: N_10  and  C_14
REMARK    3  A    between atoms: C_14  and  C_15
REMARK    4  A    between atoms: C_21  and  C_24
REMARK                            x       y       z     vdW  Elec       q    Type
REMARK                         _______ _______ _______ _____ _____    ______ ____
ROOT
ATOM      1  C   UNL     1       5.574  -3.387   1.349  0.00  0.00    +0.234 C 
ATOM      2  O   UNL     1       4.797  -3.353   2.279  0.00  0.00    -0.274 OA
ATOM      3  N   UNL     1       6.900  -3.453   1.582  0.00  0.00    -0.299 N 
ATOM      4  C   UNL     1       7.855  -3.488   0.465  0.00  0.00    +0.108 C 
ATOM      5  C   UNL     1       8.884  -2.371   0.661  0.00  0.00    +0.020 C 
ATOM      6  C   UNL     1       9.527  -2.511   2.043  0.00  0.00    +0.014 C 
ATOM      7  C   UNL     1       8.453  -2.373   3.124  0.00  0.00    +0.075 C 
ATOM      8  C   UNL     1       7.419  -3.485   2.956  0.00  0.00    +0.119 C 
ENDROOT
BRANCH   7   9
ATOM      9  C   UNL     1       9.092  -2.478   4.484  0.00  0.00    +0.142 A 
ATOM     10  N   UNL     1       9.770  -3.498   4.944  0.00  0.00    -0.133 NA
ATOM     11  N   UNL     1      10.177  -3.261   6.141  0.00  0.00    -0.129 NA
ATOM     12  C   UNL     1       9.774  -2.057   6.514  0.00  0.00    +0.161 A 
ATOM     13  N   UNL     1       9.074  -1.527   5.457  0.00  0.00    -0.286 N 
ATOM     14  C   UNL     1       8.533  -0.278   5.543  0.00  0.00    +0.094 A 
ATOM     15  C   UNL     1       8.680   0.456   6.666  0.00  0.00    +0.018 A 
ATOM     16  C   UNL     1       9.394  -0.057   7.763  0.00  0.00    +0.005 A 
ATOM     17  C   UNL     1       9.932  -1.305   7.693  0.00  0.00    +0.048 A 
ENDBRANCH   7   9
BRANCH   1  18
ATOM     18  C   UNL     1       5.058  -3.355  -0.066  0.00  0.00    +0.213 C 
BRANCH  18  28
ATOM     19  C   UNL     1      -0.019   1.526   0.010  0.00  0.00    +0.007 C 
ATOM     20  C   UNL     1       0.002  -0.004   0.002  0.00  0.00    -0.014 C 
ATOM     21  C   UNL     1       0.718  -0.497  -1.257  0.00  0.00    +0.006 C 
ATOM     22  C   UNL     1       0.727  -2.028  -1.271  0.00  0.00    +0.035 C 
ATOM     23  C   UNL     1       1.439  -2.546  -0.026  0.00  0.00    +0.113 C 
ATOM     24  C   UNL     1       0.751  -2.042   1.238  0.00  0.00    +0.035 C 
ATOM     25  C   UNL     1       0.742  -0.511   1.242  0.00  0.00    +0.006 C 
ATOM     26  C   UNL     1       2.892  -2.132  -0.038  0.00  0.00    +0.247 C 
ATOM     27  O   UNL     1       3.334  -1.003  -0.036  0.00  0.00    -0.273 OA
ATOM     28  N   UNL     1       3.595  -3.284  -0.051  0.00  0.00    -0.215 N 
ATOM     29  C   UNL     1       2.789  -4.353  -0.049  0.00  0.00    +0.310 C 
ATOM     30  O   UNL     1       3.189  -5.500  -0.059  0.00  0.00    -0.252 OA
ATOM     31  N   UNL     1       1.486  -4.014  -0.034  0.00  0.00    -0.285 N 
ATOM     32  H   UNL     1       0.728  -4.620  -0.030  0.00  0.00    +0.151 HD
ENDBRANCH  18  28
ENDBRANCH   1  18
TORSDOF 3
