REMARK  Name = ZINC01051239
REMARK  6 active torsions:
REMARK  status: ('A' for Active; 'I' for Inactive)
REMARK    1  A    between atoms: C_4  and  C_7
REMARK    2  A    between atoms: N_9  and  N_10
REMARK    3  A    between atoms: N_10  and  C_11
REMARK    4  A    between atoms: N_16  and  C_19
REMARK    5  A    between atoms: C_22  and  O_25
REMARK    6  A    between atoms: O_25  and  C_26
REMARK                            x       y       z     vdW  Elec       q    Type
REMARK                         _______ _______ _______ _____ _____    ______ ____
ROOT
ATOM      1  C   UNL     1       4.698  -4.137  -0.065  0.00  0.00    +0.168 C 
ATOM      2  C   UNL     1       3.860  -4.547   1.163  0.00  0.00    +0.126 C 
ATOM      3  C   UNL     1       2.616  -5.157   0.556  0.00  0.00    +0.228 C 
ATOM      4  O   UNL     1       1.682  -5.615   1.180  0.00  0.00    -0.275 OA
ATOM      5  N   UNL     1       2.709  -5.112  -0.779  0.00  0.00    -0.209 N 
ATOM      6  C   UNL     1       3.842  -4.559  -1.240  0.00  0.00    +0.245 C 
ATOM      7  O   UNL     1       4.133  -4.418  -2.408  0.00  0.00    -0.273 OA
ENDROOT
BRANCH   5   8
ATOM      8  C   UNL     1       1.705  -5.604  -1.627  0.00  0.00    +0.044 A 
ATOM      9  C   UNL     1       1.801  -5.414  -2.999  0.00  0.00    +0.027 A 
ATOM     10  C   UNL     1       0.814  -5.899  -3.834  0.00  0.00    +0.048 A 
ATOM     11  C   UNL     1      -0.275  -6.575  -3.301  0.00  0.00    +0.129 A 
ATOM     12  C   UNL     1      -0.371  -6.764  -1.930  0.00  0.00    +0.048 A 
ATOM     13  C   UNL     1       0.619  -6.286  -1.095  0.00  0.00    +0.027 A 
BRANCH  11  14
ATOM     14  O   UNL     1      -1.247  -7.051  -4.123  0.00  0.00    -0.456 OA
BRANCH  14  15
ATOM     15  C   UNL     1      -1.060  -6.938  -5.464  0.00  0.00    +0.128 A 
ATOM     16  C   UNL     1      -0.178  -7.788  -6.117  0.00  0.00    +0.046 A 
ATOM     17  C   UNL     1       0.009  -7.672  -7.480  0.00  0.00    +0.004 A 
ATOM     18  C   UNL     1      -0.681  -6.710  -8.195  0.00  0.00    +0.000 A 
ATOM     19  C   UNL     1      -1.560  -5.862  -7.547  0.00  0.00    +0.004 A 
ATOM     20  C   UNL     1      -1.756  -5.978  -6.185  0.00  0.00    +0.046 A 
ENDBRANCH  14  15
ENDBRANCH  11  14
ENDBRANCH   5   8
BRANCH   1  21
ATOM     21  N   UNL     1       4.916  -2.684  -0.080  0.00  0.00    -0.228 NA
ATOM     22  H   UNL     1       5.488  -2.412  -0.866  0.00  0.00    +0.145 HD
BRANCH  21  25
ATOM     23  C   UNL     1       3.717  -0.663  -0.097  0.00  0.00    +0.258 C 
ATOM     24  O   UNL     1       4.764  -0.047  -0.106  0.00  0.00    -0.269 OA
ATOM     25  N   UNL     1       3.727  -2.010  -0.084  0.00  0.00    -0.246 N 
ATOM     26  H   UNL     1       2.891  -2.502  -0.077  0.00  0.00    +0.169 HD
BRANCH  23  30
ATOM     27  C   UNL     1       0.021   1.431  -0.110  0.00  0.00    +0.000 A 
ATOM     28  C   UNL     1       1.212   2.136  -0.119  0.00  0.00    +0.001 A 
ATOM     29  C   UNL     1       2.416   1.462  -0.115  0.00  0.00    +0.013 A 
ATOM     30  C   UNL     1       2.430   0.066  -0.102  0.00  0.00    +0.038 A 
ATOM     31  C   UNL     1       1.225  -0.638  -0.092  0.00  0.00    +0.013 A 
ATOM     32  C   UNL     1       0.029   0.048  -0.096  0.00  0.00    +0.001 A 
ENDBRANCH  23  30
ENDBRANCH  21  25
ENDBRANCH   1  21
TORSDOF 6
