REMARK  Name = ZINC01884432
REMARK  4 active torsions:
REMARK  status: ('A' for Active; 'I' for Inactive)
REMARK    1  A    between atoms: C_1  and  O_2
REMARK    2  A    between atoms: O_2  and  C_3
REMARK    3  A    between atoms: C_3  and  C_5
REMARK    4  A    between atoms: N_11  and  C_20
REMARK                            x       y       z     vdW  Elec       q    Type
REMARK                         _______ _______ _______ _____ _____    ______ ____
ROOT
ATOM      1  C   UNL     1       0.657  -2.104  -1.120  0.00  0.00    +0.114 C 
ATOM      2  C   UNL     1       1.300  -2.534  -2.428  0.00  0.00    +0.105 C 
ATOM      3  C   UNL     1       1.180  -1.570  -3.576  0.00  0.00    +0.231 C 
ATOM      4  O   UNL     1       0.221  -0.877  -3.841  0.00  0.00    -0.274 OA
ATOM      5  N   UNL     1       2.351  -1.625  -4.256  0.00  0.00    -0.210 N 
ATOM      6  C   UNL     1       3.332  -2.293  -3.597  0.00  0.00    +0.233 C 
ATOM      7  O   UNL     1       4.399  -2.647  -4.050  0.00  0.00    -0.274 OA
ATOM      8  C   UNL     1       2.838  -2.521  -2.198  0.00  0.00    +0.060 C 
ATOM      9  C   UNL     1       3.184  -1.330  -1.296  0.00  0.00    +0.017 C 
ATOM     10  C   UNL     1       2.759  -1.703   0.134  0.00  0.00    +0.005 C 
ATOM     11  C   UNL     1       1.554  -2.658   0.013  0.00  0.00    +0.004 C 
ATOM     12  C   UNL     1       2.098  -4.032  -0.423  0.00  0.00    +0.005 C 
ATOM     13  C   UNL     1       3.193  -3.816  -1.495  0.00  0.00    +0.017 C 
ENDROOT
BRANCH   5  14
ATOM     14  C   UNL     1       2.533  -1.047  -5.521  0.00  0.00    +0.044 A 
ATOM     15  C   UNL     1       3.760  -1.148  -6.162  0.00  0.00    +0.024 A 
ATOM     16  C   UNL     1       3.935  -0.578  -7.408  0.00  0.00    +0.002 A 
ATOM     17  C   UNL     1       2.890   0.093  -8.016  0.00  0.00    +0.000 A 
ATOM     18  C   UNL     1       1.667   0.196  -7.380  0.00  0.00    +0.002 A 
ATOM     19  C   UNL     1       1.484  -0.378  -6.136  0.00  0.00    +0.024 A 
ENDBRANCH   5  14
BRANCH   1  20
ATOM     20  C   UNL     1       0.598  -0.600  -1.043  0.00  0.00    +0.311 C 
ATOM     21  O   UNL     1       0.921   0.067  -1.997  0.00  0.00    -0.251 OA
BRANCH  20  23
ATOM     22  C   UNL     1       0.156   1.428   0.089  0.00  0.00    +0.280 C 
ATOM     23  O   UNL     1       0.188  -0.001   0.086  0.00  0.00    -0.468 OA
ENDBRANCH  20  23
ENDBRANCH   1  20
TORSDOF 3
