REMARK  Name = ZINC12035126
REMARK  6 active torsions:
REMARK  status: ('A' for Active; 'I' for Inactive)
REMARK    1  A    between atoms: C_1  and  N_2
REMARK    2  A    between atoms: C_3  and  C_5
REMARK    3  A    between atoms: N_7  and  C_28
REMARK    4  A    between atoms: C_9  and  C_12
REMARK    5  A    between atoms: N_14  and  C_15
REMARK    6  A    between atoms: C_15  and  C_16
REMARK                            x       y       z     vdW  Elec       q    Type
REMARK                         _______ _______ _______ _____ _____    ______ ____
ROOT
ATOM      1  C   UNL     1      -2.662   7.908  -6.744  0.00  0.00    +0.100 A 
ATOM      2  C   UNL     1      -2.616   6.763  -7.508  0.00  0.00    +0.102 A 
ATOM      3  N   UNL     1      -2.188   5.597  -6.998  0.00  0.00    -0.349 N 
ATOM      4  C   UNL     1      -1.778   5.454  -5.727  0.00  0.00    +0.102 A 
ATOM      5  C   UNL     1      -1.771   6.517  -4.850  0.00  0.00    +0.100 A 
ATOM      6  C   UNL     1      -2.233   7.827  -5.338  0.00  0.00    +0.206 A 
ATOM      7  O   UNL     1      -2.255   8.805  -4.609  0.00  0.00    -0.286 OA
ENDROOT
BRANCH   3   8
ATOM      8  C   UNL     1      -2.167   4.421  -7.872  0.00  0.00    +0.087 C 
ATOM      9  C   UNL     1      -1.248   4.689  -9.065  0.00  0.00    +0.025 C 
ATOM     10  C   UNL     1      -1.226   3.461  -9.977  0.00  0.00    +0.002 C 
ATOM     11  C   UNL     1      -2.643   3.174 -10.479  0.00  0.00    +0.000 C 
ATOM     12  C   UNL     1      -3.562   2.906  -9.286  0.00  0.00    +0.002 C 
ATOM     13  C   UNL     1      -3.584   4.134  -8.373  0.00  0.00    +0.025 C 
ENDBRANCH   3   8
BRANCH   1  16
ATOM     14  C   UNL     1      -3.995  10.500  -9.175  0.00  0.00    +0.128 C 
ATOM     15  N   UNL     1      -3.526   9.235  -8.605  0.00  0.00    -0.314 N 
ATOM     16  C   UNL     1      -3.133   9.181  -7.317  0.00  0.00    +0.249 C 
ATOM     17  O   UNL     1      -3.168  10.182  -6.628  0.00  0.00    -0.270 OA
ATOM     18  H   UNL     1      -3.499   8.436  -9.155  0.00  0.00    +0.149 HD
ENDBRANCH   1  16
BRANCH   5  19
ATOM     19  C   UNL     1      -1.318   6.345  -3.459  0.00  0.00    +0.249 C 
ATOM     20  O   UNL     1      -1.317   7.294  -2.698  0.00  0.00    -0.270 OA
ATOM     21  N   UNL     1      -0.904   5.137  -3.029  0.00  0.00    -0.311 N 
ATOM     22  H   UNL     1      -0.904   4.380  -3.636  0.00  0.00    +0.149 HD
BRANCH  21  23
ATOM     23  C   UNL     1      -0.453   4.966  -1.646  0.00  0.00    +0.108 C 
BRANCH  23  24
ATOM     24  C   UNL     1      -0.041   3.510  -1.420  0.00  0.00    +0.014 C 
ATOM     25  C   UNL     1      -1.285   2.586  -1.413  0.00  0.00    +0.013 C 
ATOM     26  C   UNL     1      -1.273   1.960   0.018  0.00  0.00    +0.018 C 
ATOM     27  C   UNL     1      -0.013   1.076   0.008  0.00  0.00    -0.027 C 
ATOM     28  C   UNL     1       1.048   1.864   0.002  0.00  0.00    -0.026 C 
ATOM     29  C   UNL     1       0.565   3.325   0.014  0.00  0.00    +0.023 C 
ATOM     30  C   UNL     1      -0.732   3.158   0.841  0.00  0.00    -0.016 C 
ATOM     31  C   UNL     1      -1.562   4.278   1.386  0.00  0.00    +0.008 C 
ATOM     32  C   UNL     1      -0.834   3.305   2.328  0.00  0.00    +0.008 C 
ENDBRANCH  23  24
ENDBRANCH  21  23
ENDBRANCH   5  19
TORSDOF 5
