REMARK  Name = ZINC09603141
REMARK  7 active torsions:
REMARK  status: ('A' for Active; 'I' for Inactive)
REMARK    1  A    between atoms: C_4  and  S_7
REMARK    2  A    between atoms: S_7  and  C_8
REMARK    3  A    between atoms: C_13  and  N_14
REMARK    4  A    between atoms: C_15  and  C_17
REMARK    5  A    between atoms: C_17  and  O_18
REMARK    6  A    between atoms: O_18  and  C_19
REMARK    7  A    between atoms: C_19  and  C_21
REMARK                            x       y       z     vdW  Elec       q    Type
REMARK                         _______ _______ _______ _____ _____    ______ ____
ROOT
ATOM      1  N   UNL     1       4.795   1.554  -0.141  0.00  0.00    -0.282 N 
ATOM      2  C   UNL     1       3.655   1.939  -0.748  0.00  0.00    +0.255 C 
ATOM      3  O   UNL     1       3.585   3.032  -1.270  0.00  0.00    -0.272 OA
ATOM      4  H   UNL     1       4.833   0.704   0.325  0.00  0.00    +0.155 HD
ENDROOT
BRANCH   1  10
ATOM      5  C   UNL     1       7.201   1.819  -0.236  0.00  0.00    +0.034 A 
ATOM      6  C   UNL     1       8.317   2.644  -0.283  0.00  0.00    +0.017 A 
ATOM      7  C   UNL     1       8.161   4.017  -0.267  0.00  0.00    +0.001 A 
ATOM      8  C   UNL     1       6.896   4.573  -0.209  0.00  0.00    +0.002 A 
ATOM      9  C   UNL     1       5.780   3.759  -0.168  0.00  0.00    +0.024 A 
ATOM     10  C   UNL     1       5.925   2.381  -0.184  0.00  0.00    +0.047 A 
BRANCH   5  11
ATOM     11  S   UNL     1       7.396   0.068  -0.250  0.00  0.00    -0.088 S 
BRANCH  11  15
ATOM     12  C   UNL     1       6.379  -1.116  -4.502  0.00  0.00    +0.000 A 
ATOM     13  C   UNL     1       6.834  -2.070  -3.610  0.00  0.00    +0.001 A 
ATOM     14  C   UNL     1       7.145  -1.713  -2.313  0.00  0.00    +0.015 A 
ATOM     15  C   UNL     1       7.000  -0.393  -1.904  0.00  0.00    +0.013 A 
ATOM     16  C   UNL     1       6.538   0.563  -2.801  0.00  0.00    +0.015 A 
ATOM     17  C   UNL     1       6.234   0.199  -4.098  0.00  0.00    +0.001 A 
ENDBRANCH  11  15
ENDBRANCH   5  11
ENDBRANCH   1  10
BRANCH   2  18
ATOM     18  C   UNL     1       2.467   1.013  -0.779  0.00  0.00    +0.328 C 
BRANCH  18  19
ATOM     19  O   UNL     1       1.372   1.653  -1.485  0.00  0.00    -0.452 OA
BRANCH  19  20
ATOM     20  C   UNL     1       0.227   0.953  -1.602  0.00  0.00    +0.340 C 
ATOM     21  O   UNL     1       0.146  -0.162  -1.127  0.00  0.00    -0.245 OA
BRANCH  20  22
ATOM     22  C   UNL     1      -0.930   1.540  -2.314  0.00  0.00    +0.065 A 
ATOM     23  C   UNL     1      -0.860   2.824  -2.863  0.00  0.00    +0.055 A 
ATOM     24  C   UNL     1      -1.963   3.332  -3.524  0.00  0.00    +0.132 A 
ATOM     25  N   UNL     1      -3.072   2.627  -3.632  0.00  0.00    -0.224 NA
ATOM     26  C   UNL     1      -3.182   1.414  -3.124  0.00  0.00    +0.132 A 
ATOM     27  C   UNL     1      -2.126   0.828  -2.452  0.00  0.00    +0.055 A 
ATOM     28 CL   UNL     1      -4.673   0.542  -3.303  0.00  0.00    -0.062 Cl
ATOM     29 CL   UNL     1      -1.889   4.923  -4.216  0.00  0.00    -0.062 Cl
ENDBRANCH  20  22
ENDBRANCH  19  20
ENDBRANCH  18  19
ENDBRANCH   2  18
TORSDOF 7
