REMARK  Name = ZINC43253227
REMARK  9 active torsions:
REMARK  status: ('A' for Active; 'I' for Inactive)
REMARK    1  A    between atoms: C_1  and  C_2
REMARK    2  A    between atoms: C_2  and  C_3
REMARK    3  A    between atoms: C_3  and  C_4
REMARK    4  A    between atoms: C_3  and  N_6
REMARK    5  A    between atoms: C_4  and  C_5
REMARK    6  A    between atoms: C_7  and  C_9
REMARK    7  A    between atoms: C_9  and  N_10
REMARK    8  A    between atoms: C_11  and  C_24
REMARK    9  A    between atoms: N_20  and  C_23
REMARK                            x       y       z     vdW  Elec       q    Type
REMARK                         _______ _______ _______ _____ _____    ______ ____
ROOT
ATOM      1  N   UNL     1       4.063   3.030   1.836  0.00  0.00    -0.170 NA
ATOM      2  C   UNL     1       5.514   3.384   1.925  0.00  0.00    +0.130 C 
ATOM      3  C   UNL     1       5.803   3.336   3.418  0.00  0.00    +0.139 C 
ATOM      4  C   UNL     1       4.382   3.784   3.933  0.00  0.00    +0.241 C 
ATOM      5  O   UNL     1       3.538   2.960   3.235  0.00  0.00    -0.282 OA
ATOM      6  C   UNL     1       4.684   4.167   5.300  0.00  0.00    +0.253 C 
ATOM      7  O   UNL     1       3.968   4.053   6.271  0.00  0.00    -0.272 OA
ATOM      8  N   UNL     1       5.953   4.683   5.259  0.00  0.00    -0.243 N 
ATOM      9  C   UNL     1       6.609   4.407   4.081  0.00  0.00    +0.230 C 
ATOM     10  O   UNL     1       7.623   4.923   3.661  0.00  0.00    -0.275 OA
ATOM     11  C   UNL     1       6.556   5.441   6.359  0.00  0.00    +0.141 C 
ENDROOT
BRANCH   2  12
ATOM     12  C   UNL     1       6.353   2.373   1.186  0.00  0.00    -0.027 A 
ATOM     13  C   UNL     1       6.422   1.069   1.640  0.00  0.00    +0.007 A 
ATOM     14  C   UNL     1       7.191   0.141   0.963  0.00  0.00    +0.020 A 
ATOM     15  C   UNL     1       7.892   0.518  -0.169  0.00  0.00    +0.041 A 
ATOM     16  C   UNL     1       7.823   1.823  -0.622  0.00  0.00    +0.020 A 
ATOM     17  C   UNL     1       7.049   2.749   0.052  0.00  0.00    +0.007 A 
ATOM     18 CL   UNL     1       8.858  -0.647  -1.019  0.00  0.00    -0.084 Cl
ENDBRANCH   2  12
BRANCH   1  19
ATOM     19  C   UNL     1       3.875   1.751   1.138  0.00  0.00    +0.211 C 
BRANCH  19  21
ATOM     20  N   UNL     1       2.006   0.466   0.151  0.00  0.00    -0.311 N 
ATOM     21  C   UNL     1       2.417   1.574   0.798  0.00  0.00    +0.230 C 
ATOM     22  O   UNL     1       1.614   2.429   1.107  0.00  0.00    -0.274 OA
ATOM     23  H   UNL     1       2.648  -0.218  -0.096  0.00  0.00    +0.149 HD
BRANCH  20  24
ATOM     24  C   UNL     1       0.589   0.293  -0.179  0.00  0.00    +0.072 C 
BRANCH  24  26
ATOM     25  C   UNL     1       0.479   2.508  -1.329  0.00  0.00    +0.006 C 
ATOM     26  C   UNL     1       0.284   1.001  -1.501  0.00  0.00    +0.019 C 
ENDBRANCH  24  26
BRANCH  24  27
ATOM     27  C   UNL     1       0.274  -1.198  -0.313  0.00  0.00    +0.019 C 
ATOM     28  C   UNL     1       0.460  -1.883   1.042  0.00  0.00    +0.006 C 
ENDBRANCH  24  27
ENDBRANCH  20  24
ENDBRANCH  19  21
ENDBRANCH   1  19
TORSDOF 6
