REMARK  Name = ZINC49408891
REMARK  6 active torsions:
REMARK  status: ('A' for Active; 'I' for Inactive)
REMARK    1  A    between atoms: C_4  and  N_9
REMARK    2  A    between atoms: C_5  and  C_7
REMARK    3  A    between atoms: C_10  and  C_12
REMARK    4  A    between atoms: C_12  and  N_13
REMARK    5  A    between atoms: C_17  and  S_20
REMARK    6  A    between atoms: S_20  and  N_23
REMARK                            x       y       z     vdW  Elec       q    Type
REMARK                         _______ _______ _______ _____ _____    ______ ____
ROOT
ATOM      1  N   UNL     1       7.195   0.328  -0.381  0.00  0.00    -0.305 N 
ATOM      2  C   UNL     1       7.575   0.784  -1.602  0.00  0.00    +0.090 A 
ATOM      3  C   UNL     1       8.577   1.686  -1.722  0.00  0.00    +0.020 A 
ATOM      4  C   UNL     1       9.234   2.159  -0.577  0.00  0.00    +0.035 A 
ATOM      5  C   UNL     1       8.850   1.700   0.649  0.00  0.00    +0.170 A 
ATOM      6  C   UNL     1       7.803   0.768   0.738  0.00  0.00    +0.278 A 
ATOM      7  O   UNL     1       7.447   0.352   1.829  0.00  0.00    -0.266 OA
ENDROOT
BRANCH   5   8
ATOM      8  S   UNL     1       9.656   2.275   2.107  0.00  0.00    +0.066 S 
ATOM      9  O   UNL     1      10.502   3.345   1.708  0.00  0.00    -0.153 OA
ATOM     10  O   UNL     1       8.647   2.429   3.095  0.00  0.00    -0.153 OA
BRANCH   8  11
ATOM     11  N   UNL     1      10.649   1.058   2.630  0.00  0.00    -0.176 NA
ATOM     12  C   UNL     1      10.272  -0.016   3.561  0.00  0.00    +0.109 C 
ATOM     13  C   UNL     1      11.520  -0.897   3.775  0.00  0.00    +0.018 C 
ATOM     14  C   UNL     1      12.686   0.054   3.396  0.00  0.00    +0.018 C 
ATOM     15  C   UNL     1      12.057   0.867   2.234  0.00  0.00    +0.109 C 
ENDBRANCH   8  11
ENDBRANCH   5   8
BRANCH   1  16
ATOM     16  C   UNL     1       6.107  -0.648  -0.278  0.00  0.00    +0.220 C 
BRANCH  16  18
ATOM     17  N   UNL     1       3.646  -0.623  -0.037  0.00  0.00    -0.283 N 
ATOM     18  C   UNL     1       4.792   0.077  -0.147  0.00  0.00    +0.237 C 
ATOM     19  O   UNL     1       4.766   1.289  -0.140  0.00  0.00    -0.274 OA
ATOM     20  H   UNL     1       3.672  -1.589   0.037  0.00  0.00    +0.155 HD
BRANCH  17  24
ATOM     21  C   UNL     1      -0.019   1.371  -0.024  0.00  0.00    +0.001 A 
ATOM     22  C   UNL     1       1.088   1.947  -0.626  0.00  0.00    +0.002 A 
ATOM     23  C   UNL     1       2.302   1.289  -0.632  0.00  0.00    +0.024 A 
ATOM     24  C   UNL     1       2.421   0.043  -0.032  0.00  0.00    +0.051 A 
ATOM     25  C   UNL     1       1.302  -0.543   0.578  0.00  0.00    +0.073 A 
ATOM     26  C   UNL     1       0.081   0.134   0.576  0.00  0.00    +0.021 A 
BRANCH  25  27
ATOM     27  C   UNL     1       1.412  -1.829   1.199  0.00  0.00    +0.101 C 
ATOM     28  N   UNL     1       1.499  -2.849   1.692  0.00  0.00    -0.191 NA
ENDBRANCH  25  27
ENDBRANCH  17  24
ENDBRANCH  16  18
ENDBRANCH   1  16
TORSDOF 6
