REMARK  Name = ZINC33127649
REMARK  5 active torsions:
REMARK  status: ('A' for Active; 'I' for Inactive)
REMARK    1  A    between atoms: C_1  and  C_2
REMARK    2  A    between atoms: C_5  and  N_9
REMARK    3  A    between atoms: N_12  and  C_13
REMARK    4  A    between atoms: C_13  and  C_15
REMARK    5  A    between atoms: C_13  and  C_16
REMARK                            x       y       z     vdW  Elec       q    Type
REMARK                         _______ _______ _______ _____ _____    ______ ____
ROOT
ATOM      1  N   UNL     1      -1.457   7.836  -0.125  0.00  0.00    -0.268 N 
ATOM      2  C   UNL     1      -0.811   6.675  -0.352  0.00  0.00    +0.304 C 
ATOM      3  O   UNL     1       0.254   6.677  -0.938  0.00  0.00    -0.252 OA
ATOM      4  N   UNL     1      -1.347   5.513   0.070  0.00  0.00    -0.288 N 
ATOM      5  H   UNL     1      -2.448   7.830   0.351  0.00  0.00    +0.156 HD
ATOM      6  H   UNL     1      -2.311   5.512   0.600  0.00  0.00    +0.151 HD
ENDROOT
BRANCH   1  11
ATOM      7  C   UNL     1       0.940  12.755  -1.629  0.00  0.00    +0.044 C 
ATOM      8  C   UNL     1       0.303  11.449  -1.230  0.00  0.00    -0.049 A 
ATOM      9  C   UNL     1       0.611  10.292  -1.920  0.00  0.00    +0.005 A 
ATOM     10  C   UNL     1       0.030   9.093  -1.556  0.00  0.00    +0.025 A 
ATOM     11  C   UNL     1      -0.866   9.050  -0.496  0.00  0.00    +0.053 A 
ATOM     12  C   UNL     1      -1.178  10.216   0.192  0.00  0.00    +0.062 A 
ATOM     13  C   UNL     1      -0.589  11.412  -0.173  0.00  0.00    +0.025 A 
ATOM     14 CL   UNL     1      -2.303  10.170   1.514  0.00  0.00    -0.082 Cl
ENDBRANCH   1  11
BRANCH   4  15
ATOM     15  C   UNL     1      -0.645   4.251  -0.177  0.00  0.00    +0.158 C 
ATOM     16  C   UNL     1       0.381   4.012   0.933  0.00  0.00    +0.038 C 
BRANCH  15  17
ATOM     17  C   UNL     1      -1.639   3.118  -0.194  0.00  0.00    +0.240 C 
ATOM     18  O   UNL     1      -2.750   3.280   0.264  0.00  0.00    -0.273 OA
ATOM     19  N   UNL     1      -1.293   1.926  -0.719  0.00  0.00    -0.269 N 
ATOM     20  C   UNL     1      -0.016   1.636  -1.377  0.00  0.00    +0.118 C 
ATOM     21  C   UNL     1      -0.104   0.160  -1.796  0.00  0.00    +0.056 C 
ATOM     22  C   UNL     1      -1.468  -0.290  -1.321  0.00  0.00    -0.024 A 
ATOM     23  C   UNL     1      -2.096   0.781  -0.706  0.00  0.00    +0.040 A 
ATOM     24  C   UNL     1      -3.378   0.606  -0.183  0.00  0.00    +0.024 A 
ATOM     25  C   UNL     1      -4.007  -0.618  -0.280  0.00  0.00    +0.002 A 
ATOM     26  C   UNL     1      -3.372  -1.680  -0.895  0.00  0.00    +0.000 A 
ATOM     27  C   UNL     1      -2.101  -1.514  -1.416  0.00  0.00    +0.005 A 
ENDBRANCH  15  17
ENDBRANCH   4  15
TORSDOF 3
