REMARK  Name = ZINC18144600
REMARK  5 active torsions:
REMARK  status: ('A' for Active; 'I' for Inactive)
REMARK    1  A    between atoms: C_1  and  C_2
REMARK    2  A    between atoms: C_5  and  N_8
REMARK    3  A    between atoms: N_8  and  C_9
REMARK    4  A    between atoms: C_23  and  C_26
REMARK    5  A    between atoms: C_23  and  C_27
REMARK                            x       y       z     vdW  Elec       q    Type
REMARK                         _______ _______ _______ _____ _____    ______ ____
ROOT
ATOM      1  C   UNL     1       0.161  -4.854   1.100  0.00  0.00    +0.084 C 
ATOM      2  C   UNL     1       0.265  -6.215   1.035  0.00  0.00    +0.049 C 
ATOM      3  C   UNL     1       0.377  -6.923  -0.268  0.00  0.00    +0.071 A 
ATOM      4  C   UNL     1       0.151  -8.302  -0.300  0.00  0.00    +0.133 A 
ATOM      5  C   UNL     1       0.251  -8.996  -1.500  0.00  0.00    +0.047 A 
ATOM      6  C   UNL     1       0.568  -8.339  -2.655  0.00  0.00    +0.015 A 
ATOM      7  C   UNL     1       0.794  -6.957  -2.642  0.00  0.00    +0.018 A 
ATOM      8  C   UNL     1       0.700  -6.237  -1.437  0.00  0.00    +0.150 A 
ATOM      9  O   UNL     1       0.918  -4.907  -1.421  0.00  0.00    -0.421 OA
ATOM     10  C   UNL     1       1.227  -4.250  -2.545  0.00  0.00    +0.337 A 
ATOM     11  O   UNL     1       1.417  -3.049  -2.490  0.00  0.00    -0.245 OA
ATOM     12  C   UNL     1       1.341  -4.899  -3.791  0.00  0.00    +0.092 A 
ATOM     13  C   UNL     1       1.132  -6.239  -3.873  0.00  0.00    +0.018 A 
ATOM     14  O   UNL     1      -0.171  -8.952   0.847  0.00  0.00    -0.478 OA
ATOM     15  C   UNL     1       0.429  -8.508   2.063  0.00  0.00    +0.167 C 
ATOM     16  C   UNL     1       0.277  -7.015   2.209  0.00  0.00    +0.208 C 
ATOM     17  O   UNL     1       0.164  -6.507   3.307  0.00  0.00    -0.288 OA
ATOM     18  C   UNL     1      -0.245  -9.207   3.245  0.00  0.00    +0.064 C 
ATOM     19  C   UNL     1       1.918  -8.862   2.051  0.00  0.00    +0.064 C 
ENDROOT
BRANCH   1  20
ATOM     20  N   UNL     1      -0.391  -4.162   0.064  0.00  0.00    -0.320 N 
ATOM     21  H   UNL     1      -0.789  -4.640  -0.681  0.00  0.00    +0.152 HD
BRANCH  20  26
ATOM     22  C   UNL     1      -0.362   1.509   0.104  0.00  0.00    +0.044 C 
ATOM     23  C   UNL     1      -0.370   0.002   0.093  0.00  0.00    -0.050 A 
ATOM     24  C   UNL     1      -0.846  -0.678  -1.013  0.00  0.00    +0.005 A 
ATOM     25  C   UNL     1      -0.854  -2.059  -1.027  0.00  0.00    +0.023 A 
ATOM     26  C   UNL     1      -0.384  -2.765   0.073  0.00  0.00    +0.031 A 
ATOM     27  C   UNL     1       0.093  -2.079   1.184  0.00  0.00    +0.023 A 
ATOM     28  C   UNL     1       0.103  -0.699   1.188  0.00  0.00    +0.005 A 
ENDBRANCH  20  26
ENDBRANCH   1  20
TORSDOF 2
