REMARK  Name = ZINC20291766
REMARK  9 active torsions:
REMARK  status: ('A' for Active; 'I' for Inactive)
REMARK    1  A    between atoms: C_1  and  C_2
REMARK    2  A    between atoms: C_2  and  C_4
REMARK    3  A    between atoms: C_2  and  N_10
REMARK    4  A    between atoms: C_11  and  C_13
REMARK    5  A    between atoms: C_13  and  S_14
REMARK    6  A    between atoms: S_14  and  C_15
REMARK    7  A    between atoms: N_19  and  N_20
REMARK    8  A    between atoms: N_21  and  N_22
REMARK    9  A    between atoms: C_23  and  C_24
REMARK                            x       y       z     vdW  Elec       q    Type
REMARK                         _______ _______ _______ _____ _____    ______ ____
ROOT
ATOM      1  C   UNL     1       0.498  -1.742  -6.333  0.00  0.00    +0.210 A 
ATOM      2  N   UNL     1       1.774  -2.045  -6.298  0.00  0.00    -0.119 NA
ATOM      3  N   UNL     1       2.155  -2.461  -7.580  0.00  0.00    -0.109 NA
ATOM      4  C   UNL     1       1.100  -2.399  -8.356  0.00  0.00    +0.254 A 
ATOM      5  N   UNL     1       0.047  -1.958  -7.604  0.00  0.00    -0.211 N 
ATOM      6  N   UNL     1       1.058  -2.728  -9.704  0.00  0.00    -0.204 N 
ATOM      7  H   UNL     1       0.227  -2.649 -10.197  0.00  0.00    +0.177 HD
ENDROOT
BRANCH   5   8
ATOM      8  N   UNL     1      -1.231  -1.765  -8.046  0.00  0.00    -0.294 N 
ATOM      9  H   UNL     1      -1.356  -0.825  -8.390  0.00  0.00    +0.163 HD
ATOM     10  H   UNL     1      -1.476  -2.444  -8.751  0.00  0.00    +0.163 HD
ENDBRANCH   5   8
BRANCH   6  11
ATOM     11  N   UNL     1       2.217  -3.176 -10.352  0.00  0.00    -0.188 NA
ATOM     12  C   UNL     1       2.178  -3.484 -11.613  0.00  0.00    +0.138 C 
BRANCH  12  13
ATOM     13  C   UNL     1       3.397  -3.955 -12.294  0.00  0.00    -0.005 A 
ATOM     14  C   UNL     1       4.596  -4.076 -11.586  0.00  0.00    +0.009 A 
ATOM     15  C   UNL     1       5.732  -4.517 -12.230  0.00  0.00    +0.001 A 
ATOM     16  C   UNL     1       5.688  -4.839 -13.575  0.00  0.00    +0.000 A 
ATOM     17  C   UNL     1       4.505  -4.722 -14.284  0.00  0.00    +0.001 A 
ATOM     18  C   UNL     1       3.359  -4.288 -13.651  0.00  0.00    +0.009 A 
ENDBRANCH  12  13
ENDBRANCH   6  11
BRANCH   1  19
ATOM     19  S   UNL     1      -0.466  -1.164  -4.976  0.00  0.00    -0.075 S 
BRANCH  19  20
ATOM     20  C   UNL     1       0.712  -1.094  -3.598  0.00  0.00    +0.173 C 
BRANCH  20  22
ATOM     21  N   UNL     1       0.688  -0.476  -1.203  0.00  0.00    -0.308 N 
ATOM     22  C   UNL     1       0.006  -0.608  -2.358  0.00  0.00    +0.224 C 
ATOM     23  O   UNL     1      -1.175  -0.336  -2.400  0.00  0.00    -0.275 OA
ATOM     24  H   UNL     1       1.632  -0.695  -1.170  0.00  0.00    +0.149 HD
BRANCH  21  26
ATOM     25  C   UNL     1      -0.019   1.526   0.010  0.00  0.00    +0.033 C 
ATOM     26  C   UNL     1       0.002  -0.004   0.002  0.00  0.00    +0.100 C 
BRANCH  26  27
ATOM     27  C   UNL     1       0.731  -0.503   1.223  0.00  0.00    -0.027 A 
ATOM     28  C   UNL     1       2.113  -0.514   1.247  0.00  0.00    +0.005 A 
ATOM     29  C   UNL     1       2.782  -0.972   2.366  0.00  0.00    +0.000 A 
ATOM     30  C   UNL     1       2.068  -1.419   3.463  0.00  0.00    +0.000 A 
ATOM     31  C   UNL     1       0.686  -1.407   3.439  0.00  0.00    +0.000 A 
ATOM     32  C   UNL     1       0.017  -0.945   2.321  0.00  0.00    +0.005 A 
ENDBRANCH  26  27
ENDBRANCH  21  26
ENDBRANCH  20  22
ENDBRANCH  19  20
ENDBRANCH   1  19
TORSDOF 8
