REMARK  Name = ZINC21165263
REMARK  7 active torsions:
REMARK  status: ('A' for Active; 'I' for Inactive)
REMARK    1  A    between atoms: C_1  and  C_2
REMARK    2  A    between atoms: C_2  and  C_3
REMARK    3  A    between atoms: C_3  and  C_4
REMARK    4  A    between atoms: N_14  and  C_15
REMARK    5  A    between atoms: N_14  and  C_16
REMARK    6  A    between atoms: C_16  and  C_17
REMARK    7  A    between atoms: N_19  and  C_20
REMARK                            x       y       z     vdW  Elec       q    Type
REMARK                         _______ _______ _______ _____ _____    ______ ____
ROOT
ATOM      1  C   UNL     1      -5.340  -1.748  -3.779  0.00  0.00    +0.049 A 
ATOM      2  C   UNL     1      -5.253  -0.624  -4.572  0.00  0.00    +0.095 A 
ATOM      3  C   UNL     1      -4.306   0.358  -4.278  0.00  0.00    +0.275 A 
ATOM      4  O   UNL     1      -4.224   1.357  -4.976  0.00  0.00    -0.266 OA
ATOM      5  N   UNL     1      -3.472   0.201  -3.208  0.00  0.00    -0.170 N 
ATOM      6  C   UNL     1      -3.626  -0.942  -2.476  0.00  0.00    +0.201 A 
ATOM      7  N   UNL     1      -4.511  -1.869  -2.744  0.00  0.00    -0.226 NA
ATOM      8  S   UNL     1      -2.381  -0.768  -1.217  0.00  0.00    -0.013 S 
ATOM      9  C   UNL     1      -1.742   0.816  -1.736  0.00  0.00    +0.184 A 
ATOM     10  N   UNL     1      -2.480   1.079  -2.781  0.00  0.00    -0.139 NA
ATOM     11  N   UNL     1      -0.723   1.568  -1.179  0.00  0.00    -0.302 N 
ATOM     12  C   UNL     1      -0.350   2.853  -1.776  0.00  0.00    +0.132 C 
ENDROOT
BRANCH   1  13
ATOM     13  C   UNL     1      -6.355  -2.821  -4.078  0.00  0.00    +0.055 C 
BRANCH  13  15
ATOM     14  C   UNL     1      -6.734  -5.008  -5.226  0.00  0.00    +0.004 C 
ATOM     15  C   UNL     1      -5.704  -3.918  -4.923  0.00  0.00    +0.003 C 
ENDBRANCH  13  15
ENDBRANCH   1  13
BRANCH  11  16
ATOM     16  C   UNL     1      -0.016   1.080   0.008  0.00  0.00    +0.202 C 
BRANCH  16  17
ATOM     17  C   UNL     1      -0.717   1.573   1.248  0.00  0.00    +0.235 C 
ATOM     18  O   UNL     1      -1.709   2.265   1.150  0.00  0.00    -0.274 OA
ATOM     19  N   UNL     1      -0.242   1.246   2.466  0.00  0.00    -0.284 N 
ATOM     20  H   UNL     1       0.612   0.558   2.557  0.00  0.00    +0.155 HD
BRANCH  19  21
ATOM     21  C   UNL     1      -0.834   1.782   3.616  0.00  0.00    +0.034 A 
ATOM     22  C   UNL     1      -0.053   2.086   4.723  0.00  0.00    +0.026 A 
ATOM     23  C   UNL     1      -0.638   2.620   5.854  0.00  0.00    +0.040 A 
ATOM     24  C   UNL     1      -2.004   2.842   5.889  0.00  0.00    +0.124 A 
ATOM     25  C   UNL     1      -2.786   2.535   4.788  0.00  0.00    +0.040 A 
ATOM     26  C   UNL     1      -2.204   2.006   3.653  0.00  0.00    +0.026 A 
ATOM     27  F   UNL     1      -2.575   3.360   6.998  0.00  0.00    -0.205 F 
ENDBRANCH  19  21
ENDBRANCH  16  17
ENDBRANCH  11  16
TORSDOF 5
