REMARK  Name = ZINC19582630
REMARK  10 active torsions:
REMARK  status: ('A' for Active; 'I' for Inactive)
REMARK    1  A    between atoms: C_1  and  C_2
REMARK    2  A    between atoms: C_3  and  O_32
REMARK    3  A    between atoms: C_9  and  C_12
REMARK    4  A    between atoms: C_19  and  C_21
REMARK    5  A    between atoms: C_21  and  C_22
REMARK    6  A    between atoms: C_25  and  O_30
REMARK    7  A    between atoms: C_26  and  O_28
REMARK    8  A    between atoms: O_28  and  C_29
REMARK    9  A    between atoms: O_30  and  C_31
REMARK   10  A    between atoms: O_32  and  C_33
REMARK                            x       y       z     vdW  Elec       q    Type
REMARK                         _______ _______ _______ _____ _____    ______ ____
ROOT
ATOM      1  C   UNL     1      -6.050   4.463  -3.132  0.00  0.00    +0.053 C 
ATOM      2  C   UNL     1      -6.948   5.070  -2.052  0.00  0.00    +0.013 C 
ATOM      3  C   UNL     1      -6.427   4.671  -0.669  0.00  0.00    +0.020 C 
ATOM      4  C   UNL     1      -5.011   5.216  -0.484  0.00  0.00    +0.108 C 
ATOM      5  N   UNL     1      -4.173   4.758  -1.601  0.00  0.00    -0.301 N 
ATOM      6  C   UNL     1      -4.628   5.010  -2.975  0.00  0.00    +0.117 C 
ATOM      7  C   UNL     1      -3.012   4.114  -1.369  0.00  0.00    +0.220 C 
ATOM      8  O   UNL     1      -2.331   3.737  -2.299  0.00  0.00    -0.275 OA
ENDROOT
BRANCH   1  17
ATOM      9  C   UNL     1      -5.511   8.564  -6.272  0.00  0.00    +0.048 C 
ATOM     10  C   UNL     1      -6.415   7.565  -6.948  0.00  0.00    -0.001 A 
ATOM     11  C   UNL     1      -6.934   7.832  -8.185  0.00  0.00    +0.124 A 
ATOM     12  C   UNL     1      -7.774   6.914  -8.824  0.00  0.00    +0.046 A 
ATOM     13  C   UNL     1      -8.099   5.732  -8.235  0.00  0.00    +0.013 A 
ATOM     14  C   UNL     1      -7.584   5.426  -6.965  0.00  0.00    -0.001 A 
ATOM     15  C   UNL     1      -6.731   6.357  -6.315  0.00  0.00    -0.009 A 
ATOM     16  C   UNL     1      -6.229   6.024  -5.042  0.00  0.00    +0.030 A 
ATOM     17  C   UNL     1      -6.582   4.829  -4.493  0.00  0.00    +0.021 A 
ATOM     18  N   UNL     1      -7.377   3.975  -5.125  0.00  0.00    -0.364 N 
ATOM     19  C   UNL     1      -7.886   4.222  -6.310  0.00  0.00    +0.091 A 
ATOM     20  H   UNL     1      -7.635   3.014  -4.657  0.00  0.00    +0.165 HD
BRANCH  11  21
ATOM     21  O   UNL     1      -6.629   9.003  -8.801  0.00  0.00    -0.495 OA
ATOM     22  C   UNL     1      -7.200   9.225 -10.092  0.00  0.00    +0.277 C 
ENDBRANCH  11  21
ENDBRANCH   1  17
BRANCH   7  23
ATOM     23  C   UNL     1      -2.559   3.864   0.047  0.00  0.00    +0.131 C 
BRANCH  23  24
ATOM     24  C   UNL     1      -1.241   3.133   0.031  0.00  0.00    -0.035 A 
ATOM     25  C   UNL     1      -1.219   1.751   0.017  0.00  0.00    +0.008 A 
ATOM     26  C   UNL     1      -0.013   1.076   0.008  0.00  0.00    +0.049 A 
ATOM     27  C   UNL     1       1.178   1.785   0.000  0.00  0.00    +0.161 A 
ATOM     28  C   UNL     1       1.155   3.176   0.008  0.00  0.00    +0.162 A 
ATOM     29  C   UNL     1      -0.057   3.846   0.023  0.00  0.00    +0.053 A 
BRANCH  28  30
ATOM     30  O   UNL     1       2.321   3.877   0.001  0.00  0.00    -0.491 OA
ATOM     31  C   UNL     1       2.222   5.302   0.010  0.00  0.00    +0.277 C 
ENDBRANCH  28  30
BRANCH  27  32
ATOM     32  O   UNL     1       2.365   1.123  -0.015  0.00  0.00    -0.491 OA
ATOM     33  C   UNL     1       2.312  -0.305  -0.023  0.00  0.00    +0.277 C 
ENDBRANCH  27  32
ENDBRANCH  23  24
ENDBRANCH   7  23
TORSDOF 6
