REMARK  Name = ZINC67081738
REMARK  4 active torsions:
REMARK  status: ('A' for Active; 'I' for Inactive)
REMARK    1  A    between atoms: N_10  and  C_11
REMARK    2  A    between atoms: C_11  and  C_12
REMARK    3  A    between atoms: C_12  and  N_13
REMARK    4  A    between atoms: C_20  and  C_23
REMARK                            x       y       z     vdW  Elec       q    Type
REMARK                         _______ _______ _______ _____ _____    ______ ____
ROOT
ATOM      1  N   UNL     1       6.795   0.089   1.378  0.00  0.00    -0.298 N 
ATOM      2  C   UNL     1       7.452   0.278   2.540  0.00  0.00    +0.302 C 
ATOM      3  O   UNL     1       6.856   0.194   3.596  0.00  0.00    -0.253 OA
ATOM      4  N   UNL     1       8.770   0.560   2.530  0.00  0.00    -0.281 N 
ATOM      5  C   UNL     1       9.534   0.651   3.785  0.00  0.00    +0.137 C 
ATOM      6  C   UNL     1      10.318   1.969   3.779  0.00  0.00    +0.179 C 
ATOM      7  O   UNL     1      11.072   2.063   2.568  0.00  0.00    -0.369 OA
ATOM      8  C   UNL     1      10.273   2.096   1.382  0.00  0.00    +0.166 C 
ATOM      9  C   UNL     1       9.489   0.780   1.265  0.00  0.00    +0.145 C 
ATOM     10  H   UNL     1       7.253   0.228   0.534  0.00  0.00    +0.150 HD
ENDROOT
BRANCH   8  11
ATOM     11  C   UNL     1      11.166   2.258   0.179  0.00  0.00    -0.015 A 
ATOM     12  C   UNL     1      12.366   1.575   0.112  0.00  0.00    +0.006 A 
ATOM     13  C   UNL     1      13.186   1.722  -0.992  0.00  0.00    +0.003 A 
ATOM     14  C   UNL     1      12.806   2.554  -2.029  0.00  0.00    +0.038 A 
ATOM     15  C   UNL     1      11.605   3.238  -1.962  0.00  0.00    +0.124 A 
ATOM     16  C   UNL     1      10.782   3.085  -0.859  0.00  0.00    +0.044 A 
ATOM     17  F   UNL     1      11.234   4.051  -2.975  0.00  0.00    -0.205 F 
ENDBRANCH   8  11
BRANCH   1  18
ATOM     18  C   UNL     1       5.390  -0.324   1.391  0.00  0.00    +0.125 C 
BRANCH  18  19
ATOM     19  C   UNL     1       4.887  -0.466  -0.048  0.00  0.00    +0.132 C 
BRANCH  19  29
ATOM     20  C   UNL     1      -0.014   1.372  -0.001  0.00  0.00    +0.000 A 
ATOM     21  C   UNL     1       1.176   2.076  -0.010  0.00  0.00    +0.002 A 
ATOM     22  C   UNL     1       2.382   1.406  -0.022  0.00  0.00    +0.024 A 
ATOM     23  C   UNL     1       2.409   0.013  -0.025  0.00  0.00    +0.040 A 
ATOM     24  C   UNL     1       1.206  -0.682  -0.015  0.00  0.00    -0.017 A 
ATOM     25  C   UNL     1       0.004  -0.011  -0.003  0.00  0.00    +0.006 A 
ATOM     26  C   UNL     1       1.564  -2.151  -0.020  0.00  0.00    +0.133 C 
ATOM     27  C   UNL     1       3.078  -2.160  -0.034  0.00  0.00    +0.224 C 
ATOM     28  O   UNL     1       3.792  -3.141  -0.041  0.00  0.00    -0.275 OA
ATOM     29  N   UNL     1       3.482  -0.879  -0.036  0.00  0.00    -0.269 N 
ENDBRANCH  19  29
ENDBRANCH  18  19
ENDBRANCH   1  18
TORSDOF 4
