REMARK  Name = ZINC12147536
REMARK  4 active torsions:
REMARK  status: ('A' for Active; 'I' for Inactive)
REMARK    1  A    between atoms: C_1  and  N_2
REMARK    2  A    between atoms: N_2  and  C_3
REMARK    3  A    between atoms: C_3  and  C_4
REMARK    4  A    between atoms: C_15  and  C_17
REMARK                            x       y       z     vdW  Elec       q    Type
REMARK                         _______ _______ _______ _____ _____    ______ ____
ROOT
ATOM      1  C   UNL     1      -0.623   6.130  -0.115  0.00  0.00    +0.133 C 
ATOM      2  N   UNL     1       0.840   6.047  -0.126  0.00  0.00    -0.292 N 
ATOM      3  C   UNL     1       1.448   4.850  -0.008  0.00  0.00    +0.265 C 
ATOM      4  O   UNL     1       2.660   4.789   0.074  0.00  0.00    -0.268 OA
ENDROOT
BRANCH   3   5
ATOM      5  C   UNL     1       0.645   3.616   0.021  0.00  0.00    +0.124 A 
ATOM      6  C   UNL     1      -0.095   3.134   1.077  0.00  0.00    +0.005 A 
ATOM      7  C   UNL     1      -0.665   1.940   0.629  0.00  0.00    +0.067 A 
ATOM      8  N   UNL     1      -0.285   1.759  -0.607  0.00  0.00    -0.178 NA
ATOM      9  N   UNL     1       0.482   2.716  -0.996  0.00  0.00    -0.272 N 
ATOM     10  H   UNL     1       0.896   2.790  -1.903  0.00  0.00    +0.189 HD
ATOM     11  C   UNL     1      -1.552   1.042   1.455  0.00  0.00    +0.057 C 
ATOM     12  C   UNL     1      -2.608   1.894   2.165  0.00  0.00    +0.006 C 
ATOM     13  C   UNL     1      -2.072   2.371   3.511  0.00  0.00    +0.001 C 
ATOM     14  C   UNL     1      -0.571   2.630   3.449  0.00  0.00    +0.005 C 
ATOM     15  C   UNL     1      -0.281   3.745   2.438  0.00  0.00    +0.039 C 
ENDBRANCH   3   5
BRANCH   2  16
ATOM     16  C   UNL     1       1.641   7.265  -0.266  0.00  0.00    +0.181 C 
BRANCH  16  17
ATOM     17  C   UNL     1       1.897   7.534  -1.726  0.00  0.00    +0.126 A 
ATOM     18  N   UNL     1       1.150   8.358  -2.509  0.00  0.00    -0.341 N 
ATOM     19  H   UNL     1       0.349   8.883  -2.222  0.00  0.00    +0.167 HD
ATOM     20  C   UNL     1       1.704   8.336  -3.774  0.00  0.00    +0.066 A 
ATOM     21  C   UNL     1       1.393   8.959  -4.975  0.00  0.00    +0.029 A 
ATOM     22  C   UNL     1       2.166   8.721  -6.091  0.00  0.00    +0.022 A 
ATOM     23  C   UNL     1       3.255   7.862  -6.024  0.00  0.00    +0.043 A 
ATOM     24  C   UNL     1       3.579   7.236  -4.841  0.00  0.00    +0.050 A 
ATOM     25  C   UNL     1       2.805   7.466  -3.700  0.00  0.00    +0.091 A 
ATOM     26  N   UNL     1       2.868   7.015  -2.421  0.00  0.00    -0.231 NA
ATOM     27 CL   UNL     1       4.216   7.576  -7.441  0.00  0.00    -0.083 Cl
ENDBRANCH  16  17
ENDBRANCH   2  16
TORSDOF 3
