REMARK  Name = ZINC04513267
REMARK  6 active torsions:
REMARK  status: ('A' for Active; 'I' for Inactive)
REMARK    1  A    between atoms: C_1  and  C_2
REMARK    2  A    between atoms: C_2  and  C_3
REMARK    3  A    between atoms: N_11  and  C_15
REMARK    4  A    between atoms: C_15  and  C_16
REMARK    5  A    between atoms: N_18  and  C_19
REMARK    6  A    between atoms: C_24  and  C_25
REMARK                            x       y       z     vdW  Elec       q    Type
REMARK                         _______ _______ _______ _____ _____    ______ ____
ROOT
ATOM      1  C   UNL     1       0.106  -3.752   3.108  0.00  0.00    -0.011 C 
ATOM      2  C   UNL     1       1.338  -2.986   2.620  0.00  0.00    +0.006 C 
ATOM      3  C   UNL     1       1.314  -2.904   1.092  0.00  0.00    +0.035 C 
ATOM      4  C   UNL     1       0.042  -2.196   0.639  0.00  0.00    +0.113 C 
ATOM      5  C   UNL     1      -1.194  -2.938   1.136  0.00  0.00    +0.035 C 
ATOM      6  C   UNL     1      -1.162  -3.020   2.664  0.00  0.00    +0.006 C 
ATOM      7  C   UNL     1       0.031  -0.767   1.131  0.00  0.00    +0.247 C 
ATOM      8  O   UNL     1       0.047  -0.386   2.281  0.00  0.00    -0.273 OA
ATOM      9  N   UNL     1       0.002  -0.004   0.018  0.00  0.00    -0.215 N 
ATOM     10  C   UNL     1      -0.014  -0.751  -1.092  0.00  0.00    +0.310 C 
ATOM     11  O   UNL     1      -0.046  -0.291  -2.216  0.00  0.00    -0.252 OA
ATOM     12  N   UNL     1       0.015  -2.071  -0.824  0.00  0.00    -0.285 N 
ATOM     13  H   UNL     1       0.013  -2.795  -1.469  0.00  0.00    +0.151 HD
ENDROOT
BRANCH   1  15
ATOM     14  C   UNL     1      -1.028  -4.715   5.115  0.00  0.00    +0.004 C 
ATOM     15  C   UNL     1       0.134  -3.844   4.635  0.00  0.00    -0.000 C 
ENDBRANCH   1  15
BRANCH   9  16
ATOM     16  C   UNL     1      -0.018   1.461   0.025  0.00  0.00    +0.214 C 
BRANCH  16  17
ATOM     17  C   UNL     1       1.396   1.982   0.003  0.00  0.00    +0.235 C 
ATOM     18  O   UNL     1       2.328   1.207  -0.017  0.00  0.00    -0.274 OA
ATOM     19  N   UNL     1       1.624   3.311   0.004  0.00  0.00    -0.284 N 
ATOM     20  H   UNL     1       0.881   3.931  -0.061  0.00  0.00    +0.155 HD
BRANCH  19  21
ATOM     21  C   UNL     1       2.933   3.795   0.100  0.00  0.00    +0.039 A 
ATOM     22  C   UNL     1       3.921   3.019   0.692  0.00  0.00    +0.062 A 
ATOM     23  C   UNL     1       5.215   3.499   0.781  0.00  0.00    +0.125 A 
ATOM     24  C   UNL     1       5.523   4.757   0.289  0.00  0.00    +0.039 A 
ATOM     25  C   UNL     1       4.539   5.532  -0.296  0.00  0.00    +0.008 A 
ATOM     26  C   UNL     1       3.246   5.056  -0.392  0.00  0.00    -0.029 A 
ATOM     27  C   UNL     1       2.176   5.902  -1.031  0.00  0.00    +0.045 C 
ATOM     28  F   UNL     1       6.178   2.743   1.353  0.00  0.00    -0.205 F 
ENDBRANCH  19  21
ENDBRANCH  16  17
ENDBRANCH   9  16
TORSDOF 4
