REMARK  Name = ZINC66314727
REMARK  5 active torsions:
REMARK  status: ('A' for Active; 'I' for Inactive)
REMARK    1  A    between atoms: C_6  and  C_7
REMARK    2  A    between atoms: C_7  and  C_10
REMARK    3  A    between atoms: C_10  and  N_11
REMARK    4  A    between atoms: C_12  and  C_14
REMARK    5  A    between atoms: C_16  and  N_24
REMARK                            x       y       z     vdW  Elec       q    Type
REMARK                         _______ _______ _______ _____ _____    ______ ____
ROOT
ATOM      1  N   UNL     1      -2.256   1.406  -0.535  0.00  0.00    -0.310 N 
ATOM      2  C   UNL     1      -3.205   2.257  -0.973  0.00  0.00    +0.248 C 
ATOM      3  O   UNL     1      -4.220   1.825  -1.483  0.00  0.00    -0.270 OA
ATOM      4  H   UNL     1      -1.446   1.752  -0.128  0.00  0.00    +0.149 HD
ENDROOT
BRANCH   2   5
ATOM      5  C   UNL     1      -3.011   3.713  -0.835  0.00  0.00    +0.084 A 
ATOM      6  C   UNL     1      -1.843   4.214  -0.254  0.00  0.00    +0.049 A 
ATOM      7  C   UNL     1      -1.666   5.574  -0.127  0.00  0.00    +0.131 A 
ATOM      8  C   UNL     1      -2.642   6.450  -0.570  0.00  0.00    +0.082 A 
ATOM      9  C   UNL     1      -3.807   5.970  -1.147  0.00  0.00    +0.165 A 
ATOM     10  C   UNL     1      -3.996   4.600  -1.289  0.00  0.00    +0.174 A 
ATOM     11  O   UNL     1      -5.124   4.108  -1.863  0.00  0.00    -0.484 OA
ATOM     12  C   UNL     1      -6.239   5.002  -1.962  0.00  0.00    +0.270 C 
ATOM     13  C   UNL     1      -5.729   6.347  -2.496  0.00  0.00    +0.270 C 
ATOM     14  O   UNL     1      -4.754   6.850  -1.573  0.00  0.00    -0.485 OA
BRANCH   7  15
ATOM     15  N   UNL     1      -0.427   6.101   0.488  0.00  0.00    +0.057 N 
ATOM     16  O   UNL     1       0.427   5.339   0.876  0.00  0.00    -0.126 OA
ATOM     17  O   UNL     1      -0.269   7.294   0.601  0.00  0.00    -0.126 OA
ENDBRANCH   7  15
ENDBRANCH   2   5
BRANCH   1  18
ATOM     18  C   UNL     1      -2.448  -0.039  -0.673  0.00  0.00    +0.116 C 
BRANCH  18  19
ATOM     19  C   UNL     1      -1.263  -0.774  -0.042  0.00  0.00    +0.011 C 
ATOM     20  C   UNL     1      -1.264  -0.941   1.479  0.00  0.00    +0.014 C 
ATOM     21  C   UNL     1      -1.531  -2.147   0.577  0.00  0.00    +0.014 C 
BRANCH  19  27
ATOM     22  C   UNL     1       0.967   0.352  -0.203  0.00  0.00    +0.007 A 
ATOM     23  C   UNL     1       2.187   0.546  -0.822  0.00  0.00    +0.038 A 
ATOM     24  C   UNL     1       2.508  -0.176  -1.959  0.00  0.00    +0.123 A 
ATOM     25  C   UNL     1       1.606  -1.091  -2.474  0.00  0.00    +0.038 A 
ATOM     26  C   UNL     1       0.387  -1.284  -1.853  0.00  0.00    +0.007 A 
ATOM     27  C   UNL     1       0.067  -0.563  -0.718  0.00  0.00    -0.040 A 
ATOM     28  F   UNL     1       3.700   0.013  -2.566  0.00  0.00    -0.205 F 
ENDBRANCH  19  27
ENDBRANCH  18  19
ENDBRANCH   1  18
TORSDOF 5
