REMARK  Name = ZINC53698702
REMARK  8 active torsions:
REMARK  status: ('A' for Active; 'I' for Inactive)
REMARK    1  A    between atoms: C_1  and  C_2
REMARK    2  A    between atoms: N_7  and  C_9
REMARK    3  A    between atoms: C_9  and  C_10
REMARK    4  A    between atoms: C_9  and  C_11
REMARK    5  A    between atoms: C_9  and  C_12
REMARK    6  A    between atoms: C_12  and  N_13
REMARK    7  A    between atoms: N_13  and  S_14
REMARK    8  A    between atoms: S_14  and  C_17
REMARK                            x       y       z     vdW  Elec       q    Type
REMARK                         _______ _______ _______ _____ _____    ______ ____
ROOT
ATOM      1  S   UNL     1       2.690  -6.033   1.013  0.00  0.00    +0.061 S 
ATOM      2  O   UNL     1       3.219  -6.183  -0.297  0.00  0.00    -0.153 OA
ATOM      3  O   UNL     1       3.452  -6.312   2.180  0.00  0.00    -0.153 OA
ENDROOT
BRANCH   1   4
ATOM      4  C   UNL     1       1.253  -7.049   1.096  0.00  0.00    +0.141 A 
ATOM      5  C   UNL     1       0.881  -7.808   0.001  0.00  0.00    +0.037 A 
ATOM      6  C   UNL     1      -0.244  -8.606   0.063  0.00  0.00    -0.024 A 
ATOM      7  C   UNL     1      -1.004  -8.646   1.226  0.00  0.00    +0.039 A 
ATOM      8  C   UNL     1      -0.630  -7.884   2.323  0.00  0.00    +0.064 A 
ATOM      9  C   UNL     1       0.501  -7.090   2.258  0.00  0.00    +0.151 A 
ATOM     10  F   UNL     1       0.870  -6.351   3.327  0.00  0.00    -0.203 F 
ATOM     11  N   UNL     1      -2.143  -9.456   1.287  0.00  0.00    -0.285 N 
ATOM     12  C   UNL     1      -2.314 -10.459   0.407  0.00  0.00    +0.218 C 
ATOM     13  O   UNL     1      -3.315 -11.143   0.465  0.00  0.00    -0.275 OA
ATOM     14  C   UNL     1      -1.280 -10.743  -0.648  0.00  0.00    +0.101 C 
ATOM     15  C   UNL     1      -0.651  -9.434  -1.127  0.00  0.00    +0.046 C 
ATOM     16  H   UNL     1      -2.813  -9.292   1.968  0.00  0.00    +0.155 HD
ENDBRANCH   1   4
BRANCH   1  17
ATOM     17  N   UNL     1       2.186  -4.461   1.142  0.00  0.00    -0.191 NA
ATOM     18  H   UNL     1       2.304  -3.851   0.397  0.00  0.00    +0.148 HD
BRANCH  17  19
ATOM     19  C   UNL     1       1.562  -3.991   2.382  0.00  0.00    +0.093 C 
BRANCH  19  20
ATOM     20  C   UNL     1       1.534  -2.461   2.390  0.00  0.00    -0.057 C 
ATOM     21  C   UNL     1       2.963  -1.924   2.303  0.00  0.00    -0.009 C 
ATOM     22  C   UNL     1       0.882  -1.970   3.685  0.00  0.00    -0.009 C 
BRANCH  20  28
ATOM     23  C   UNL     1      -0.019   1.526   0.010  0.00  0.00    +0.005 C 
ATOM     24  C   UNL     1       0.002  -0.004   0.002  0.00  0.00    -0.031 C 
ATOM     25  C   UNL     1      -1.434  -0.535   0.015  0.00  0.00    -0.001 C 
ATOM     26  C   UNL     1      -1.402  -2.064   0.086  0.00  0.00    -0.018 C 
ATOM     27  C   UNL     1      -0.613  -2.496   1.324  0.00  0.00    -0.078 C 
ATOM     28  N   UNL     1       0.758  -1.980   1.239  0.00  0.00    +0.384 N 
ATOM     29  C   UNL     1       0.740  -0.512   1.242  0.00  0.00    -0.075 C 
ATOM     30  H   UNL     1       1.188  -2.307   0.386  0.00  0.00    -0.081 HD
ENDBRANCH  20  28
ENDBRANCH  19  20
ENDBRANCH  17  19
ENDBRANCH   1  17
TORSDOF 5
