REMARK  Name = ZINC08883077
REMARK  5 active torsions:
REMARK  status: ('A' for Active; 'I' for Inactive)
REMARK    1  A    between atoms: C_1  and  C_2
REMARK    2  A    between atoms: C_2  and  C_4
REMARK    3  A    between atoms: C_2  and  N_13
REMARK    4  A    between atoms: C_14  and  C_16
REMARK    5  A    between atoms: C_16  and  N_17
REMARK                            x       y       z     vdW  Elec       q    Type
REMARK                         _______ _______ _______ _____ _____    ______ ____
ROOT
ATOM      1  C   UNL     1      -1.330   1.944   0.019  0.00  0.00    +0.213 C 
ENDROOT
BRANCH   1   2
ATOM      2  N   UNL     1      -2.430   0.977   0.019  0.00  0.00    -0.215 N 
ATOM      3  C   UNL     1      -2.995   0.470   1.135  0.00  0.00    +0.251 C 
ATOM      4  O   UNL     1      -2.701   0.718   2.285  0.00  0.00    -0.272 OA
ATOM      5  C   UNL     1      -4.070  -0.470   0.649  0.00  0.00    +0.139 C 
ATOM      6  C   UNL     1      -5.441  -0.040   1.149  0.00  0.00    +0.040 C 
ATOM      7  C   UNL     1      -5.560  -0.298   2.654  0.00  0.00    +0.008 C 
ATOM      8  C   UNL     1      -5.591  -1.814   2.898  0.00  0.00    +0.043 C 
ATOM      9  C   UNL     1      -4.481  -2.443   2.121  0.00  0.00    -0.005 A 
ATOM     10  C   UNL     1      -3.765  -1.887   1.104  0.00  0.00    -0.005 A 
ATOM     11  C   UNL     1      -2.771  -2.683   0.536  0.00  0.00    +0.014 A 
ATOM     12  C   UNL     1      -2.559  -3.937   0.997  0.00  0.00    +0.046 A 
ATOM     13  S   UNL     1      -3.784  -4.064   2.292  0.00  0.00    -0.101 S 
ATOM     14  N   UNL     1      -3.991  -0.385  -0.813  0.00  0.00    -0.281 N 
ATOM     15  C   UNL     1      -3.005   0.491  -1.089  0.00  0.00    +0.310 C 
ATOM     16  O   UNL     1      -2.672   0.802  -2.215  0.00  0.00    -0.252 OA
ATOM     17  H   UNL     1      -4.541  -0.862  -1.454  0.00  0.00    +0.152 HD
ENDBRANCH   1   2
BRANCH   1  19
ATOM     18  N   UNL     1       1.143   1.898   0.001  0.00  0.00    -0.304 N 
ATOM     19  C   UNL     1      -0.014   1.209   0.009  0.00  0.00    +0.232 C 
ATOM     20  O   UNL     1       0.002  -0.004   0.002  0.00  0.00    -0.274 OA
ATOM     21  H   UNL     1       1.130   2.868   0.007  0.00  0.00    +0.149 HD
BRANCH  18  23
ATOM     22  C   UNL     1       2.792   0.832  -1.457  0.00  0.00    +0.036 C 
ATOM     23  C   UNL     1       2.422   1.183  -0.015  0.00  0.00    +0.136 C 
BRANCH  23  24
ATOM     24  C   UNL     1       3.495   2.058   0.580  0.00  0.00    +0.126 A 
ATOM     25  C   UNL     1       4.468   1.632   1.396  0.00  0.00    +0.055 A 
ATOM     26  C   UNL     1       5.275   2.813   1.724  0.00  0.00    +0.020 A 
ATOM     27  C   UNL     1       6.406   3.035   2.509  0.00  0.00    +0.011 A 
ATOM     28  C   UNL     1       6.926   4.295   2.607  0.00  0.00    +0.001 A 
ATOM     29  C   UNL     1       6.336   5.354   1.932  0.00  0.00    +0.004 A 
ATOM     30  C   UNL     1       5.217   5.154   1.151  0.00  0.00    +0.047 A 
ATOM     31  C   UNL     1       4.672   3.881   1.038  0.00  0.00    +0.135 A 
ATOM     32  O   UNL     1       3.617   3.380   0.365  0.00  0.00    -0.458 OA
ENDBRANCH  23  24
ENDBRANCH  18  23
ENDBRANCH   1  19
TORSDOF 4
