REMARK  Name = ZINC35870665
REMARK  6 active torsions:
REMARK  status: ('A' for Active; 'I' for Inactive)
REMARK    1  A    between atoms: C_1  and  C_2
REMARK    2  A    between atoms: C_2  and  O_3
REMARK    3  A    between atoms: O_3  and  C_4
REMARK    4  A    between atoms: C_4  and  C_6
REMARK    5  A    between atoms: C_13  and  C_15
REMARK    6  A    between atoms: C_31  and  C_33
REMARK                            x       y       z     vdW  Elec       q    Type
REMARK                         _______ _______ _______ _____ _____    ______ ____
ROOT
ATOM      1  C   UNL     1      -5.875  -6.054  -0.512  0.00  0.00    +0.101 C 
ATOM      2  C   UNL     1      -6.895  -4.925  -0.649  0.00  0.00    +0.051 C 
ATOM      3  C   UNL     1      -8.279  -5.521  -0.650  0.00  0.00    -0.026 A 
ATOM      4  C   UNL     1      -9.342  -4.779  -0.168  0.00  0.00    +0.005 A 
ATOM      5  C   UNL     1     -10.614  -5.321  -0.154  0.00  0.00    +0.000 A 
ATOM      6  C   UNL     1     -10.826  -6.605  -0.623  0.00  0.00    +0.002 A 
ATOM      7  C   UNL     1      -9.768  -7.347  -1.108  0.00  0.00    +0.023 A 
ATOM      8  C   UNL     1      -8.487  -6.801  -1.128  0.00  0.00    +0.033 A 
ATOM      9  N   UNL     1      -7.437  -7.574  -1.653  0.00  0.00    -0.323 N 
ATOM     10  C   UNL     1      -6.073  -7.074  -1.639  0.00  0.00    +0.103 C 
ATOM     11  C   UNL     1      -5.031  -8.170  -1.480  0.00  0.00    +0.131 C 
ATOM     12  N   UNL     1      -5.427  -9.421  -2.096  0.00  0.00    -0.292 N 
ATOM     13  C   UNL     1      -6.782  -9.940  -2.013  0.00  0.00    +0.127 C 
ATOM     14  C   UNL     1      -7.806  -8.854  -2.253  0.00  0.00    +0.124 C 
ATOM     15  C   UNL     1      -4.502 -10.132  -2.771  0.00  0.00    +0.282 C 
ATOM     16  O   UNL     1      -3.355  -9.728  -2.839  0.00  0.00    -0.267 OA
ENDROOT
BRANCH   1  23
ATOM     17  C   UNL     1      -4.009  -5.195   2.894  0.00  0.00    +0.115 C 
ATOM     18  C   UNL     1      -2.598  -4.605   2.950  0.00  0.00    +0.018 C 
ATOM     19  C   UNL     1      -1.830  -4.994   1.685  0.00  0.00    +0.020 C 
ATOM     20  C   UNL     1      -2.547  -4.418   0.460  0.00  0.00    +0.108 C 
ATOM     21  N   UNL     1      -3.946  -4.864   0.477  0.00  0.00    -0.300 N 
ATOM     22  C   UNL     1      -4.751  -4.621   1.683  0.00  0.00    +0.122 C 
ATOM     23  C   UNL     1      -4.483  -5.484  -0.592  0.00  0.00    +0.221 C 
ATOM     24  O   UNL     1      -3.845  -5.582  -1.619  0.00  0.00    -0.275 OA
BRANCH  17  25
ATOM     25  C   UNL     1      -4.754  -4.838   4.155  0.00  0.00    +0.312 C 
ATOM     26  O   UNL     1      -5.773  -4.193   4.092  0.00  0.00    -0.250 OA
BRANCH  25  27
ATOM     27  O   UNL     1      -4.284  -5.237   5.347  0.00  0.00    -0.465 OA
BRANCH  27  29
ATOM     28  C   UNL     1      -4.355  -5.404   7.757  0.00  0.00    +0.048 C 
ATOM     29  C   UNL     1      -5.041  -4.864   6.501  0.00  0.00    +0.229 C 
ENDBRANCH  27  29
ENDBRANCH  25  27
ENDBRANCH  17  25
ENDBRANCH   1  23
BRANCH  15  30
ATOM     30  C   UNL     1      -4.876 -11.390  -3.424  0.00  0.00    +0.189 A 
ATOM     31  C   UNL     1      -4.088 -12.123  -4.264  0.00  0.00    +0.054 A 
ATOM     32  C   UNL     1      -4.843 -13.242  -4.651  0.00  0.00    +0.042 A 
ATOM     33  C   UNL     1      -6.043 -13.144  -4.037  0.00  0.00    +0.196 A 
ATOM     34  O   UNL     1      -6.057 -12.030  -3.294  0.00  0.00    -0.458 OA
ENDBRANCH  15  30
TORSDOF 5
