REMARK  Name = ZINC56943513
REMARK  9 active torsions:
REMARK  status: ('A' for Active; 'I' for Inactive)
REMARK    1  A    between atoms: C_1  and  C_2
REMARK    2  A    between atoms: C_2  and  C_4
REMARK    3  A    between atoms: C_2  and  N_12
REMARK    4  A    between atoms: N_15  and  C_16
REMARK    5  A    between atoms: C_16  and  C_17
REMARK    6  A    between atoms: C_17  and  C_19
REMARK    7  A    between atoms: C_17  and  O_28
REMARK    8  A    between atoms: C_19  and  O_20
REMARK    9  A    between atoms: O_20  and  C_21
REMARK                            x       y       z     vdW  Elec       q    Type
REMARK                         _______ _______ _______ _____ _____    ______ ____
ROOT
ATOM      1  N   UNL     1       0.711  -0.489   1.189  0.00  0.00    -0.293 N 
ATOM      2  C   UNL     1       2.054  -0.600   1.174  0.00  0.00    +0.300 C 
ATOM      3  O   UNL     1       2.677  -0.297   0.175  0.00  0.00    -0.253 OA
ATOM      4  N   UNL     1       2.706  -1.046   2.266  0.00  0.00    -0.297 N 
ATOM      5  H   UNL     1       0.213  -0.731   1.986  0.00  0.00    +0.151 HD
ATOM      6  H   UNL     1       2.208  -1.288   3.062  0.00  0.00    +0.150 HD
ENDROOT
BRANCH   1   8
ATOM      7  C   UNL     1      -0.019   1.526   0.010  0.00  0.00    +0.033 C 
ATOM      8  C   UNL     1       0.002  -0.004   0.002  0.00  0.00    +0.102 C 
BRANCH   8   9
ATOM      9  C   UNL     1      -1.412  -0.526   0.013  0.00  0.00    -0.026 A 
ATOM     10  C   UNL     1      -2.122  -0.571   1.198  0.00  0.00    +0.008 A 
ATOM     11  C   UNL     1      -3.419  -1.048   1.210  0.00  0.00    +0.040 A 
ATOM     12  C   UNL     1      -4.007  -1.482   0.034  0.00  0.00    +0.142 A 
ATOM     13  C   UNL     1      -3.295  -1.437  -1.154  0.00  0.00    +0.076 A 
ATOM     14  C   UNL     1      -1.999  -0.953  -1.163  0.00  0.00    +0.028 A 
ATOM     15 CL   UNL     1      -4.030  -1.980  -2.629  0.00  0.00    -0.081 Cl
ATOM     16  F   UNL     1      -5.275  -1.950   0.044  0.00  0.00    -0.204 F 
ENDBRANCH   8   9
ENDBRANCH   1   8
BRANCH   4  17
ATOM     17  C   UNL     1       4.166  -1.166   2.249  0.00  0.00    +0.140 C 
BRANCH  17  18
ATOM     18  C   UNL     1       4.649  -1.692   3.602  0.00  0.00    +0.169 C 
BRANCH  18  19
ATOM     19  O   UNL     1       4.258  -0.783   4.633  0.00  0.00    -0.387 OA
ATOM     20  H   UNL     1       4.616   0.109   4.529  0.00  0.00    +0.210 HD
ENDBRANCH  18  19
BRANCH  18  21
ATOM     21  C   UNL     1       6.174  -1.817   3.585  0.00  0.00    +0.261 C 
BRANCH  21  22
ATOM     22  O   UNL     1       6.617  -2.416   4.804  0.00  0.00    -0.489 OA
BRANCH  22  23
ATOM     23  C   UNL     1       7.956  -2.601   4.951  0.00  0.00    +0.121 A 
ATOM     24  C   UNL     1       8.825  -2.208   3.944  0.00  0.00    +0.048 A 
ATOM     25  C   UNL     1      10.185  -2.396   4.095  0.00  0.00    +0.042 A 
ATOM     26  C   UNL     1      10.681  -2.977   5.250  0.00  0.00    +0.124 A 
ATOM     27  C   UNL     1       9.814  -3.370   6.255  0.00  0.00    +0.042 A 
ATOM     28  C   UNL     1       8.454  -3.177   6.110  0.00  0.00    +0.048 A 
ATOM     29  F   UNL     1      12.011  -3.160   5.395  0.00  0.00    -0.205 F 
ENDBRANCH  22  23
ENDBRANCH  21  22
ENDBRANCH  18  21
ENDBRANCH  17  18
ENDBRANCH   4  17
TORSDOF 8
