REMARK  Name = ZINC25589072
REMARK  9 active torsions:
REMARK  status: ('A' for Active; 'I' for Inactive)
REMARK    1  A    between atoms: C_1  and  C_2
REMARK    2  A    between atoms: C_2  and  C_3
REMARK    3  A    between atoms: C_4  and  C_26
REMARK    4  A    between atoms: C_5  and  N_25
REMARK    5  A    between atoms: C_7  and  S_9
REMARK    6  A    between atoms: S_9  and  C_10
REMARK    7  A    between atoms: C_10  and  C_11
REMARK    8  A    between atoms: N_13  and  C_14
REMARK    9  A    between atoms: N_13  and  C_22
REMARK                            x       y       z     vdW  Elec       q    Type
REMARK                         _______ _______ _______ _____ _____    ______ ____
ROOT
ATOM      1  C   UNL     1       0.267  -2.214  -1.332  0.00  0.00    +0.055 A 
ATOM      2  C   UNL     1      -0.352  -2.401  -2.567  0.00  0.00    +0.043 A 
ATOM      3  C   UNL     1       0.462  -2.565  -3.703  0.00  0.00    +0.129 A 
ATOM      4  N   UNL     1       1.782  -2.536  -3.556  0.00  0.00    -0.207 NA
ATOM      5  C   UNL     1       2.326  -2.355  -2.361  0.00  0.00    +0.191 A 
ATOM      6  N   UNL     1       1.589  -2.192  -1.271  0.00  0.00    -0.226 NA
ENDROOT
BRANCH   2   7
ATOM      7  C   UNL     1      -1.830  -2.427  -2.680  0.00  0.00    -0.013 A 
ATOM      8  C   UNL     1      -2.561  -3.443  -2.065  0.00  0.00    +0.010 A 
ATOM      9  C   UNL     1      -3.936  -3.463  -2.174  0.00  0.00    +0.020 A 
ATOM     10  C   UNL     1      -4.591  -2.476  -2.892  0.00  0.00    +0.041 A 
ATOM     11  C   UNL     1      -3.869  -1.465  -3.504  0.00  0.00    +0.020 A 
ATOM     12  C   UNL     1      -2.494  -1.433  -3.397  0.00  0.00    +0.010 A 
ATOM     13 CL   UNL     1      -6.321  -2.507  -3.026  0.00  0.00    -0.084 Cl
ENDBRANCH   2   7
BRANCH   3  14
ATOM     14  N   UNL     1      -0.102  -2.755  -4.951  0.00  0.00    -0.343 N 
ATOM     15  H   UNL     1      -1.067  -2.776  -5.049  0.00  0.00    +0.144 HD
ATOM     16  H   UNL     1       0.467  -2.867  -5.729  0.00  0.00    +0.144 HD
ENDBRANCH   3  14
BRANCH   1  18
ATOM     17  C   UNL     1      -0.851  -0.546   0.122  0.00  0.00    +0.010 C 
ATOM     18  C   UNL     1      -0.558  -2.033  -0.084  0.00  0.00    +0.053 C 
ENDBRANCH   1  18
BRANCH   5  19
ATOM     19  S   UNL     1       4.082  -2.324  -2.217  0.00  0.00    -0.077 S 
BRANCH  19  20
ATOM     20  C   UNL     1       4.666  -2.574  -3.917  0.00  0.00    +0.173 C 
BRANCH  20  21
ATOM     21  C   UNL     1       6.173  -2.568  -3.936  0.00  0.00    +0.226 C 
ATOM     22  O   UNL     1       6.792  -2.394  -2.908  0.00  0.00    -0.275 OA
ATOM     23  N   UNL     1       6.832  -2.757  -5.096  0.00  0.00    -0.293 N 
BRANCH  23  24
ATOM     24  C   UNL     1       8.294  -2.862  -5.099  0.00  0.00    +0.099 C 
ATOM     25  C   UNL     1       8.901  -1.552  -4.569  0.00  0.00    +0.046 C 
ATOM     26  C   UNL     1      10.411  -1.798  -4.287  0.00  0.00    +0.168 C 
ATOM     27  S   UNL     1      10.345  -3.480  -3.537  0.00  0.00    -0.029 S 
ATOM     28  O   UNL     1      11.379  -4.277  -4.099  0.00  0.00    -0.174 OA
ATOM     29  O   UNL     1      10.248  -3.353  -2.125  0.00  0.00    -0.174 OA
ATOM     30  C   UNL     1       8.726  -4.045  -4.200  0.00  0.00    +0.188 C 
ENDBRANCH  23  24
BRANCH  23  31
ATOM     31  C   UNL     1       6.088  -2.858  -6.354  0.00  0.00    +0.077 C 
ATOM     32  C   UNL     1       6.836  -3.395  -7.576  0.00  0.00    +0.024 C 
ATOM     33  C   UNL     1       6.484  -1.909  -7.487  0.00  0.00    +0.024 C 
ENDBRANCH  23  31
ENDBRANCH  20  21
ENDBRANCH  19  20
ENDBRANCH   5  19
TORSDOF 8
