REMARK  Name = ZINC16511181
REMARK  9 active torsions:
REMARK  status: ('A' for Active; 'I' for Inactive)
REMARK    1  A    between atoms: C_1  and  C_2
REMARK    2  A    between atoms: C_5  and  C_31
REMARK    3  A    between atoms: C_6  and  N_8
REMARK    4  A    between atoms: C_9  and  S_13
REMARK    5  A    between atoms: S_13  and  C_14
REMARK    6  A    between atoms: C_14  and  C_15
REMARK    7  A    between atoms: N_17  and  C_18
REMARK    8  A    between atoms: C_19  and  C_29
REMARK    9  A    between atoms: C_24  and  C_28
REMARK                            x       y       z     vdW  Elec       q    Type
REMARK                         _______ _______ _______ _____ _____    ______ ____
ROOT
ATOM      1  C   UNL     1      -1.563   0.890   1.115  0.00  0.00    +0.228 C 
ATOM      2  O   UNL     1      -1.432   2.095   1.080  0.00  0.00    -0.275 OA
ATOM      3  N   UNL     1      -0.488   0.101   1.314  0.00  0.00    -0.278 N 
ATOM      4  H   UNL     1      -0.592  -0.863   1.342  0.00  0.00    +0.155 HD
ENDROOT
BRANCH   3   5
ATOM      5  C   UNL     1       0.769   0.668   1.473  0.00  0.00    +0.090 A 
ATOM      6  C   UNL     1       1.982   0.029   1.685  0.00  0.00    +0.084 A 
ATOM      7  C   UNL     1       3.166   0.861   1.815  0.00  0.00    -0.018 A 
ATOM      8  C   UNL     1       2.947   2.191   1.723  0.00  0.00    -0.004 A 
ATOM      9  S   UNL     1       1.203   2.345   1.461  0.00  0.00    -0.077 S 
ATOM     10  C   UNL     1       3.967   3.283   1.823  0.00  0.00    +0.046 C 
ATOM     11  C   UNL     1       5.361   2.658   1.672  0.00  0.00    -0.009 C 
ATOM     12  C   UNL     1       5.454   1.433   2.586  0.00  0.00    +0.008 C 
ATOM     13  C   UNL     1       4.567   0.310   2.045  0.00  0.00    +0.037 C 
ATOM     14  C   UNL     1       6.428   3.680   2.068  0.00  0.00    +0.008 C 
BRANCH   6  15
ATOM     15  C   UNL     1       2.064  -1.398   1.768  0.00  0.00    +0.102 C 
ATOM     16  N   UNL     1       2.130  -2.530   1.834  0.00  0.00    -0.191 NA
ENDBRANCH   6  15
ENDBRANCH   3   5
BRANCH   1  17
ATOM     17  C   UNL     1      -2.926   0.274   0.937  0.00  0.00    +0.173 C 
BRANCH  17  18
ATOM     18  S   UNL     1      -4.152   1.583   0.692  0.00  0.00    -0.075 S 
BRANCH  18  20
ATOM     19  N   UNL     1      -6.873   1.071   0.303  0.00  0.00    -0.187 N 
ATOM     20  C   UNL     1      -5.609   0.608   0.515  0.00  0.00    +0.214 A 
ATOM     21  N   UNL     1      -5.684  -0.705   0.558  0.00  0.00    -0.101 NA
ATOM     22  N   UNL     1      -6.897  -1.093   0.396  0.00  0.00    -0.022 NA
ATOM     23  N   UNL     1      -7.677  -0.081   0.233  0.00  0.00    -0.038 NA
BRANCH  19  29
ATOM     24  C   UNL     1      -6.804   5.693   1.983  0.00  0.00    +0.044 C 
ATOM     25  C   UNL     1      -7.264   4.666   0.981  0.00  0.00    -0.048 A 
ATOM     26  C   UNL     1      -8.092   5.041  -0.062  0.00  0.00    +0.004 A 
ATOM     27  C   UNL     1      -8.516   4.101  -0.984  0.00  0.00    +0.006 A 
ATOM     28  C   UNL     1      -8.110   2.786  -0.868  0.00  0.00    -0.025 A 
ATOM     29  C   UNL     1      -7.283   2.406   0.180  0.00  0.00    +0.073 A 
ATOM     30  C   UNL     1      -6.859   3.351   1.104  0.00  0.00    +0.031 A 
ATOM     31  C   UNL     1      -8.568   1.764  -1.876  0.00  0.00    +0.046 C 
ENDBRANCH  19  29
ENDBRANCH  18  20
ENDBRANCH  17  18
ENDBRANCH   1  17
TORSDOF 6
