REMARK  Name = ZINC08379464
REMARK  8 active torsions:
REMARK  status: ('A' for Active; 'I' for Inactive)
REMARK    1  A    between atoms: C_1  and  C_2
REMARK    2  A    between atoms: C_5  and  S_8
REMARK    3  A    between atoms: S_8  and  N_11
REMARK    4  A    between atoms: C_17  and  C_19
REMARK    5  A    between atoms: C_20  and  C_29
REMARK    6  A    between atoms: C_21  and  C_26
REMARK    7  A    between atoms: C_22  and  C_25
REMARK    8  A    between atoms: C_26  and  C_28
REMARK                            x       y       z     vdW  Elec       q    Type
REMARK                         _______ _______ _______ _____ _____    ______ ____
ROOT
ATOM      1  N   UNL     1      -0.060   2.173  -2.793  0.00  0.00    -0.174 NA
ATOM      2  C   UNL     1      -0.999   1.231  -3.418  0.00  0.00    +0.128 C 
ATOM      3  C   UNL     1      -2.407   1.512  -2.867  0.00  0.00    +0.125 C 
ATOM      4  N   UNL     1      -2.673   2.954  -2.974  0.00  0.00    -0.294 N 
ATOM      5  C   UNL     1      -1.730   3.896  -2.354  0.00  0.00    +0.125 C 
ATOM      6  C   UNL     1      -0.325   3.614  -2.901  0.00  0.00    +0.128 C 
ATOM      7  C   UNL     1      -3.761   3.404  -3.630  0.00  0.00    +0.263 C 
ATOM      8  O   UNL     1      -3.992   4.598  -3.679  0.00  0.00    -0.268 OA
ENDROOT
BRANCH   7   9
ATOM      9  C   UNL     1      -4.669   2.453  -4.284  0.00  0.00    +0.106 A 
ATOM     10  C   UNL     1      -5.418   2.703  -5.394  0.00  0.00    -0.010 A 
ATOM     11  C   UNL     1      -6.139   1.518  -5.681  0.00  0.00    +0.041 A 
ATOM     12  C   UNL     1      -5.795   0.590  -4.711  0.00  0.00    +0.024 A 
ATOM     13  N   UNL     1      -4.913   1.159  -3.876  0.00  0.00    -0.354 N 
ATOM     14  H   UNL     1      -4.510   0.728  -3.107  0.00  0.00    +0.166 HD
ATOM     15  C   UNL     1      -6.324  -0.818  -4.610  0.00  0.00    +0.064 C 
ATOM     16  C   UNL     1      -5.468   3.993  -6.171  0.00  0.00    +0.047 C 
BRANCH  11  17
ATOM     17  C   UNL     1      -7.076   1.314  -6.791  0.00  0.00    +0.162 C 
ATOM     18  O   UNL     1      -8.261   1.514  -6.629  0.00  0.00    -0.292 OA
ATOM     19  C   UNL     1      -6.566   0.856  -8.133  0.00  0.00    +0.091 C 
ENDBRANCH  11  17
ENDBRANCH   7   9
BRANCH   1  20
ATOM     20  S   UNL     1       1.278   1.620  -1.988  0.00  0.00    +0.061 S 
ATOM     21  O   UNL     1       1.562   0.330  -2.511  0.00  0.00    -0.153 OA
ATOM     22  O   UNL     1       2.228   2.676  -2.007  0.00  0.00    -0.153 OA
BRANCH  20  27
ATOM     23  C   UNL     1      -0.310   0.832   3.780  0.00  0.00    +0.044 C 
ATOM     24  C   UNL     1       0.087   1.028   2.339  0.00  0.00    -0.050 A 
ATOM     25  C   UNL     1      -0.052  -0.009   1.436  0.00  0.00    +0.005 A 
ATOM     26  C   UNL     1       0.312   0.172   0.115  0.00  0.00    +0.029 A 
ATOM     27  C   UNL     1       0.814   1.390  -0.304  0.00  0.00    +0.105 A 
ATOM     28  C   UNL     1       0.958   2.425   0.600  0.00  0.00    +0.029 A 
ATOM     29  C   UNL     1       0.590   2.246   1.921  0.00  0.00    +0.005 A 
ENDBRANCH  20  27
ENDBRANCH   1  20
TORSDOF 4
