REMARK  Name = ZINC16021007
REMARK  5 active torsions:
REMARK  status: ('A' for Active; 'I' for Inactive)
REMARK    1  A    between atoms: C_4  and  C_7
REMARK    2  A    between atoms: C_7  and  C_8
REMARK    3  A    between atoms: C_8  and  N_9
REMARK    4  A    between atoms: C_14  and  C_32
REMARK    5  A    between atoms: C_32  and  C_33
REMARK                            x       y       z     vdW  Elec       q    Type
REMARK                         _______ _______ _______ _____ _____    ______ ____
ROOT
ATOM      1  N   UNL     1       5.450  -1.678   1.382  0.00  0.00    -0.241 N 
ATOM      2  C   UNL     1       5.532  -3.014   1.369  0.00  0.00    +0.227 C 
ATOM      3  O   UNL     1       4.587  -3.774   1.373  0.00  0.00    -0.275 OA
ATOM      4  C   UNL     1       6.985  -3.428   1.347  0.00  0.00    +0.107 C 
ATOM      5  C   UNL     1       7.341  -4.118   2.680  0.00  0.00    +0.076 C 
ATOM      6  N   UNL     1       7.722  -3.009   3.595  0.00  0.00    -0.295 NA
ATOM      7  C   UNL     1       8.469  -2.072   2.735  0.00  0.00    +0.136 C 
ATOM      8  C   UNL     1       7.745  -2.072   1.365  0.00  0.00    +0.122 C 
ATOM      9  C   UNL     1       6.631  -1.049   1.373  0.00  0.00    +0.228 C 
ATOM     10  O   UNL     1       6.784   0.153   1.373  0.00  0.00    -0.275 OA
ATOM     11  C   UNL     1       8.520  -0.696   3.334  0.00  0.00    +0.006 A 
ATOM     12  C   UNL     1       7.554   0.213   3.704  0.00  0.00    +0.046 A 
ATOM     13  C   UNL     1       7.922   1.434   4.246  0.00  0.00    +0.124 A 
ATOM     14  C   UNL     1       9.263   1.736   4.413  0.00  0.00    +0.040 A 
ATOM     15  C   UNL     1      10.232   0.828   4.042  0.00  0.00    +0.026 A 
ATOM     16  C   UNL     1       9.870  -0.401   3.497  0.00  0.00    +0.039 A 
ATOM     17  N   UNL     1      10.655  -1.469   3.051  0.00  0.00    -0.283 N 
ATOM     18  C   UNL     1       9.907  -2.489   2.588  0.00  0.00    +0.243 C 
ATOM     19  O   UNL     1      10.314  -3.540   2.140  0.00  0.00    -0.273 OA
ATOM     20  F   UNL     1       6.975   2.327   4.609  0.00  0.00    -0.205 F 
ATOM     21  H   UNL     1       6.904  -2.566   3.986  0.00  0.00    +0.124 HD
ATOM     22  H   UNL     1      11.624  -1.474   3.072  0.00  0.00    +0.155 HD
ENDROOT
BRANCH   1  23
ATOM     23  C   UNL     1       4.171  -0.963   1.399  0.00  0.00    +0.121 C 
BRANCH  23  24
ATOM     24  C   UNL     1       3.711  -0.707  -0.038  0.00  0.00    +0.054 C 
BRANCH  24  28
ATOM     25  C   UNL     1      -0.017   1.378   0.010  0.00  0.00    +0.000 A 
ATOM     26  C   UNL     1       1.171   2.086   0.002  0.00  0.00    +0.000 A 
ATOM     27  C   UNL     1       2.377   1.411  -0.013  0.00  0.00    +0.004 A 
ATOM     28  C   UNL     1       2.396   0.029  -0.020  0.00  0.00    -0.046 A 
ATOM     29  C   UNL     1       1.208  -0.679  -0.012  0.00  0.00    +0.004 A 
ATOM     30  C   UNL     1       0.002  -0.004   0.002  0.00  0.00    +0.000 A 
ENDBRANCH  24  28
ENDBRANCH  23  24
ENDBRANCH   1  23
BRANCH   5  31
ATOM     31  C   UNL     1       6.127  -4.870   3.230  0.00  0.00    +0.115 C 
BRANCH  31  32
ATOM     32  C   UNL     1       6.528  -5.636   4.465  0.00  0.00    +0.212 C 
ATOM     33  O   UNL     1       7.671  -5.584   4.866  0.00  0.00    -0.276 OA
ATOM     34  N   UNL     1       5.615  -6.377   5.124  0.00  0.00    -0.329 N 
ATOM     35  H   UNL     1       4.701  -6.418   4.803  0.00  0.00    +0.145 HD
ATOM     36  H   UNL     1       5.873  -6.870   5.918  0.00  0.00    +0.145 HD
ENDBRANCH  31  32
ENDBRANCH   5  31
TORSDOF 5
