REMARK  Name = ZINC21955222
REMARK  6 active torsions:
REMARK  status: ('A' for Active; 'I' for Inactive)
REMARK    1  A    between atoms: C_1  and  C_2
REMARK    2  A    between atoms: C_2  and  N_3
REMARK    3  A    between atoms: C_13  and  S_14
REMARK    4  A    between atoms: S_14  and  C_15
REMARK    5  A    between atoms: C_15  and  C_16
REMARK    6  A    between atoms: C_21  and  C_24
REMARK                            x       y       z     vdW  Elec       q    Type
REMARK                         _______ _______ _______ _____ _____    ______ ____
ROOT
ATOM      1  N   UNL     1      -6.491   1.367   0.040  0.00  0.00    -0.288 N 
ATOM      2  C   UNL     1      -7.554   0.531   0.041  0.00  0.00    +0.262 A 
ATOM      3  O   UNL     1      -8.694   0.959   0.049  0.00  0.00    -0.267 OA
ATOM      4  C   UNL     1      -7.283  -0.913   0.032  0.00  0.00    +0.066 A 
ATOM      5  C   UNL     1      -8.311  -1.855   0.031  0.00  0.00    +0.030 A 
ATOM      6  C   UNL     1      -7.999  -3.198   0.022  0.00  0.00    +0.019 A 
ATOM      7  C   UNL     1      -6.673  -3.615   0.013  0.00  0.00    +0.017 A 
ATOM      8  C   UNL     1      -5.651  -2.708   0.013  0.00  0.00    +0.029 A 
ATOM      9  C   UNL     1      -5.936  -1.340   0.023  0.00  0.00    +0.079 A 
ATOM     10  N   UNL     1      -4.951  -0.411   0.018  0.00  0.00    -0.223 NA
ATOM     11  C   UNL     1      -5.218   0.872   0.032  0.00  0.00    +0.173 A 
ATOM     12 BR   UNL     1      -9.386  -4.483   0.021  0.00  0.00    -0.050 Br
ENDROOT
BRANCH   1  14
ATOM     13  C   UNL     1      -6.788   3.329  -1.389  0.00  0.00    +0.027 C 
ATOM     14  C   UNL     1      -6.706   2.816   0.050  0.00  0.00    +0.124 C 
ENDBRANCH   1  14
BRANCH  11  15
ATOM     15  S   UNL     1      -3.874   2.010   0.031  0.00  0.00    -0.078 S 
BRANCH  15  16
ATOM     16  C   UNL     1      -2.482   0.853   0.018  0.00  0.00    +0.173 C 
BRANCH  16  17
ATOM     17  C   UNL     1      -1.187   1.624   0.017  0.00  0.00    +0.229 C 
ATOM     18  O   UNL     1      -1.204   2.836   0.023  0.00  0.00    -0.275 OA
ATOM     19  N   UNL     1      -0.011   0.966   0.007  0.00  0.00    -0.267 N 
ATOM     20  C   UNL     1       1.187   1.680  -0.000  0.00  0.00    +0.168 A 
ATOM     21  C   UNL     1       1.339   3.092   0.006  0.00  0.00    +0.091 A 
ATOM     22  C   UNL     1       2.679   3.276  -0.005  0.00  0.00    +0.136 A 
ATOM     23  O   UNL     1       3.233   2.056  -0.017  0.00  0.00    -0.358 OA
ATOM     24  N   UNL     1       2.397   1.183  -0.009  0.00  0.00    -0.063 NA
ATOM     25  C   UNL     1       3.406   4.596  -0.005  0.00  0.00    +0.089 C 
ATOM     26  H   UNL     1       0.004  -0.134   0.006  0.00  0.00    +0.156 HD
ENDBRANCH  16  17
ENDBRANCH  15  16
ENDBRANCH  11  15
TORSDOF 4
