REMARK  Name = ZINC33168985
REMARK  5 active torsions:
REMARK  status: ('A' for Active; 'I' for Inactive)
REMARK    1  A    between atoms: C_1  and  C_2
REMARK    2  A    between atoms: C_5  and  O_8
REMARK    3  A    between atoms: O_8  and  C_9
REMARK    4  A    between atoms: C_19  and  C_22
REMARK    5  A    between atoms: N_24  and  C_25
REMARK                            x       y       z     vdW  Elec       q    Type
REMARK                         _______ _______ _______ _____ _____    ______ ____
ROOT
ATOM      1  C   UNL     1      -0.910   3.324   1.268  0.00  0.00    +0.261 A 
ATOM      2  C   UNL     1      -0.770   1.945   1.069  0.00  0.00    +0.184 A 
ATOM      3  N   UNL     1      -1.359   1.099   1.901  0.00  0.00    -0.234 NA
ATOM      4  C   UNL     1      -2.081   1.559   2.912  0.00  0.00    +0.133 A 
ATOM      5  C   UNL     1      -2.222   2.917   3.103  0.00  0.00    +0.134 A 
ATOM      6  N   UNL     1      -1.637   3.772   2.277  0.00  0.00    -0.217 NA
ATOM      7  N   UNL     1      -0.011   1.466   0.006  0.00  0.00    -0.310 N 
ATOM      8  C   UNL     1       1.351   2.011   0.044  0.00  0.00    +0.107 C 
ATOM      9  C   UNL     1       2.110   1.581  -1.214  0.00  0.00    +0.020 C 
ATOM     10  C   UNL     1       2.154   0.051  -1.278  0.00  0.00    +0.016 C 
ATOM     11  C   UNL     1       0.723  -0.494  -1.267  0.00  0.00    +0.092 C 
ATOM     12  C   UNL     1       0.005  -0.003  -0.008  0.00  0.00    +0.119 C 
ENDROOT
BRANCH  11  13
ATOM     13  C   UNL     1       0.759  -2.000  -1.271  0.00  0.00    +0.218 C 
ATOM     14  O   UNL     1       0.259  -2.621  -0.357  0.00  0.00    -0.275 OA
ATOM     15  N   UNL     1       1.346  -2.658  -2.291  0.00  0.00    -0.312 N 
ATOM     16  H   UNL     1       1.799  -2.095  -3.120  0.00  0.00    +0.149 HD
BRANCH  15  17
ATOM     17  C   UNL     1       1.380  -4.122  -2.295  0.00  0.00    +0.073 C 
ATOM     18  C   UNL     1       2.583  -4.606  -1.482  0.00  0.00    +0.022 C 
ATOM     19  C   UNL     1       2.619  -6.136  -1.486  0.00  0.00    +0.002 C 
ATOM     20  C   UNL     1       2.740  -6.640  -2.926  0.00  0.00    +0.000 C 
ATOM     21  C   UNL     1       1.537  -6.156  -3.738  0.00  0.00    +0.002 C 
ATOM     22  C   UNL     1       1.501  -4.626  -3.734  0.00  0.00    +0.022 C 
ENDBRANCH  15  17
ENDBRANCH  11  13
BRANCH   1  23
ATOM     23  O   UNL     1      -0.305   4.198   0.423  0.00  0.00    -0.435 OA
BRANCH  23  28
ATOM     24  C   UNL     1      -1.321   9.693   1.131  0.00  0.00    +0.044 C 
ATOM     25  C   UNL     1      -1.050   8.223   0.942  0.00  0.00    -0.050 A 
ATOM     26  C   UNL     1      -0.180   7.566   1.793  0.00  0.00    +0.007 A 
ATOM     27  C   UNL     1       0.071   6.219   1.622  0.00  0.00    +0.046 A 
ATOM     28  C   UNL     1      -0.551   5.524   0.594  0.00  0.00    +0.130 A 
ATOM     29  C   UNL     1      -1.419   6.186  -0.262  0.00  0.00    +0.046 A 
ATOM     30  C   UNL     1      -1.670   7.532  -0.083  0.00  0.00    +0.007 A 
ENDBRANCH  23  28
ENDBRANCH   1  23
TORSDOF 4
