REMARK  Name = ZINC15771338
REMARK  8 active torsions:
REMARK  status: ('A' for Active; 'I' for Inactive)
REMARK    1  A    between atoms: C_1  and  C_2
REMARK    2  A    between atoms: C_2  and  N_3
REMARK    3  A    between atoms: C_4  and  C_28
REMARK    4  A    between atoms: N_5  and  C_22
REMARK    5  A    between atoms: C_6  and  C_16
REMARK    6  A    between atoms: C_8  and  C_9
REMARK    7  A    between atoms: C_8  and  O_15
REMARK    8  A    between atoms: C_33  and  N_34
REMARK                            x       y       z     vdW  Elec       q    Type
REMARK                         _______ _______ _______ _____ _____    ______ ____
ROOT
ATOM      1  N   UNL     1       5.062   0.079   0.781  0.00  0.00    -0.325 N 
ATOM      2  C   UNL     1       5.355   0.678  -0.416  0.00  0.00    +0.114 C 
ATOM      3  N   UNL     1       4.417   0.561  -1.311  0.00  0.00    -0.274 N 
ATOM      4  C   UNL     1       3.288  -0.200  -0.759  0.00  0.00    +0.167 C 
ATOM      5  C   UNL     1       3.728  -0.535   0.680  0.00  0.00    +0.190 C 
ENDROOT
BRANCH   5   6
ATOM      6  C   UNL     1       3.812  -2.026   0.876  0.00  0.00    +0.007 A 
ATOM      7  C   UNL     1       2.681  -2.744   1.217  0.00  0.00    +0.008 A 
ATOM      8  C   UNL     1       2.758  -4.113   1.392  0.00  0.00    +0.000 A 
ATOM      9  C   UNL     1       3.968  -4.763   1.237  0.00  0.00    +0.000 A 
ATOM     10  C   UNL     1       5.100  -4.045   0.901  0.00  0.00    +0.000 A 
ATOM     11  C   UNL     1       5.023  -2.676   0.721  0.00  0.00    +0.008 A 
ENDBRANCH   5   6
BRANCH   4  12
ATOM     12  C   UNL     1       2.039   0.642  -0.748  0.00  0.00    -0.022 A 
ATOM     13  C   UNL     1       0.817   0.071  -1.054  0.00  0.00    +0.005 A 
ATOM     14  C   UNL     1      -0.329   0.844  -1.042  0.00  0.00    +0.000 A 
ATOM     15  C   UNL     1      -0.254   2.187  -0.725  0.00  0.00    +0.000 A 
ATOM     16  C   UNL     1       0.967   2.758  -0.418  0.00  0.00    +0.000 A 
ATOM     17  C   UNL     1       2.114   1.985  -0.430  0.00  0.00    +0.005 A 
ENDBRANCH   4  12
BRANCH   3  18
ATOM     18  C   UNL     1       4.474   1.073  -2.578  0.00  0.00    +0.036 A 
ATOM     19  C   UNL     1       4.657   2.444  -2.774  0.00  0.00    +0.023 A 
ATOM     20  C   UNL     1       4.720   2.952  -4.055  0.00  0.00    +0.002 A 
ATOM     21  C   UNL     1       4.590   2.109  -5.144  0.00  0.00    +0.000 A 
ATOM     22  C   UNL     1       4.403   0.751  -4.958  0.00  0.00    +0.002 A 
ATOM     23  C   UNL     1       4.344   0.228  -3.683  0.00  0.00    +0.023 A 
ENDBRANCH   3  18
BRANCH   2  24
ATOM     24  C   UNL     1       6.624   1.393  -0.668  0.00  0.00    +0.043 A 
ATOM     25  C   UNL     1       6.935   2.545   0.057  0.00  0.00    +0.013 A 
ATOM     26  C   UNL     1       8.124   3.204  -0.180  0.00  0.00    +0.001 A 
ATOM     27  C   UNL     1       9.001   2.732  -1.140  0.00  0.00    +0.002 A 
ATOM     28  C   UNL     1       8.696   1.595  -1.866  0.00  0.00    +0.033 A 
ATOM     29  C   UNL     1       7.513   0.922  -1.635  0.00  0.00    +0.137 A 
BRANCH  29  30
ATOM     30  N   UNL     1       7.188  -0.295  -2.413  0.00  0.00    +0.057 N 
ATOM     31  O   UNL     1       7.902  -0.635  -3.338  0.00  0.00    -0.126 OA
ATOM     32  O   UNL     1       6.205  -0.956  -2.127  0.00  0.00    -0.126 OA
ENDBRANCH  29  30
ENDBRANCH   2  24
BRANCH   1  34
ATOM     33  C   UNL     1       5.541   1.191   2.905  0.00  0.00    +0.027 C 
ATOM     34  C   UNL     1       5.930   0.052   1.961  0.00  0.00    +0.117 C 
ENDBRANCH   1  34
BRANCH   5  35
ATOM     35  O   UNL     1       2.832   0.049   1.628  0.00  0.00    -0.364 OA
ATOM     36  H   UNL     1       1.789  -0.296   1.685  0.00  0.00    +0.213 HD
ENDBRANCH   5  35
TORSDOF 7
