REMARK  Name = ZINC38787299
REMARK  1 active torsions:
REMARK  status: ('A' for Active; 'I' for Inactive)
REMARK    1  A    between atoms: C_5  and  N_7
REMARK                            x       y       z     vdW  Elec       q    Type
REMARK                         _______ _______ _______ _____ _____    ______ ____
ROOT
ATOM      1  N   UNL     1       1.236  -2.079   0.001  0.00  0.00    -0.325 N 
ATOM      2  C   UNL     1       1.230  -2.835   1.262  0.00  0.00    +0.124 C 
ATOM      3  C   UNL     1       0.052  -3.816   1.240  0.00  0.00    +0.125 C 
ATOM      4  N   UNL     1       0.081  -4.556  -0.030  0.00  0.00    -0.313 N 
ATOM      5  C   UNL     1       0.087  -3.800  -1.290  0.00  0.00    +0.125 C 
ATOM      6  C   UNL     1       1.260  -2.819  -1.268  0.00  0.00    +0.124 C 
ATOM      7  C   UNL     1       0.102  -5.905  -0.037  0.00  0.00    +0.133 C 
ATOM      8  N   UNL     1       0.217  -6.593   1.084  0.00  0.00    -0.204 NA
ATOM      9  C   UNL     1       0.125  -7.920   1.142  0.00  0.00    +0.226 C 
ATOM     10  N   UNL     1      -0.402  -8.636   0.158  0.00  0.00    -0.200 NA
ATOM     11  C   UNL     1      -0.647  -8.016  -0.985  0.00  0.00    +0.165 C 
ATOM     12  N   UNL     1      -1.438  -8.242  -1.995  0.00  0.00    -0.218 NA
ATOM     13  C   UNL     1      -1.663  -7.121  -2.693  0.00  0.00    +0.218 C 
ATOM     14  N   UNL     1      -0.891  -6.130  -2.334  0.00  0.00    -0.253 NA
ATOM     15  C   UNL     1      -0.010  -6.673  -1.316  0.00  0.00    +0.237 C 
ATOM     16 CL   UNL     1       0.713  -8.741   2.554  0.00  0.00    -0.041 Cl
ENDROOT
BRANCH   1  21
ATOM     17  C   UNL     1      -0.017   1.377   0.009  0.00  0.00    +0.002 A 
ATOM     18  C   UNL     1       1.170   2.087   0.025  0.00  0.00    +0.003 A 
ATOM     19  C   UNL     1       2.380   1.418   0.032  0.00  0.00    +0.040 A 
ATOM     20  C   UNL     1       2.406   0.035   0.025  0.00  0.00    +0.144 A 
ATOM     21  C   UNL     1       1.214  -0.681   0.009  0.00  0.00    +0.065 A 
ATOM     22  C   UNL     1       0.002  -0.004   0.002  0.00  0.00    +0.026 A 
ATOM     23  F   UNL     1       3.588  -0.619   0.032  0.00  0.00    -0.204 F 
ENDBRANCH   1  21
TORSDOF 1
