REMARK  Name = ZINC00291017
REMARK  3 active torsions:
REMARK  status: ('A' for Active; 'I' for Inactive)
REMARK    1  A    between atoms: C_9  and  C_12
REMARK    2  A    between atoms: N_14  and  N_15
REMARK    3  A    between atoms: C_16  and  C_17
REMARK                            x       y       z     vdW  Elec       q    Type
REMARK                         _______ _______ _______ _____ _____    ______ ____
ROOT
ATOM      1  C   UNL     1      -1.209   7.309   0.082  0.00  0.00    +0.276 C 
ATOM      2  O   UNL     1      -0.244   7.734   0.681  0.00  0.00    -0.270 OA
ATOM      3  N   UNL     1      -2.228   8.135  -0.228  0.00  0.00    -0.204 N 
ATOM      4  H   UNL     1      -3.000   7.795  -0.707  0.00  0.00    +0.177 HD
ENDROOT
BRANCH   1  13
ATOM      5  C   UNL     1      -0.013   1.076   0.008  0.00  0.00    +0.004 A 
ATOM      6  C   UNL     1       1.176   1.782   0.000  0.00  0.00    +0.004 A 
ATOM      7  C   UNL     1       1.161   3.164   0.009  0.00  0.00    +0.049 A 
ATOM      8  C   UNL     1      -0.046   3.846   0.026  0.00  0.00    +0.163 A 
ATOM      9  C   UNL     1      -1.241   3.136   0.031  0.00  0.00    +0.162 A 
ATOM     10  C   UNL     1      -1.219   1.749   0.017  0.00  0.00    +0.049 A 
ATOM     11  O   UNL     1      -2.437   3.785   0.043  0.00  0.00    -0.484 OA
ATOM     12  C   UNL     1      -2.417   5.163   0.432  0.00  0.00    +0.283 C 
ATOM     13  C   UNL     1      -1.270   5.856  -0.315  0.00  0.00    +0.297 C 
ATOM     14  O   UNL     1      -0.045   5.207   0.043  0.00  0.00    -0.472 OA
ENDBRANCH   1  13
BRANCH   3  15
ATOM     15  N   UNL     1      -2.172   9.486   0.141  0.00  0.00    -0.188 NA
ATOM     16  C   UNL     1      -3.152  10.281  -0.158  0.00  0.00    +0.138 C 
BRANCH  16  17
ATOM     17  C   UNL     1      -3.094  11.703   0.231  0.00  0.00    -0.005 A 
ATOM     18  C   UNL     1      -1.986  12.194   0.926  0.00  0.00    +0.012 A 
ATOM     19  C   UNL     1      -1.933  13.525   1.281  0.00  0.00    +0.039 A 
ATOM     20  C   UNL     1      -2.982  14.373   0.961  0.00  0.00    +0.123 A 
ATOM     21  C   UNL     1      -4.087  13.889   0.277  0.00  0.00    +0.039 A 
ATOM     22  C   UNL     1      -4.148  12.561  -0.089  0.00  0.00    +0.012 A 
ATOM     23  F   UNL     1      -2.928  15.675   1.316  0.00  0.00    -0.205 F 
ENDBRANCH  16  17
ENDBRANCH   3  15
TORSDOF 3
