REMARK  Name = ZINC06829112
REMARK  5 active torsions:
REMARK  status: ('A' for Active; 'I' for Inactive)
REMARK    1  A    between atoms: C_3  and  N_19
REMARK    2  A    between atoms: C_6  and  N_7
REMARK    3  A    between atoms: C_8  and  C_10
REMARK    4  A    between atoms: C_10  and  C_17
REMARK    5  A    between atoms: C_11  and  C_12
REMARK                            x       y       z     vdW  Elec       q    Type
REMARK                         _______ _______ _______ _____ _____    ______ ____
ROOT
ATOM      1  N   UNL     1       1.244  -2.056  -0.204  0.00  0.00    -0.281 N 
ATOM      2  C   UNL     1       2.416  -2.720  -0.260  0.00  0.00    +0.259 C 
ATOM      3  O   UNL     1       3.465  -2.103  -0.264  0.00  0.00    -0.269 OA
ATOM      4  H   UNL     1       0.412  -2.547  -0.123  0.00  0.00    +0.155 HD
ENDROOT
BRANCH   1  10
ATOM      5  C   UNL     1       2.176   0.017  -1.022  0.00  0.00    +0.025 A 
ATOM      6  C   UNL     1       2.157   1.397  -1.077  0.00  0.00    +0.034 A 
ATOM      7  C   UNL     1       1.198   2.106  -0.378  0.00  0.00    +0.126 A 
ATOM      8  C   UNL     1       0.254   1.436   0.380  0.00  0.00    +0.034 A 
ATOM      9  C   UNL     1       0.267   0.057   0.439  0.00  0.00    +0.025 A 
ATOM     10  C   UNL     1       1.229  -0.659  -0.262  0.00  0.00    +0.034 A 
BRANCH   7  11
ATOM     11  N   UNL     1       1.182   3.585  -0.439  0.00  0.00    +0.056 N 
ATOM     12  O   UNL     1       2.013   4.176  -1.105  0.00  0.00    -0.126 OA
ATOM     13  O   UNL     1       0.338   4.210   0.177  0.00  0.00    -0.126 OA
ENDBRANCH   7  11
ENDBRANCH   1  10
BRANCH   2  14
ATOM     14  C   UNL     1       2.426  -4.188  -0.317  0.00  0.00    +0.114 C 
ATOM     15  C   UNL     1       3.627  -4.868  -0.374  0.00  0.00    +0.032 C 
BRANCH  15  16
ATOM     16  C   UNL     1       3.638  -6.268  -0.595  0.00  0.00    -0.017 A 
ATOM     17  C   UNL     1       4.767  -7.085  -0.215  0.00  0.00    +0.015 A 
ATOM     18  C   UNL     1       4.680  -8.405  -0.462  0.00  0.00    +0.046 A 
ATOM     19  S   UNL     1       3.079  -8.573  -1.223  0.00  0.00    -0.104 S 
ATOM     20  C   UNL     1       2.568  -6.919  -1.190  0.00  0.00    +0.053 A 
ENDBRANCH  15  16
BRANCH  14  21
ATOM     21  C   UNL     1       1.192  -4.913  -0.313  0.00  0.00    +0.104 C 
ATOM     22  N   UNL     1       0.212  -5.488  -0.310  0.00  0.00    -0.191 NA
ENDBRANCH  14  21
ENDBRANCH   2  14
TORSDOF 5
