REMARK  Name = ZINC12611781
REMARK  10 active torsions:
REMARK  status: ('A' for Active; 'I' for Inactive)
REMARK    1  A    between atoms: C_1  and  C_2
REMARK    2  A    between atoms: C_2  and  N_3
REMARK    3  A    between atoms: N_3  and  C_4
REMARK    4  A    between atoms: N_3  and  S_16
REMARK    5  A    between atoms: C_4  and  C_5
REMARK    6  A    between atoms: N_7  and  C_8
REMARK    7  A    between atoms: C_8  and  C_9
REMARK    8  A    between atoms: S_16  and  C_19
REMARK    9  A    between atoms: C_22  and  S_25
REMARK   10  A    between atoms: S_25  and  N_28
REMARK                            x       y       z     vdW  Elec       q    Type
REMARK                         _______ _______ _______ _____ _____    ______ ____
ROOT
ATOM      1  S   UNL     1      -0.125  -0.826  -1.430  0.00  0.00    +0.061 S 
ATOM      2  O   UNL     1      -0.630  -2.116  -1.114  0.00  0.00    -0.153 OA
ATOM      3  O   UNL     1      -0.780   0.046  -2.342  0.00  0.00    -0.153 OA
ENDROOT
BRANCH   1   4
ATOM      4  C   UNL     1       1.510  -1.061  -2.043  0.00  0.00    +0.106 A 
ATOM      5  C   UNL     1       2.077  -0.117  -2.878  0.00  0.00    +0.030 A 
ATOM      6  C   UNL     1       3.362  -0.299  -3.356  0.00  0.00    +0.030 A 
ATOM      7  C   UNL     1       4.075  -1.430  -3.005  0.00  0.00    +0.106 A 
ATOM      8  C   UNL     1       3.506  -2.377  -2.174  0.00  0.00    +0.030 A 
ATOM      9  C   UNL     1       2.223  -2.192  -1.693  0.00  0.00    +0.030 A 
BRANCH   7  10
ATOM     10  S   UNL     1       5.711  -1.664  -3.617  0.00  0.00    +0.061 S 
ATOM     11  O   UNL     1       6.215  -0.374  -3.934  0.00  0.00    -0.153 OA
ATOM     12  O   UNL     1       6.365  -2.535  -2.705  0.00  0.00    -0.153 OA
BRANCH  10  13
ATOM     13  N   UNL     1       5.585  -2.487  -5.049  0.00  0.00    -0.172 NA
ATOM     14  C   UNL     1       5.609  -3.958  -5.082  0.00  0.00    +0.137 C 
ATOM     15  C   UNL     1       4.403  -4.439  -5.904  0.00  0.00    +0.177 C 
ATOM     16  O   UNL     1       4.405  -3.776  -7.171  0.00  0.00    -0.377 OA
ATOM     17  C   UNL     1       4.258  -2.357  -7.089  0.00  0.00    +0.177 C 
ATOM     18  C   UNL     1       5.451  -1.769  -6.326  0.00  0.00    +0.137 C 
ENDBRANCH  10  13
ENDBRANCH   7  10
ENDBRANCH   1   4
BRANCH   1  19
ATOM     19  N   UNL     1       0.002  -0.004   0.002  0.00  0.00    -0.168 NA
BRANCH  19  21
ATOM     20  C   UNL     1      -1.245  -0.910   1.901  0.00  0.00    +0.022 C 
ATOM     21  C   UNL     1       0.135  -0.742   1.261  0.00  0.00    +0.106 C 
ENDBRANCH  19  21
BRANCH  19  22
ATOM     22  C   UNL     1      -0.018   1.461   0.010  0.00  0.00    +0.205 C 
BRANCH  22  23
ATOM     23  C   UNL     1       1.396   1.982  -0.001  0.00  0.00    +0.229 C 
ATOM     24  O   UNL     1       2.328   1.207  -0.014  0.00  0.00    -0.274 OA
ATOM     25  N   UNL     1       1.624   3.311   0.004  0.00  0.00    -0.310 N 
ATOM     26  H   UNL     1       0.879   3.931   0.015  0.00  0.00    +0.149 HD
BRANCH  25  27
ATOM     27  C   UNL     1       2.999   3.818  -0.006  0.00  0.00    +0.139 C 
BRANCH  27  28
ATOM     28  C   UNL     1       2.978   5.325   0.002  0.00  0.00    -0.030 A 
ATOM     29  C   UNL     1       2.963   6.022  -1.191  0.00  0.00    +0.006 A 
ATOM     30  C   UNL     1       2.939   7.404  -1.184  0.00  0.00    +0.020 A 
ATOM     31  C   UNL     1       2.941   8.089   0.017  0.00  0.00    +0.041 A 
ATOM     32  C   UNL     1       2.962   7.391   1.212  0.00  0.00    +0.020 A 
ATOM     33  C   UNL     1       2.980   6.009   1.203  0.00  0.00    +0.006 A 
ATOM     34 CL   UNL     1       2.917   9.825   0.027  0.00  0.00    -0.084 Cl
ENDBRANCH  27  28
ENDBRANCH  25  27
ENDBRANCH  22  23
ENDBRANCH  19  22
ENDBRANCH   1  19
TORSDOF 9
