REMARK  Name = ZINC02724993
REMARK  7 active torsions:
REMARK  status: ('A' for Active; 'I' for Inactive)
REMARK    1  A    between atoms: C_1  and  C_2
REMARK    2  A    between atoms: C_2  and  C_3
REMARK    3  A    between atoms: C_2  and  C_4
REMARK    4  A    between atoms: C_2  and  N_5
REMARK    5  A    between atoms: C_6  and  N_14
REMARK    6  A    between atoms: C_15  and  C_17
REMARK    7  A    between atoms: C_21  and  N_23
REMARK                            x       y       z     vdW  Elec       q    Type
REMARK                         _______ _______ _______ _____ _____    ______ ____
ROOT
ATOM      1  N   UNL     1      -0.236   8.220  -0.133  0.00  0.00    -0.245 N 
ATOM      2  C   UNL     1      -1.303   7.395  -0.020  0.00  0.00    +0.128 A 
ATOM      3  C   UNL     1      -2.435   8.178   0.000  0.00  0.00    +0.028 A 
ATOM      4  C   UNL     1      -2.037   9.499  -0.108  0.00  0.00    +0.081 A 
ATOM      5  N   UNL     1      -0.715   9.529  -0.192  0.00  0.00    -0.173 NA
ATOM      6  C   UNL     1      -3.144  10.552  -0.106  0.00  0.00    +0.161 C 
ATOM      7  S   UNL     1      -4.638   9.529  -0.433  0.00  0.00    +0.033 S 
ATOM      8  O   UNL     1      -5.679   9.915   0.453  0.00  0.00    -0.257 OA
ATOM      9  C   UNL     1      -3.936   7.917   0.110  0.00  0.00    +0.144 C 
ENDROOT
BRANCH   1  11
ATOM     10  C   UNL     1       1.422   7.015  -1.468  0.00  0.00    +0.036 C 
ATOM     11  C   UNL     1       1.170   7.811  -0.186  0.00  0.00    +0.057 C 
ATOM     12  C   UNL     1       2.063   9.054  -0.173  0.00  0.00    +0.036 C 
ATOM     13  C   UNL     1       1.493   6.938   1.028  0.00  0.00    +0.036 C 
ENDBRANCH   1  11
BRANCH   2  14
ATOM     14  N   UNL     1      -1.262   6.004   0.065  0.00  0.00    -0.266 N 
ATOM     15  C   UNL     1      -2.244   5.339   0.706  0.00  0.00    +0.249 C 
ATOM     16  O   UNL     1      -3.105   5.955   1.304  0.00  0.00    -0.270 OA
ATOM     17  H   UNL     1      -0.528   5.515  -0.337  0.00  0.00    +0.157 HD
BRANCH  15  18
ATOM     18  C   UNL     1      -2.273   3.862   0.683  0.00  0.00    +0.039 A 
ATOM     19  C   UNL     1      -1.286   3.152  -0.002  0.00  0.00    +0.013 A 
ATOM     20  C   UNL     1      -1.316   1.773  -0.016  0.00  0.00    +0.003 A 
ATOM     21  C   UNL     1      -2.329   1.093   0.639  0.00  0.00    +0.033 A 
ATOM     22  C   UNL     1      -3.310   1.791   1.320  0.00  0.00    +0.127 A 
ATOM     23  C   UNL     1      -3.288   3.170   1.346  0.00  0.00    +0.045 A 
BRANCH  22  24
ATOM     24  N   UNL     1      -4.385   1.056   2.023  0.00  0.00    +0.056 N 
ATOM     25  O   UNL     1      -4.406  -0.162   2.001  0.00  0.00    -0.126 OA
ATOM     26  O   UNL     1      -5.250   1.669   2.623  0.00  0.00    -0.126 OA
ENDBRANCH  22  24
ENDBRANCH  15  18
ENDBRANCH   2  14
TORSDOF 4
