REMARK  Name = ZINC36865632
REMARK  1 active torsions:
REMARK  status: ('A' for Active; 'I' for Inactive)
REMARK    1  A    between atoms: N_17  and  C_18
REMARK                            x       y       z     vdW  Elec       q    Type
REMARK                         _______ _______ _______ _____ _____    ______ ____
ROOT
ATOM      1  C   UNL     1      -0.001   1.729   0.021  0.00  0.00    +0.000 C 
ATOM      2  C   UNL     1       1.456   2.193   0.004  0.00  0.00    +0.002 C 
ATOM      3  C   UNL     1       2.192   1.642   1.229  0.00  0.00    +0.023 C 
ATOM      4  C   UNL     1       2.133   0.116   1.201  0.00  0.00    +0.079 C 
ATOM      5  C   UNL     1       0.668  -0.330   1.254  0.00  0.00    +0.010 C 
ATOM      6  C   UNL     1      -0.060   0.199   0.018  0.00  0.00    +0.005 C 
ATOM      7  C   UNL     1       0.609  -1.856   1.295  0.00  0.00    +0.007 C 
ATOM      8  C   UNL     1       1.306  -2.352   2.566  0.00  0.00    +0.019 C 
ATOM      9  C   UNL     1       2.772  -1.911   2.557  0.00  0.00    +0.108 C 
ATOM     10  N   UNL     1       2.837  -0.449   2.357  0.00  0.00    -0.296 N 
ATOM     11  C   UNL     1       3.543   0.366   3.229  0.00  0.00    +0.219 A 
ATOM     12  N   UNL     1       4.243   1.411   2.892  0.00  0.00    -0.137 NA
ATOM     13  N   UNL     1       4.798   1.956   4.058  0.00  0.00    -0.253 N 
ATOM     14  C   UNL     1       4.395   1.188   5.093  0.00  0.00    +0.177 A 
ATOM     15  N   UNL     1       3.616   0.209   4.593  0.00  0.00    -0.288 N 
ATOM     16  S   UNL     1       4.796   1.421   6.741  0.00  0.00    -0.011 S 
ATOM     17  H   UNL     1       5.367   2.740   4.112  0.00  0.00    +0.191 HD
ENDROOT
BRANCH  15  18
ATOM     18  C   UNL     1       2.961  -0.846   5.371  0.00  0.00    +0.093 C 
ATOM     19  C   UNL     1       2.848  -0.643   6.883  0.00  0.00    +0.027 C 
ATOM     20  C   UNL     1       3.833  -1.669   6.321  0.00  0.00    +0.027 C 
ENDBRANCH  15  18
TORSDOF 1
