REMARK  Name = ZINC04393292
REMARK  8 active torsions:
REMARK  status: ('A' for Active; 'I' for Inactive)
REMARK    1  A    between atoms: C_1  and  C_2
REMARK    2  A    between atoms: C_4  and  C_32
REMARK    3  A    between atoms: C_6  and  N_8
REMARK    4  A    between atoms: C_9  and  C_11
REMARK    5  A    between atoms: C_23  and  C_25
REMARK    6  A    between atoms: C_23  and  C_26
REMARK    7  A    between atoms: C_28  and  C_30
REMARK    8  A    between atoms: C_28  and  C_31
REMARK                            x       y       z     vdW  Elec       q    Type
REMARK                         _______ _______ _______ _____ _____    ______ ____
ROOT
ATOM      1  C   UNL     1      -1.098  -0.569  -0.450  0.00  0.00    +0.238 C 
ATOM      2  C   UNL     1       0.064   0.065   0.277  0.00  0.00    +0.191 C 
ATOM      3  C   UNL     1       1.436  -0.171  -0.403  0.00  0.00    +0.187 C 
ATOM      4  C   UNL     1       1.268   0.086  -1.890  0.00  0.00    +0.209 C 
ATOM      5  C   UNL     1       0.155  -0.864  -2.410  0.00  0.00    +0.286 C 
ATOM      6  O   UNL     1      -1.061  -0.374  -1.871  0.00  0.00    -0.333 OA
ATOM      7  O   UNL     1       0.342  -0.734  -3.821  0.00  0.00    -0.318 OA
ATOM      8  C   UNL     1       1.784  -0.718  -3.968  0.00  0.00    +0.168 C 
ATOM      9  O   UNL     1       2.366  -0.256  -2.728  0.00  0.00    -0.338 OA
ATOM     10  C   UNL     1       2.286  -2.130  -4.278  0.00  0.00    +0.074 C 
ATOM     11  C   UNL     1       2.176   0.229  -5.104  0.00  0.00    +0.074 C 
ATOM     12  O   UNL     1       2.232   0.909   0.144  0.00  0.00    -0.341 OA
ATOM     13  C   UNL     1       1.323   1.939   0.556  0.00  0.00    +0.166 C 
ATOM     14  O   UNL     1      -0.024   1.502   0.294  0.00  0.00    -0.340 OA
ATOM     15  C   UNL     1       1.609   3.221  -0.228  0.00  0.00    +0.074 C 
ATOM     16  C   UNL     1       1.494   2.206   2.053  0.00  0.00    +0.074 C 
ENDROOT
BRANCH   1  18
ATOM     17  N   UNL     1      -1.196  -2.494   1.101  0.00  0.00    -0.283 N 
ATOM     18  C   UNL     1      -1.094  -2.049  -0.168  0.00  0.00    +0.249 C 
ATOM     19  O   UNL     1      -1.000  -2.840  -1.082  0.00  0.00    -0.273 OA
ATOM     20  H   UNL     1      -1.337  -1.865   1.825  0.00  0.00    +0.155 HD
BRANCH  17  26
ATOM     21  C   UNL     1       0.290  -6.124   4.064  0.00  0.00    +0.044 C 
ATOM     22  C   UNL     1      -0.381  -5.650   2.801  0.00  0.00    -0.048 A 
ATOM     23  C   UNL     1      -0.901  -6.570   1.909  0.00  0.00    +0.006 A 
ATOM     24  C   UNL     1      -1.518  -6.139   0.749  0.00  0.00    -0.048 A 
ATOM     25  C   UNL     1      -1.618  -4.789   0.478  0.00  0.00    +0.026 A 
ATOM     26  C   UNL     1      -1.097  -3.863   1.372  0.00  0.00    +0.034 A 
ATOM     27  C   UNL     1      -0.471  -4.298   2.533  0.00  0.00    +0.026 A 
ATOM     28  C   UNL     1      -2.084  -7.145  -0.221  0.00  0.00    +0.044 C 
ENDBRANCH  17  26
ENDBRANCH   1  18
TORSDOF 2
