REMARK  Name = ZINC57490722
REMARK  7 active torsions:
REMARK  status: ('A' for Active; 'I' for Inactive)
REMARK    1  A    between atoms: C_1  and  C_2
REMARK    2  A    between atoms: C_2  and  C_3
REMARK    3  A    between atoms: C_10  and  C_12
REMARK    4  A    between atoms: C_12  and  N_13
REMARK    5  A    between atoms: N_21  and  C_24
REMARK    6  A    between atoms: C_29  and  O_30
REMARK    7  A    between atoms: O_30  and  C_31
REMARK                            x       y       z     vdW  Elec       q    Type
REMARK                         _______ _______ _______ _____ _____    ______ ____
ROOT
ATOM      1  N   UNL     1       4.349   1.772   1.036  0.00  0.00    -0.284 N 
ATOM      2  C   UNL     1       4.221   3.159   0.878  0.00  0.00    +0.066 A 
ATOM      3  C   UNL     1       3.872   3.904  -0.244  0.00  0.00    +0.034 A 
ATOM      4  C   UNL     1       3.811   5.252  -0.161  0.00  0.00    +0.048 A 
ATOM      5  S   UNL     1       4.221   5.591   1.434  0.00  0.00    -0.090 S 
ATOM      6  C   UNL     1       4.478   3.936   2.011  0.00  0.00    +0.101 A 
ATOM      7  C   UNL     1       4.843   3.351   3.228  0.00  0.00    +0.276 A 
ATOM      8  O   UNL     1       5.064   4.044   4.205  0.00  0.00    -0.266 OA
ATOM      9  N   UNL     1       4.947   2.005   3.303  0.00  0.00    -0.224 N 
ATOM     10  C   UNL     1       4.695   1.247   2.222  0.00  0.00    +0.337 A 
ATOM     11  O   UNL     1       4.791   0.039   2.320  0.00  0.00    -0.246 OA
ENDROOT
BRANCH   9  12
ATOM     12  C   UNL     1       5.312   1.398   4.513  0.00  0.00    +0.096 A 
ATOM     13  C   UNL     1       4.336   1.020   5.424  0.00  0.00    +0.030 A 
ATOM     14  C   UNL     1       4.698   0.421   6.615  0.00  0.00    +0.002 A 
ATOM     15  C   UNL     1       6.032   0.198   6.904  0.00  0.00    +0.004 A 
ATOM     16  C   UNL     1       7.010   0.572   6.002  0.00  0.00    +0.048 A 
ATOM     17  C   UNL     1       6.655   1.167   4.802  0.00  0.00    +0.144 A 
BRANCH  17  18
ATOM     18  O   UNL     1       7.615   1.531   3.911  0.00  0.00    -0.493 OA
ATOM     19  C   UNL     1       8.971   1.264   4.274  0.00  0.00    +0.277 C 
ENDBRANCH  17  18
ENDBRANCH   9  12
BRANCH   1  20
ATOM     20  C   UNL     1       4.096   0.886  -0.103  0.00  0.00    +0.222 C 
BRANCH  20  27
ATOM     21  C   UNL     1       0.735  -0.599  -1.203  0.00  0.00    +0.076 C 
ATOM     22  C   UNL     1       0.532  -2.118  -1.211  0.00  0.00    +0.022 C 
ATOM     23  C   UNL     1       1.382  -2.736  -2.323  0.00  0.00    +0.003 C 
ATOM     24  C   UNL     1       2.862  -2.448  -2.057  0.00  0.00    +0.019 C 
ATOM     25  C   UNL     1       3.091  -0.934  -2.058  0.00  0.00    +0.108 C 
ATOM     26  N   UNL     1       2.172  -0.312  -1.095  0.00  0.00    -0.297 N 
ATOM     27  C   UNL     1       2.638   0.503  -0.128  0.00  0.00    +0.236 C 
ATOM     28  O   UNL     1       1.885   0.928   0.722  0.00  0.00    -0.274 OA
BRANCH  21  30
ATOM     29  C   UNL     1      -1.497  -0.289  -0.125  0.00  0.00    +0.006 C 
ATOM     30  C   UNL     1      -0.001   0.011  -0.009  0.00  0.00    +0.019 C 
ENDBRANCH  21  30
ENDBRANCH  20  27
ENDBRANCH   1  20
TORSDOF 5
