REMARK  Name = ZINC63525542
REMARK  4 active torsions:
REMARK  status: ('A' for Active; 'I' for Inactive)
REMARK    1  A    between atoms: C_1  and  C_2
REMARK    2  A    between atoms: C_5  and  C_9
REMARK    3  A    between atoms: C_6  and  C_8
REMARK    4  A    between atoms: C_12  and  C_22
REMARK                            x       y       z     vdW  Elec       q    Type
REMARK                         _______ _______ _______ _____ _____    ______ ____
ROOT
ATOM      1  C   UNL     1       0.551  -4.502   0.460  0.00  0.00    +0.108 C 
ATOM      2  C   UNL     1       2.058  -4.604   0.332  0.00  0.00    +0.014 C 
ATOM      3  C   UNL     1       3.010  -3.795   0.756  0.00  0.00    +0.064 C 
ATOM      4  N   UNL     1       4.229  -4.327   0.486  0.00  0.00    -0.157 NA
ATOM      5  N   UNL     1       4.194  -5.415  -0.104  0.00  0.00    -0.160 NA
ATOM      6  C   UNL     1       2.784  -5.744  -0.346  0.00  0.00    +0.244 C 
ATOM      7  N   UNL     1       2.383  -6.979   0.306  0.00  0.00    -0.288 N 
ATOM      8  C   UNL     1       1.188  -7.522   0.218  0.00  0.00    +0.225 C 
ATOM      9  O   UNL     1       1.040  -8.518   0.895  0.00  0.00    -0.275 OA
ATOM     10  C   UNL     1       0.008  -7.137  -0.552  0.00  0.00    +0.165 C 
ATOM     11  S   UNL     1      -0.171  -5.389  -0.963  0.00  0.00    -0.139 S 
ATOM     12  C   UNL     1       2.777  -2.473   1.441  0.00  0.00    +0.067 C 
ATOM     13  H   UNL     1       3.046  -7.438   0.846  0.00  0.00    +0.151 HD
ENDROOT
BRANCH   1  18
ATOM     14  C   UNL     1      -1.070   1.043   0.353  0.00  0.00    +0.044 C 
ATOM     15  C   UNL     1      -0.647  -0.403   0.381  0.00  0.00    -0.050 A 
ATOM     16  C   UNL     1      -0.407  -1.076  -0.803  0.00  0.00    +0.004 A 
ATOM     17  C   UNL     1      -0.020  -2.402  -0.777  0.00  0.00    +0.005 A 
ATOM     18  C   UNL     1       0.129  -3.056   0.432  0.00  0.00    -0.027 A 
ATOM     19  C   UNL     1      -0.110  -2.383   1.615  0.00  0.00    -0.046 A 
ATOM     20  C   UNL     1      -0.494  -1.055   1.590  0.00  0.00    +0.007 A 
ATOM     21  C   UNL     1       0.051  -3.095   2.933  0.00  0.00    +0.044 C 
ENDBRANCH   1  18
TORSDOF 1
