REMARK  Name = ZINC41598538
REMARK  2 active torsions:
REMARK  status: ('A' for Active; 'I' for Inactive)
REMARK    1  A    between atoms: C_1  and  C_2
REMARK    2  A    between atoms: C_2  and  C_9
REMARK                            x       y       z     vdW  Elec       q    Type
REMARK                         _______ _______ _______ _____ _____    ______ ____
ROOT
ATOM      1  C   UNL     1      -0.019   1.526   0.010  0.00  0.00    +0.071 C 
ATOM      2  C   UNL     1       0.002  -0.004   0.002  0.00  0.00    +0.213 C 
ATOM      3  C   UNL     1       0.805  -0.518  -1.176  0.00  0.00    +0.270 C 
ATOM      4  O   UNL     1       0.578  -0.337  -2.353  0.00  0.00    -0.271 OA
ATOM      5  N   UNL     1       1.826  -1.217  -0.639  0.00  0.00    -0.218 N 
ATOM      6  C   UNL     1       1.760  -1.203   0.698  0.00  0.00    +0.408 C 
ATOM      7  O   UNL     1       2.562  -1.759   1.421  0.00  0.00    -0.226 OA
ATOM      8  O   UNL     1       0.706  -0.504   1.149  0.00  0.00    -0.429 OA
ATOM      9  H   UNL     1       2.514  -1.669  -1.153  0.00  0.00    +0.161 HD
ENDROOT
BRANCH   2  10
ATOM     10  C   UNL     1      -1.402  -0.550  -0.034  0.00  0.00    +0.006 A 
ATOM     11  C   UNL     1      -2.010  -0.812  -1.248  0.00  0.00    +0.009 A 
ATOM     12  C   UNL     1      -3.298  -1.312  -1.283  0.00  0.00    +0.022 A 
ATOM     13  C   UNL     1      -3.980  -1.550  -0.103  0.00  0.00    +0.059 A 
ATOM     14  C   UNL     1      -3.371  -1.288   1.113  0.00  0.00    +0.060 A 
ATOM     15  C   UNL     1      -2.079  -0.793   1.146  0.00  0.00    +0.029 A 
ATOM     16 CL   UNL     1      -4.224  -1.587   2.594  0.00  0.00    -0.082 Cl
ATOM     17 CL   UNL     1      -5.598  -2.178  -0.146  0.00  0.00    -0.082 Cl
ENDBRANCH   2  10
TORSDOF 1
