REMARK  Name = ZINC55240552
REMARK  7 active torsions:
REMARK  status: ('A' for Active; 'I' for Inactive)
REMARK    1  A    between atoms: C_1  and  C_2
REMARK    2  A    between atoms: N_7  and  C_9
REMARK    3  A    between atoms: C_9  and  C_11
REMARK    4  A    between atoms: C_9  and  C_12
REMARK    5  A    between atoms: C_12  and  N_13
REMARK    6  A    between atoms: N_13  and  S_14
REMARK    7  A    between atoms: S_14  and  C_17
REMARK                            x       y       z     vdW  Elec       q    Type
REMARK                         _______ _______ _______ _____ _____    ______ ____
ROOT
ATOM      1  S   UNL     1       2.268  -6.196   1.277  0.00  0.00    +0.061 S 
ATOM      2  O   UNL     1       2.906  -6.443   0.031  0.00  0.00    -0.153 OA
ATOM      3  O   UNL     1       2.851  -6.569   2.518  0.00  0.00    -0.153 OA
ENDROOT
BRANCH   1   4
ATOM      4  C   UNL     1       0.694  -6.985   1.202  0.00  0.00    +0.141 A 
ATOM      5  C   UNL     1       0.332  -7.696   0.072  0.00  0.00    +0.037 A 
ATOM      6  C   UNL     1      -0.900  -8.316   0.011  0.00  0.00    -0.024 A 
ATOM      7  C   UNL     1      -1.778  -8.225   1.084  0.00  0.00    +0.039 A 
ATOM      8  C   UNL     1      -1.413  -7.511   2.217  0.00  0.00    +0.064 A 
ATOM      9  C   UNL     1      -0.175  -6.897   2.276  0.00  0.00    +0.151 A 
ATOM     10  F   UNL     1       0.184  -6.206   3.380  0.00  0.00    -0.203 F 
ATOM     11  N   UNL     1      -3.025  -8.854   1.021  0.00  0.00    -0.285 N 
ATOM     12  C   UNL     1      -3.250  -9.834   0.126  0.00  0.00    +0.218 C 
ATOM     13  O   UNL     1      -4.342 -10.359   0.074  0.00  0.00    -0.275 OA
ATOM     14  C   UNL     1      -2.163 -10.285  -0.812  0.00  0.00    +0.101 C 
ATOM     15  C   UNL     1      -1.297  -9.091  -1.218  0.00  0.00    +0.046 C 
ATOM     16  H   UNL     1      -3.732  -8.583   1.626  0.00  0.00    +0.155 HD
ENDBRANCH   1   4
BRANCH   1  17
ATOM     17  N   UNL     1       1.995  -4.565   1.353  0.00  0.00    -0.191 NA
ATOM     18  H   UNL     1       2.282  -3.990   0.626  0.00  0.00    +0.148 HD
BRANCH  17  19
ATOM     19  C   UNL     1       1.320  -3.989   2.519  0.00  0.00    +0.090 C 
BRANCH  19  20
ATOM     20  C   UNL     1       1.559  -2.478   2.553  0.00  0.00    -0.056 C 
ATOM     21  C   UNL     1       0.775  -1.863   3.714  0.00  0.00    -0.012 C 
BRANCH  20  27
ATOM     22  C   UNL     1      -2.326  -1.653  -0.309  0.00  0.00    +0.005 C 
ATOM     23  C   UNL     1      -0.809  -1.492  -0.186  0.00  0.00    -0.031 C 
ATOM     24  C   UNL     1      -0.442  -0.008  -0.284  0.00  0.00    -0.001 C 
ATOM     25  C   UNL     1       1.067   0.149  -0.082  0.00  0.00    -0.018 C 
ATOM     26  C   UNL     1       1.462  -0.458   1.266  0.00  0.00    -0.078 C 
ATOM     27  N   UNL     1       1.109  -1.883   1.288  0.00  0.00    +0.382 N 
ATOM     28  C   UNL     1      -0.345  -2.039   1.166  0.00  0.00    -0.075 C 
ATOM     29  H   UNL     1       1.562  -2.352   0.518  0.00  0.00    -0.081 HD
ENDBRANCH  20  27
ENDBRANCH  19  20
ENDBRANCH  17  19
ENDBRANCH   1  17
TORSDOF 5
