REMARK  Name = ZINC44365788
REMARK  5 active torsions:
REMARK  status: ('A' for Active; 'I' for Inactive)
REMARK    1  A    between atoms: C_1  and  C_2
REMARK    2  A    between atoms: C_2  and  C_20
REMARK    3  A    between atoms: C_4  and  N_6
REMARK    4  A    between atoms: C_7  and  C_9
REMARK    5  A    between atoms: C_11  and  N_17
REMARK                            x       y       z     vdW  Elec       q    Type
REMARK                         _______ _______ _______ _____ _____    ______ ____
ROOT
ATOM      1  C   UNL     1       2.924   0.515   3.997  0.00  0.00    +0.040 A 
ATOM      2  C   UNL     1       3.985   0.033   4.766  0.00  0.00    +0.047 A 
ATOM      3  C   UNL     1       4.545   0.830   5.742  0.00  0.00    +0.147 A 
ATOM      4  C   UNL     1       4.057   2.108   5.960  0.00  0.00    +0.089 A 
ATOM      5  C   UNL     1       3.004   2.593   5.200  0.00  0.00    +0.062 A 
ATOM      6  C   UNL     1       2.439   1.806   4.217  0.00  0.00    +0.034 A 
ATOM      7 CL   UNL     1       2.398   4.196   5.481  0.00  0.00    -0.082 Cl
ATOM      8 CL   UNL     1       4.767   3.106   7.190  0.00  0.00    -0.080 Cl
ENDROOT
BRANCH   1  10
ATOM      9  N   UNL     1       1.300   0.135   2.205  0.00  0.00    -0.308 N 
ATOM     10  C   UNL     1       2.320  -0.335   2.950  0.00  0.00    +0.244 C 
ATOM     11  O   UNL     1       2.744  -1.458   2.760  0.00  0.00    -0.270 OA
ATOM     12  H   UNL     1       0.962   1.032   2.357  0.00  0.00    +0.149 HD
BRANCH   9  16
ATOM     13  C   UNL     1      -0.019   1.526   0.010  0.00  0.00    +0.013 C 
ATOM     14  C   UNL     1       0.002  -0.004   0.002  0.00  0.00    -0.015 C 
ATOM     15  C   UNL     1      -0.825  -0.728   1.066  0.00  0.00    +0.031 C 
ATOM     16  C   UNL     1       0.701  -0.708   1.167  0.00  0.00    +0.080 C 
ATOM     17  C   UNL     1       0.102  -0.655  -1.379  0.00  0.00    +0.013 C 
ENDBRANCH   9  16
ENDBRANCH   1  10
BRANCH   3  18
ATOM     18  N   UNL     1       5.669   0.320   6.558  0.00  0.00    +0.058 N 
ATOM     19  O   UNL     1       6.095  -0.796   6.369  0.00  0.00    -0.126 OA
ATOM     20  O   UNL     1       6.161   1.018   7.413  0.00  0.00    -0.126 OA
ENDBRANCH   3  18
TORSDOF 3
