REMARK  Name = ZINC13463170
REMARK  9 active torsions:
REMARK  status: ('A' for Active; 'I' for Inactive)
REMARK    1  A    between atoms: C_1  and  C_2
REMARK    2  A    between atoms: C_2  and  C_3
REMARK    3  A    between atoms: C_2  and  C_4
REMARK    4  A    between atoms: C_2  and  C_5
REMARK    5  A    between atoms: C_8  and  S_11
REMARK    6  A    between atoms: S_11  and  O_14
REMARK    7  A    between atoms: O_14  and  C_15
REMARK    8  A    between atoms: C_18  and  C_22
REMARK    9  A    between atoms: C_19  and  O_21
REMARK                            x       y       z     vdW  Elec       q    Type
REMARK                         _______ _______ _______ _____ _____    ______ ____
ROOT
ATOM      1  S   UNL     1      -1.554   2.238   0.022  0.00  0.00    +0.151 S 
ATOM      2  O   UNL     1      -1.304   3.526  -0.523  0.00  0.00    -0.131 OA
ATOM      3  O   UNL     1      -2.519   1.353  -0.529  0.00  0.00    -0.131 OA
ENDROOT
BRANCH   1   7
ATOM      4  C   UNL     1       2.396   0.029  -0.022  0.00  0.00    -0.042 A 
ATOM      5  C   UNL     1       1.208  -0.679  -0.013  0.00  0.00    +0.006 A 
ATOM      6  C   UNL     1       0.002  -0.004   0.002  0.00  0.00    +0.031 A 
ATOM      7  C   UNL     1      -0.017   1.378   0.010  0.00  0.00    +0.128 A 
ATOM      8  C   UNL     1       1.171   2.086   0.002  0.00  0.00    +0.031 A 
ATOM      9  C   UNL     1       2.377   1.411  -0.015  0.00  0.00    +0.006 A 
BRANCH   4  11
ATOM     10  C   UNL     1       3.792  -1.580  -1.292  0.00  0.00    +0.015 C 
ATOM     11  C   UNL     1       3.711  -0.707  -0.038  0.00  0.00    -0.013 C 
ATOM     12  C   UNL     1       4.860   0.303  -0.045  0.00  0.00    +0.015 C 
ATOM     13  C   UNL     1       3.817  -1.591   1.206  0.00  0.00    +0.015 C 
ENDBRANCH   4  11
ENDBRANCH   1   7
BRANCH   1  14
ATOM     14  O   UNL     1      -1.940   2.450   1.479  0.00  0.00    -0.342 OA
BRANCH  14  15
ATOM     15  C   UNL     1      -1.228   3.422   2.103  0.00  0.00    +0.160 A 
ATOM     16  C   UNL     1      -0.045   3.099   2.763  0.00  0.00    +0.049 A 
ATOM     17  C   UNL     1       0.682   4.069   3.390  0.00  0.00    +0.022 A 
ATOM     18  C   UNL     1       0.237   5.395   3.382  0.00  0.00    +0.105 A 
ATOM     19  C   UNL     1      -0.957   5.724   2.722  0.00  0.00    +0.135 A 
ATOM     20  C   UNL     1      -1.683   4.732   2.085  0.00  0.00    +0.094 A 
BRANCH  18  21
ATOM     21  C   UNL     1       1.018   6.441   4.062  0.00  0.00    +0.390 C 
ATOM     22  O   UNL     1       0.629   7.592   4.053  0.00  0.00    -0.240 OA
ATOM     23  O   UNL     1       2.164   6.122   4.694  0.00  0.00    -0.240 OA
ENDBRANCH  18  21
BRANCH  19  24
ATOM     24  O   UNL     1      -1.397   7.007   2.708  0.00  0.00    -0.506 OA
ATOM     25  H   UNL     1      -1.977   7.232   3.448  0.00  0.00    +0.292 HD
ENDBRANCH  19  24
ENDBRANCH  14  15
ENDBRANCH   1  14
TORSDOF 6
