REMARK  Name = ZINC20543203
REMARK  8 active torsions:
REMARK  status: ('A' for Active; 'I' for Inactive)
REMARK    1  A    between atoms: C_1  and  O_2
REMARK    2  A    between atoms: O_2  and  C_3
REMARK    3  A    between atoms: C_6  and  C_9
REMARK    4  A    between atoms: C_9  and  N_10
REMARK    5  A    between atoms: N_18  and  C_19
REMARK    6  A    between atoms: C_23  and  C_24
REMARK    7  A    between atoms: C_24  and  O_26
REMARK    8  A    between atoms: O_26  and  C_27
REMARK                            x       y       z     vdW  Elec       q    Type
REMARK                         _______ _______ _______ _____ _____    ______ ____
ROOT
ATOM      1  N   UNL     1       1.307  -2.765  -1.425  0.00  0.00    -0.295 NA
ATOM      2  C   UNL     1      -0.002  -2.447  -2.010  0.00  0.00    +0.104 C 
ATOM      3  C   UNL     1       0.040  -2.704  -3.520  0.00  0.00    +0.124 C 
ATOM      4  N   UNL     1       0.503  -4.082  -3.746  0.00  0.00    -0.283 N 
ATOM      5  C   UNL     1       1.740  -4.518  -3.080  0.00  0.00    +0.124 C 
ATOM      6  C   UNL     1       1.631  -4.189  -1.587  0.00  0.00    +0.104 C 
ATOM      7  C   UNL     1      -0.187  -4.921  -4.543  0.00  0.00    +0.307 C 
ATOM      8  O   UNL     1       0.258  -6.025  -4.792  0.00  0.00    -0.252 OA
ATOM      9  N   UNL     1      -1.369  -4.538  -5.063  0.00  0.00    -0.268 N 
ATOM     10  H   UNL     1      -1.724  -3.506  -4.921  0.00  0.00    +0.156 HD
ENDROOT
BRANCH   9  11
ATOM     11  C   UNL     1      -2.143  -5.449  -5.783  0.00  0.00    +0.056 A 
ATOM     12  C   UNL     1      -1.837  -6.793  -5.813  0.00  0.00    +0.032 A 
ATOM     13  C   UNL     1      -2.623  -7.636  -6.529  0.00  0.00    +0.048 A 
ATOM     14  S   UNL     1      -3.832  -6.589  -7.196  0.00  0.00    -0.088 S 
ATOM     15  C   UNL     1      -3.268  -5.045  -6.502  0.00  0.00    +0.117 A 
BRANCH  15  16
ATOM     16  C   UNL     1      -3.817  -3.750  -6.645  0.00  0.00    +0.347 C 
ATOM     17  O   UNL     1      -3.291  -2.801  -6.093  0.00  0.00    -0.244 OA
BRANCH  16  18
ATOM     18  O   UNL     1      -4.926  -3.565  -7.393  0.00  0.00    -0.464 OA
ATOM     19  C   UNL     1      -5.426  -2.231  -7.494  0.00  0.00    +0.280 C 
ENDBRANCH  16  18
ENDBRANCH  15  16
ENDBRANCH   9  11
BRANCH   1  20
ATOM     20  C   UNL     1       1.363  -2.370  -0.011  0.00  0.00    +0.119 C 
BRANCH  20  24
ATOM     21  C   UNL     1       1.099   1.884   0.291  0.00  0.00    +0.120 A 
ATOM     22  C   UNL     1      -0.054   1.113   0.311  0.00  0.00    +0.046 A 
ATOM     23  C   UNL     1       0.034  -0.262   0.213  0.00  0.00    +0.008 A 
ATOM     24  C   UNL     1       1.270  -0.870   0.095  0.00  0.00    -0.033 A 
ATOM     25  C   UNL     1       2.421  -0.104   0.075  0.00  0.00    +0.008 A 
ATOM     26  C   UNL     1       2.338   1.272   0.173  0.00  0.00    +0.046 A 
BRANCH  21  28
ATOM     27  C   UNL     1       2.244   3.967   0.360  0.00  0.00    +0.277 C 
ATOM     28  O   UNL     1       1.015   3.237   0.388  0.00  0.00    -0.495 OA
ENDBRANCH  21  28
ENDBRANCH  20  24
ENDBRANCH   1  20
TORSDOF 6
