REMARK  Name = ZINC20732277
REMARK  5 active torsions:
REMARK  status: ('A' for Active; 'I' for Inactive)
REMARK    1  A    between atoms: C_1  and  C_2
REMARK    2  A    between atoms: C_10  and  C_12
REMARK    3  A    between atoms: C_20  and  C_23
REMARK    4  A    between atoms: C_26  and  O_29
REMARK    5  A    between atoms: O_29  and  C_30
REMARK                            x       y       z     vdW  Elec       q    Type
REMARK                         _______ _______ _______ _____ _____    ______ ____
ROOT
ATOM      1  C   UNL     1       2.576   3.595   3.167  0.00  0.00    +0.069 C 
ATOM      2  C   UNL     1       2.095   4.893   2.572  0.00  0.00    +0.087 A 
ATOM      3  C   UNL     1       1.823   5.149   1.231  0.00  0.00    +0.049 A 
ATOM      4  C   UNL     1       1.423   6.460   1.206  0.00  0.00    +0.226 A 
ATOM      5  O   UNL     1       1.472   6.889   2.462  0.00  0.00    -0.339 OA
ATOM      6  N   UNL     1       1.849   6.009   3.212  0.00  0.00    -0.081 NA
ATOM      7  N   UNL     1       1.074   7.077   0.022  0.00  0.00    -0.286 N 
ATOM      8  C   UNL     1       1.408   6.463  -1.162  0.00  0.00    +0.019 C 
ATOM      9  C   UNL     1       1.798   5.172  -1.226  0.00  0.00    +0.024 C 
ATOM     10  C   UNL     1       1.902   4.296   0.006  0.00  0.00    +0.091 C 
ATOM     11  C   UNL     1       2.128   4.576  -2.457  0.00  0.00    +0.162 C 
ATOM     12  O   UNL     1       2.494   3.418  -2.476  0.00  0.00    -0.292 OA
ATOM     13  C   UNL     1       2.037   5.340  -3.748  0.00  0.00    +0.088 C 
ATOM     14  C   UNL     1       0.965   6.425  -3.609  0.00  0.00    +0.032 C 
ATOM     15  C   UNL     1       1.327   7.308  -2.413  0.00  0.00    +0.059 C 
ATOM     16  H   UNL     1       0.541   8.039   0.040  0.00  0.00    +0.155 HD
ENDROOT
BRANCH  14  17
ATOM     17  C   UNL     1       0.921   7.260  -4.862  0.00  0.00    -0.043 A 
ATOM     18  C   UNL     1       2.050   7.941  -5.278  0.00  0.00    +0.007 A 
ATOM     19  C   UNL     1       2.015   8.703  -6.430  0.00  0.00    +0.046 A 
ATOM     20  C   UNL     1       0.841   8.794  -7.164  0.00  0.00    +0.120 A 
ATOM     21  C   UNL     1      -0.293   8.114  -6.742  0.00  0.00    +0.046 A 
ATOM     22  C   UNL     1      -0.250   7.349  -5.592  0.00  0.00    +0.007 A 
BRANCH  20  23
ATOM     23  O   UNL     1       0.802   9.546  -8.294  0.00  0.00    -0.495 OA
ATOM     24  C   UNL     1       2.006  10.218  -8.669  0.00  0.00    +0.277 C 
ENDBRANCH  20  23
ENDBRANCH  14  17
BRANCH  10  25
ATOM     25  C   UNL     1       0.770   3.301   0.012  0.00  0.00    -0.028 A 
ATOM     26  C   UNL     1       1.029   1.944   0.003  0.00  0.00    +0.012 A 
ATOM     27  C   UNL     1      -0.013   1.076   0.008  0.00  0.00    +0.045 A 
ATOM     28  S   UNL     1      -1.415   2.181   0.019  0.00  0.00    -0.105 S 
ATOM     29  C   UNL     1      -0.518   3.725   0.025  0.00  0.00    +0.049 A 
ENDBRANCH  10  25
TORSDOF 3
