REMARK  Name = ZINC48364156
REMARK  5 active torsions:
REMARK  status: ('A' for Active; 'I' for Inactive)
REMARK    1  A    between atoms: C_1  and  C_2
REMARK    2  A    between atoms: C_6  and  O_8
REMARK    3  A    between atoms: O_8  and  C_9
REMARK    4  A    between atoms: C_9  and  C_11
REMARK    5  A    between atoms: C_9  and  C_12
REMARK                            x       y       z     vdW  Elec       q    Type
REMARK                         _______ _______ _______ _____ _____    ______ ____
ROOT
ATOM      1  C   UNL     1       0.994  -2.745   4.575  0.00  0.00    +0.256 C 
ATOM      2  O   UNL     1       1.374  -3.871   4.334  0.00  0.00    -0.272 OA
ATOM      3  N   UNL     1       1.321  -2.159   5.745  0.00  0.00    -0.298 N 
ATOM      4  C   UNL     1       0.775  -0.843   6.099  0.00  0.00    +0.110 C 
ATOM      5  C   UNL     1       1.937   0.098   6.438  0.00  0.00    +0.054 C 
ATOM      6  C   UNL     1       2.811  -0.545   7.510  0.00  0.00    +0.115 C 
ATOM      7  C   UNL     1       3.381  -1.872   7.021  0.00  0.00    +0.054 C 
ATOM      8  C   UNL     1       2.224  -2.830   6.689  0.00  0.00    +0.110 C 
ATOM      9  C   UNL     1       3.928   0.392   7.911  0.00  0.00    +0.244 C 
ATOM     10  O   UNL     1       4.809   0.829   7.202  0.00  0.00    -0.273 OA
ATOM     11  N   UNL     1       3.736   0.640   9.223  0.00  0.00    -0.238 N 
ATOM     12  C   UNL     1       2.663  -0.006   9.695  0.00  0.00    +0.307 C 
ATOM     13  O   UNL     1       2.288   0.061  10.849  0.00  0.00    -0.252 OA
ATOM     14  N   UNL     1       2.046  -0.739   8.748  0.00  0.00    -0.285 N 
ATOM     15  H   UNL     1       4.305   1.215   9.758  0.00  0.00    +0.159 HD
ATOM     16  H   UNL     1       1.254  -1.286   8.862  0.00  0.00    +0.151 HD
ENDROOT
BRANCH   1  17
ATOM     17  C   UNL     1       0.157  -2.000   3.568  0.00  0.00    +0.256 C 
ATOM     18  C   UNL     1      -1.291  -1.933   4.058  0.00  0.00    +0.062 C 
BRANCH  17  19
ATOM     19  O   UNL     1       0.203  -2.682   2.313  0.00  0.00    -0.478 OA
BRANCH  19  25
ATOM     20  C   UNL     1      -1.076   1.581   0.310  0.00  0.00    +0.044 C 
ATOM     21  C   UNL     1      -0.656   0.139   0.182  0.00  0.00    -0.047 A 
ATOM     22  C   UNL     1      -0.509  -0.429  -1.070  0.00  0.00    +0.005 A 
ATOM     23  C   UNL     1      -0.124  -1.751  -1.191  0.00  0.00    +0.024 A 
ATOM     24  C   UNL     1       0.115  -2.509  -0.059  0.00  0.00    +0.083 A 
ATOM     25  C   UNL     1      -0.031  -1.940   1.199  0.00  0.00    +0.140 A 
ATOM     26  C   UNL     1      -0.412  -0.611   1.316  0.00  0.00    +0.050 A 
ATOM     27 CL   UNL     1       0.597  -4.169  -0.211  0.00  0.00    -0.080 Cl
ENDBRANCH  19  25
ENDBRANCH  17  19
ENDBRANCH   1  17
TORSDOF 3
