REMARK  Name = ZINC37821502
REMARK  3 active torsions:
REMARK  status: ('A' for Active; 'I' for Inactive)
REMARK    1  A    between atoms: C_1  and  C_2
REMARK    2  A    between atoms: C_6  and  C_24
REMARK    3  A    between atoms: C_10  and  C_12
REMARK                            x       y       z     vdW  Elec       q    Type
REMARK                         _______ _______ _______ _____ _____    ______ ____
ROOT
ATOM      1  C   UNL     1      -0.020   1.526   0.011  0.00  0.00    +0.028 C 
ATOM      2  C   UNL     1       0.002  -0.004   0.002  0.00  0.00    +0.073 C 
ATOM      3  C   UNL     1       0.612  -0.502  -1.312  0.00  0.00    +0.023 C 
ATOM      4  C   UNL     1       0.759  -2.024  -1.257  0.00  0.00    +0.016 C 
ATOM      5  C   UNL     1       1.699  -2.407  -0.112  0.00  0.00    +0.092 C 
ATOM      6  C   UNL     1       1.101  -1.931   1.216  0.00  0.00    +0.120 C 
ATOM      7  N   UNL     1       0.819  -0.492   1.122  0.00  0.00    -0.299 N 
ATOM      8  C   UNL     1       1.304   0.365   2.042  0.00  0.00    +0.202 C 
ATOM      9  O   UNL     1       0.994   1.537   2.003  0.00  0.00    -0.277 OA
ENDROOT
BRANCH   8  10
ATOM     10  C   UNL     1       2.232  -0.133   3.120  0.00  0.00    +0.017 C 
ATOM     11  C   UNL     1       1.512  -1.180   3.991  0.00  0.00    -0.005 C 
ATOM     12  C   UNL     1       1.506  -0.573   5.422  0.00  0.00    -0.026 C 
ATOM     13  C   UNL     1       0.189   0.193   5.568  0.00  0.00    +0.002 C 
ATOM     14  C   UNL     1       0.242   1.141   6.762  0.00  0.00    +0.000 C 
ATOM     15  C   UNL     1       1.351   2.171   6.519  0.00  0.00    -0.002 C 
ATOM     16  C   UNL     1       2.688   1.432   6.457  0.00  0.00    -0.015 C 
ATOM     17  C   UNL     1       2.706   0.388   5.359  0.00  0.00    -0.068 C 
ATOM     18  N   UNL     1       2.619   0.988   4.011  0.00  0.00    +0.389 N 
ATOM     19  H   UNL     1       3.514   1.363   3.732  0.00  0.00    -0.084 HD
ATOM     20  H   UNL     1       1.914   1.709   3.993  0.00  0.00    -0.084 HD
ENDBRANCH   8  10
BRANCH   5  21
ATOM     21  C   UNL     1       1.869  -3.904  -0.079  0.00  0.00    +0.215 C 
ATOM     22  O   UNL     1       1.546  -4.530   0.908  0.00  0.00    -0.276 OA
ATOM     23  N   UNL     1       2.379  -4.548  -1.148  0.00  0.00    -0.329 N 
ATOM     24  H   UNL     1       2.637  -4.047  -1.938  0.00  0.00    +0.145 HD
ATOM     25  H   UNL     1       2.488  -5.511  -1.127  0.00  0.00    +0.145 HD
ENDBRANCH   5  21
TORSDOF 2
