REMARK  Name = ZINC02167360
REMARK  8 active torsions:
REMARK  status: ('A' for Active; 'I' for Inactive)
REMARK    1  A    between atoms: C_1  and  N_2
REMARK    2  A    between atoms: N_2  and  C_3
REMARK    3  A    between atoms: N_2  and  C_4
REMARK    4  A    between atoms: C_7  and  C_10
REMARK    5  A    between atoms: N_12  and  N_13
REMARK    6  A    between atoms: N_16  and  C_17
REMARK    7  A    between atoms: C_22  and  O_23
REMARK    8  A    between atoms: O_23  and  C_24
REMARK                            x       y       z     vdW  Elec       q    Type
REMARK                         _______ _______ _______ _____ _____    ______ ____
ROOT
ATOM      1  N   UNL     1      -1.204   1.897   0.034  0.00  0.00    -0.218 N 
ATOM      2  C   UNL     1      -0.032   1.231   0.012  0.00  0.00    +0.320 C 
ATOM      3  O   UNL     1      -0.025   0.015  -0.003  0.00  0.00    -0.251 OA
ATOM      4  N   UNL     1       1.130   1.912   0.000  0.00  0.00    -0.265 N 
ATOM      5  H   UNL     1      -2.041   1.407   0.038  0.00  0.00    +0.174 HD
ATOM      6  H   UNL     1       1.125   2.880  -0.070  0.00  0.00    +0.157 HD
ENDROOT
BRANCH   4   7
ATOM      7  C   UNL     1       2.348   1.223   0.091  0.00  0.00    +0.078 A 
ATOM      8  C   UNL     1       2.395  -0.028   0.689  0.00  0.00    +0.047 A 
ATOM      9  C   UNL     1       3.596  -0.708   0.773  0.00  0.00    +0.043 A 
ATOM     10  C   UNL     1       4.753  -0.139   0.271  0.00  0.00    +0.024 A 
ATOM     11  C   UNL     1       4.713   1.109  -0.321  0.00  0.00    +0.049 A 
ATOM     12  C   UNL     1       3.513   1.795  -0.413  0.00  0.00    +0.141 A 
ATOM     13 CL   UNL     1       3.654  -2.277   1.515  0.00  0.00    -0.083 Cl
BRANCH  12  14
ATOM     14  O   UNL     1       3.473   3.023  -0.996  0.00  0.00    -0.493 OA
ATOM     15  C   UNL     1       4.706   3.547  -1.491  0.00  0.00    +0.277 C 
ENDBRANCH  12  14
ENDBRANCH   4   7
BRANCH   1  18
ATOM     16  C   UNL     1      -2.384   3.964   0.073  0.00  0.00    +0.260 C 
ATOM     17  O   UNL     1      -3.433   3.350   0.078  0.00  0.00    -0.269 OA
ATOM     18  N   UNL     1      -1.212   3.298   0.051  0.00  0.00    -0.229 N 
ATOM     19  H   UNL     1      -0.376   3.788   0.047  0.00  0.00    +0.173 HD
BRANCH  16  23
ATOM     20  C   UNL     1      -2.410   8.210   0.127  0.00  0.00    +0.029 A 
ATOM     21  C   UNL     1      -3.612   7.508   0.132  0.00  0.00    +0.024 A 
ATOM     22  C   UNL     1      -3.607   6.132   0.114  0.00  0.00    +0.015 A 
ATOM     23  C   UNL     1      -2.393   5.439   0.091  0.00  0.00    +0.038 A 
ATOM     24  C   UNL     1      -1.188   6.147   0.091  0.00  0.00    +0.015 A 
ATOM     25  C   UNL     1      -1.200   7.523   0.104  0.00  0.00    +0.024 A 
BRANCH  20  27
ATOM     26  C   UNL     1      -3.686  10.324   0.279  0.00  0.00    +0.129 C 
ATOM     27  N   UNL     1      -2.419   9.601   0.144  0.00  0.00    -0.336 N 
ATOM     28  C   UNL     1      -1.161  10.342   0.027  0.00  0.00    +0.129 C 
ENDBRANCH  20  27
ENDBRANCH  16  23
ENDBRANCH   1  18
TORSDOF 5
