REMARK  Name = ZINC19840052
REMARK  4 active torsions:
REMARK  status: ('A' for Active; 'I' for Inactive)
REMARK    1  A    between atoms: C_1  and  C_2
REMARK    2  A    between atoms: C_5  and  C_23
REMARK    3  A    between atoms: C_10  and  C_12
REMARK    4  A    between atoms: C_21  and  O_22
REMARK                            x       y       z     vdW  Elec       q    Type
REMARK                         _______ _______ _______ _____ _____    ______ ____
ROOT
ATOM      1  C   UNL     1      -3.656   1.793   0.003  0.00  0.00    +0.079 A 
ATOM      2  C   UNL     1      -3.450   2.828  -0.928  0.00  0.00    +0.017 A 
ATOM      3  C   UNL     1      -2.278   3.508  -0.967  0.00  0.00    +0.009 A 
ATOM      4  C   UNL     1      -1.236   3.176  -0.079  0.00  0.00    -0.014 A 
ATOM      5  C   UNL     1      -0.010   3.859  -0.115  0.00  0.00    +0.008 A 
ATOM      6  C   UNL     1       0.980   3.517   0.755  0.00  0.00    +0.001 A 
ATOM      7  C   UNL     1       0.796   2.496   1.685  0.00  0.00    +0.001 A 
ATOM      8  C   UNL     1      -0.380   1.812   1.749  0.00  0.00    +0.012 A 
ATOM      9  C   UNL     1      -1.421   2.135   0.863  0.00  0.00    +0.024 A 
ATOM     10  C   UNL     1      -2.649   1.442   0.899  0.00  0.00    +0.137 A 
ENDROOT
BRANCH   1  18
ATOM     11  C   UNL     1      -9.511   0.955   1.559  0.00  0.00    +0.009 C 
ATOM     12  C   UNL     1      -8.114   1.576   1.499  0.00  0.00    +0.004 C 
ATOM     13  C   UNL     1      -8.236   3.100   1.423  0.00  0.00    +0.009 C 
ATOM     14  C   UNL     1      -6.839   3.724   1.396  0.00  0.00    +0.004 C 
ATOM     15  C   UNL     1      -6.090   3.236   0.157  0.00  0.00    +0.111 C 
ATOM     16  N   UNL     1      -6.096   1.767   0.141  0.00  0.00    -0.297 N 
ATOM     17  C   UNL     1      -7.381   1.064   0.255  0.00  0.00    +0.111 C 
ATOM     18  C   UNL     1      -4.943   1.077   0.031  0.00  0.00    +0.250 C 
ATOM     19  O   UNL     1      -4.966  -0.136  -0.046  0.00  0.00    -0.270 OA
ATOM     20  C   UNL     1      -6.961   5.248   1.355  0.00  0.00    +0.009 C 
ENDBRANCH   1  18
BRANCH  10  21
ATOM     21  O   UNL     1      -2.847   0.446   1.796  0.00  0.00    -0.505 OA
ATOM     22  H   UNL     1      -2.048   0.174   2.501  0.00  0.00    +0.292 HD
ENDBRANCH  10  21
TORSDOF 2
