REMARK  Name = ZINC63710024
REMARK  1 active torsions:
REMARK  status: ('A' for Active; 'I' for Inactive)
REMARK    1  A    between atoms: C_6  and  N_7
REMARK                            x       y       z     vdW  Elec       q    Type
REMARK                         _______ _______ _______ _____ _____    ______ ____
ROOT
ATOM      1  N   UNL     1      -1.201  -0.722   0.010  0.00  0.00    -0.216 N 
ATOM      2  C   UNL     1      -1.171  -2.073  -0.095  0.00  0.00    +0.262 C 
ATOM      3  O   UNL     1      -0.121  -2.678  -0.196  0.00  0.00    -0.269 OA
ATOM      4  C   UNL     1      -2.458  -2.773  -0.081  0.00  0.00    +0.101 C 
ATOM      5  C   UNL     1      -2.903  -4.065  -0.156  0.00  0.00    +0.151 C 
ATOM      6  N   UNL     1      -4.246  -4.042  -0.084  0.00  0.00    -0.155 NA
ATOM      7  N   UNL     1      -4.712  -2.848   0.031  0.00  0.00    -0.131 NA
ATOM      8  C   UNL     1      -3.690  -1.952   0.046  0.00  0.00    +0.180 C 
ATOM      9  N   UNL     1      -3.565  -0.653   0.139  0.00  0.00    -0.170 NA
ATOM     10  C   UNL     1      -2.362  -0.061   0.127  0.00  0.00    +0.170 C 
ATOM     11  S   UNL     1      -2.305   1.644   0.261  0.00  0.00    -0.016 S 
ENDROOT
BRANCH   1  17
ATOM     12  C   UNL     1       0.534   0.447  -1.198  0.00  0.00    +0.025 A 
ATOM     13  C   UNL     1       1.720   1.155  -1.204  0.00  0.00    +0.023 A 
ATOM     14  C   UNL     1       2.378   1.415  -0.015  0.00  0.00    +0.059 A 
ATOM     15  C   UNL     1       1.850   0.966   1.184  0.00  0.00    +0.061 A 
ATOM     16  C   UNL     1       0.664   0.258   1.194  0.00  0.00    +0.045 A 
ATOM     17  C   UNL     1       0.002  -0.004   0.002  0.00  0.00    +0.045 A 
ATOM     18 CL   UNL     1       2.679   1.294   2.674  0.00  0.00    -0.082 Cl
ATOM     19 CL   UNL     1       3.869   2.306  -0.027  0.00  0.00    -0.082 Cl
ENDBRANCH   1  17
TORSDOF 1
