REMARK  Name = ZINC05003200
REMARK  5 active torsions:
REMARK  status: ('A' for Active; 'I' for Inactive)
REMARK    1  A    between atoms: C_1  and  C_2
REMARK    2  A    between atoms: C_2  and  C_3
REMARK    3  A    between atoms: C_2  and  C_4
REMARK    4  A    between atoms: C_7  and  C_10
REMARK    5  A    between atoms: N_11  and  N_12
REMARK                            x       y       z     vdW  Elec       q    Type
REMARK                         _______ _______ _______ _____ _____    ______ ____
ROOT
ATOM      1  N   UNL     1      -3.495   4.666   6.106  0.00  0.00    -0.220 N 
ATOM      2  C   UNL     1      -3.638   6.022   6.333  0.00  0.00    +0.150 A 
ATOM      3  C   UNL     1      -3.796   6.519   7.657  0.00  0.00    +0.052 A 
ATOM      4  C   UNL     1      -3.837   5.774   8.917  0.00  0.00    -0.025 A 
ATOM      5  C   UNL     1      -3.998   6.493  10.047  0.00  0.00    -0.004 A 
ATOM      6  S   UNL     1      -4.103   8.180   9.512  0.00  0.00    -0.073 S 
ATOM      7  C   UNL     1      -3.931   7.918   7.767  0.00  0.00    +0.114 A 
ATOM      8  N   UNL     1      -3.911   8.698   6.703  0.00  0.00    -0.228 NA
ATOM      9  C   UNL     1      -3.762   8.179   5.500  0.00  0.00    +0.224 A 
ATOM     10  N   UNL     1      -3.624   6.877   5.322  0.00  0.00    -0.219 NA
ATOM     11  C   UNL     1      -4.073   5.972  11.450  0.00  0.00    +0.043 C 
ATOM     12  C   UNL     1      -4.312   4.457  11.393  0.00  0.00    +0.005 C 
ATOM     13  C   UNL     1      -3.328   3.842  10.394  0.00  0.00    +0.005 C 
ATOM     14  C   UNL     1      -3.706   4.255   8.971  0.00  0.00    +0.037 C 
ATOM     15  H   UNL     1      -3.731   4.030   6.800  0.00  0.00    +0.176 HD
ENDROOT
BRANCH   1  17
ATOM     16  C   UNL     1      -2.877   2.936   4.659  0.00  0.00    +0.138 C 
ATOM     17  N   UNL     1      -3.011   4.209   4.873  0.00  0.00    -0.189 NA
BRANCH  16  21
ATOM     18  C   UNL     1      -1.409   1.553   0.924  0.00  0.00    -0.045 A 
ATOM     19  C   UNL     1      -1.546   2.912   1.151  0.00  0.00    +0.004 A 
ATOM     20  C   UNL     1      -2.027   3.368   2.360  0.00  0.00    +0.010 A 
ATOM     21  C   UNL     1      -2.367   2.456   3.362  0.00  0.00    -0.005 A 
ATOM     22  C   UNL     1      -2.221   1.086   3.128  0.00  0.00    +0.010 A 
ATOM     23  C   UNL     1      -1.744   0.644   1.912  0.00  0.00    +0.004 A 
BRANCH  18  25
ATOM     24  C   UNL     1       0.513   1.627  -0.640  0.00  0.00    +0.012 C 
ATOM     25  C   UNL     1      -0.889   1.062  -0.402  0.00  0.00    +0.013 C 
ATOM     26  C   UNL     1      -1.823   1.529  -1.521  0.00  0.00    +0.012 C 
ENDBRANCH  18  25
ENDBRANCH  16  21
ENDBRANCH   1  17
TORSDOF 3
