REMARK  Name = ZINC36743382
REMARK  6 active torsions:
REMARK  status: ('A' for Active; 'I' for Inactive)
REMARK    1  A    between atoms: C_1  and  C_2
REMARK    2  A    between atoms: C_4  and  C_7
REMARK    3  A    between atoms: C_7  and  S_8
REMARK    4  A    between atoms: S_8  and  N_11
REMARK    5  A    between atoms: N_11  and  C_12
REMARK    6  A    between atoms: C_15  and  N_19
REMARK                            x       y       z     vdW  Elec       q    Type
REMARK                         _______ _______ _______ _____ _____    ______ ____
ROOT
ATOM      1  N   UNL     1      -2.813  -5.202  -1.591  0.00  0.00    -0.219 N 
ATOM      2  H   UNL     1      -2.491  -6.055  -1.920  0.00  0.00    +0.173 HD
ENDROOT
BRANCH   1   3
ATOM      3  C   UNL     1      -4.043  -5.127  -0.924  0.00  0.00    +0.062 A 
ATOM      4  C   UNL     1      -4.855  -4.012  -1.088  0.00  0.00    +0.027 A 
ATOM      5  C   UNL     1      -6.066  -3.938  -0.429  0.00  0.00    +0.024 A 
ATOM      6  C   UNL     1      -6.473  -4.978   0.396  0.00  0.00    +0.026 A 
ATOM      7  C   UNL     1      -5.662  -6.093   0.560  0.00  0.00    +0.040 A 
ATOM      8  C   UNL     1      -4.452  -6.170  -0.103  0.00  0.00    +0.042 A 
ATOM      9 BR   UNL     1      -3.350  -7.691   0.113  0.00  0.00    -0.048 Br
BRANCH   6  10
ATOM     10  N   UNL     1      -7.702  -4.903   1.063  0.00  0.00    -0.358 N 
ATOM     11  H   UNL     1      -8.269  -4.124   0.949  0.00  0.00    +0.142 HD
ATOM     12  H   UNL     1      -7.986  -5.629   1.639  0.00  0.00    +0.142 HD
ENDBRANCH   6  10
ENDBRANCH   1   3
BRANCH   1  13
ATOM     13  S   UNL     1      -1.910  -3.832  -1.819  0.00  0.00    +0.049 S 
ATOM     14  O   UNL     1      -2.777  -2.934  -2.497  0.00  0.00    -0.155 OA
ATOM     15  O   UNL     1      -0.712  -4.287  -2.433  0.00  0.00    -0.155 OA
BRANCH  13  16
ATOM     16  C   UNL     1      -1.562  -3.221  -0.147  0.00  0.00    +0.247 C 
BRANCH  16  20
ATOM     17  C   UNL     1      -0.264   1.695  -0.468  0.00  0.00    +0.089 C 
ATOM     18  C   UNL     1      -0.187   0.193  -0.374  0.00  0.00    +0.135 A 
ATOM     19  C   UNL     1      -1.235  -0.651  -0.311  0.00  0.00    +0.072 A 
ATOM     20  C   UNL     1      -0.736  -1.964  -0.234  0.00  0.00    +0.107 A 
ATOM     21  N   UNL     1       0.566  -1.903  -0.250  0.00  0.00    -0.081 NA
ATOM     22  O   UNL     1       0.937  -0.539  -0.344  0.00  0.00    -0.360 OA
ENDBRANCH  16  20
ENDBRANCH  13  16
ENDBRANCH   1  13
TORSDOF 5
