REMARK  Name = ZINC39557805
REMARK  4 active torsions:
REMARK  status: ('A' for Active; 'I' for Inactive)
REMARK    1  A    between atoms: C_1  and  C_2
REMARK    2  A    between atoms: C_2  and  C_3
REMARK    3  A    between atoms: C_2  and  C_4
REMARK    4  A    between atoms: C_12  and  C_14
REMARK                            x       y       z     vdW  Elec       q    Type
REMARK                         _______ _______ _______ _____ _____    ______ ____
ROOT
ATOM      1  C   UNL     1      -1.433  -0.535  -0.023  0.00  0.00    +0.160 C 
ATOM      2  C   UNL     1      -1.446  -2.041   0.027  0.00  0.00    -0.003 C 
ATOM      3  C   UNL     1      -2.029  -2.421  -1.114  0.00  0.00    +0.067 C 
ATOM      4  C   UNL     1      -2.259  -3.868  -1.489  0.00  0.00    +0.076 C 
ATOM      5  C   UNL     1      -1.342  -4.754  -0.639  0.00  0.00    +0.114 C 
ATOM      6  N   UNL     1      -1.409  -4.320   0.765  0.00  0.00    -0.295 N 
ATOM      7  C   UNL     1      -0.929  -2.963   1.093  0.00  0.00    +0.142 C 
ATOM      8  C   UNL     1      -1.895  -5.136   1.722  0.00  0.00    +0.240 C 
ATOM      9  O   UNL     1      -1.942  -4.758   2.874  0.00  0.00    -0.273 OA
ATOM     10  N   UNL     1      -2.364  -1.332  -1.843  0.00  0.00    -0.158 NA
ATOM     11  N   UNL     1      -2.076  -0.247  -1.319  0.00  0.00    -0.179 NA
ENDROOT
BRANCH   8  12
ATOM     12  C   UNL     1      -2.379  -6.516   1.361  0.00  0.00    +0.207 C 
ATOM     13  C   UNL     1      -1.222  -7.486   1.278  0.00  0.00    -0.001 C 
ATOM     14  C   UNL     1      -1.554  -8.588   1.926  0.00  0.00    +0.127 C 
ATOM     15  C   UNL     1      -0.636  -9.786   2.064  0.00  0.00    +0.076 C 
ATOM     16  C   UNL     1       0.472  -9.680   1.012  0.00  0.00    +0.008 C 
ATOM     17  C   UNL     1       1.106  -8.288   1.080  0.00  0.00    +0.005 C 
ATOM     18  C   UNL     1       0.093  -7.251   0.579  0.00  0.00    +0.036 C 
ATOM     19  O   UNL     1      -2.810  -8.510   2.434  0.00  0.00    -0.410 OA
ATOM     20  N   UNL     1      -3.207  -7.088   2.455  0.00  0.00    -0.140 NA
ATOM     21  H   UNL     1      -4.191  -6.981   2.258  0.00  0.00    +0.168 HD
ENDBRANCH   8  12
BRANCH   1  23
ATOM     22  C   UNL     1       0.775  -0.568  -1.192  0.00  0.00    +0.010 C 
ATOM     23  C   UNL     1       0.002  -0.004   0.002  0.00  0.00    +0.013 C 
ATOM     24  C   UNL     1      -0.018   1.524  -0.080  0.00  0.00    +0.010 C 
ENDBRANCH   1  23
TORSDOF 2
