REMARK  Name = ZINC15008032
REMARK  7 active torsions:
REMARK  status: ('A' for Active; 'I' for Inactive)
REMARK    1  A    between atoms: C_1  and  O_2
REMARK    2  A    between atoms: O_2  and  C_3
REMARK    3  A    between atoms: C_3  and  C_5
REMARK    4  A    between atoms: C_11  and  C_13
REMARK    5  A    between atoms: C_13  and  C_14
REMARK    6  A    between atoms: C_17  and  N_20
REMARK    7  A    between atoms: C_23  and  N_63
REMARK                            x       y       z     vdW  Elec       q    Type
REMARK                         _______ _______ _______ _____ _____    ______ ____
ROOT
ATOM      1  C   UNL     1       4.486   1.413  -1.983  0.00  0.00    -0.039 A 
ATOM      2  C   UNL     1       5.311   0.306  -1.904  0.00  0.00    +0.006 A 
ATOM      3  C   UNL     1       6.071  -0.069  -2.995  0.00  0.00    +0.023 A 
ATOM      4  C   UNL     1       6.015   0.673  -4.167  0.00  0.00    +0.030 A 
ATOM      5  C   UNL     1       5.190   1.788  -4.241  0.00  0.00    +0.023 A 
ATOM      6  C   UNL     1       4.428   2.155  -3.149  0.00  0.00    +0.006 A 
ENDROOT
BRANCH   4   7
ATOM      7  N   UNL     1       6.787   0.300  -5.270  0.00  0.00    -0.330 N 
ATOM      8  C   UNL     1       7.644   1.408  -5.712  0.00  0.00    +0.103 C 
ATOM      9  C   UNL     1       8.364   1.013  -7.003  0.00  0.00    +0.004 C 
ATOM     10  C   UNL     1       9.208  -0.239  -6.749  0.00  0.00    -0.066 C 
ATOM     11  C   UNL     1       8.299  -1.363  -6.244  0.00  0.00    +0.004 C 
ATOM     12  C   UNL     1       7.580  -0.900  -4.975  0.00  0.00    +0.103 C 
BRANCH  10  18
ATOM     13  C   UNL     1      10.984   0.219  -8.324  0.00  0.00    -0.068 C 
ATOM     14  C   UNL     1      11.906  -0.474  -9.334  0.00  0.00    +0.050 C 
ATOM     15  S   UNL     1      10.957  -0.788 -10.854  0.00  0.00    -0.164 S 
ATOM     16  C   UNL     1       9.454  -1.601 -10.228  0.00  0.00    +0.050 C 
ATOM     17  C   UNL     1       8.882  -0.748  -9.090  0.00  0.00    -0.068 C 
ATOM     18  N   UNL     1       9.868  -0.692  -7.986  0.00  0.00    +0.383 N 
ATOM     19  H   UNL     1      10.247  -1.635  -7.835  0.00  0.00    -0.081 HD
ENDBRANCH  10  18
ENDBRANCH   4   7
BRANCH   1  20
ATOM     20  C   UNL     1       3.654   1.817  -0.793  0.00  0.00    +0.131 C 
BRANCH  20  26
ATOM     21  C   UNL     1       0.055   0.746   0.156  0.00  0.00    +0.185 C 
ATOM     22  C   UNL     1      -0.622   1.254   1.447  0.00  0.00    +0.035 C 
ATOM     23  C   UNL     1       0.584   1.664   2.333  0.00  0.00    +0.021 C 
ATOM     24  C   UNL     1       1.573   2.217   1.277  0.00  0.00    +0.109 C 
ATOM     25  N   UNL     1       1.396   1.346   0.101  0.00  0.00    -0.288 N 
ATOM     26  C   UNL     1       2.313   1.133  -0.864  0.00  0.00    +0.221 C 
ATOM     27  O   UNL     1       2.058   0.391  -1.789  0.00  0.00    -0.275 OA
BRANCH  21  28
ATOM     28  C   UNL     1      -0.746   1.171  -1.048  0.00  0.00    +0.328 C 
ATOM     29  O   UNL     1      -0.251   1.897  -1.877  0.00  0.00    -0.249 OA
BRANCH  28  31
ATOM     30  C   UNL     1      -2.721   1.192  -2.382  0.00  0.00    +0.280 C 
ATOM     31  O   UNL     1      -2.009   0.743  -1.198  0.00  0.00    -0.467 OA
ENDBRANCH  28  31
ENDBRANCH  21  28
ENDBRANCH  20  26
ENDBRANCH   1  20
TORSDOF 6
