REMARK  Name = ZINC35280912
REMARK  7 active torsions:
REMARK  status: ('A' for Active; 'I' for Inactive)
REMARK    1  A    between atoms: C_1  and  C_2
REMARK    2  A    between atoms: C_3  and  N_19
REMARK    3  A    between atoms: C_7  and  N_8
REMARK    4  A    between atoms: C_12  and  C_15
REMARK    5  A    between atoms: C_12  and  C_16
REMARK    6  A    between atoms: C_16  and  C_17
REMARK    7  A    between atoms: C_16  and  C_18
REMARK                            x       y       z     vdW  Elec       q    Type
REMARK                         _______ _______ _______ _____ _____    ______ ____
ROOT
ATOM      1  N   UNL     1       0.025  -0.013   2.417  0.00  0.00    -0.210 N 
ATOM      2  C   UNL     1      -1.099   0.325   3.061  0.00  0.00    +0.227 C 
ATOM      3  O   UNL     1      -2.225   0.081   2.682  0.00  0.00    -0.275 OA
ATOM      4  C   UNL     1      -0.743   1.057   4.336  0.00  0.00    +0.113 C 
ATOM      5  C   UNL     1       0.799   1.085   4.317  0.00  0.00    +0.056 C 
ATOM      6  C   UNL     1       1.152   0.360   3.037  0.00  0.00    +0.233 C 
ATOM      7  O   UNL     1       2.276   0.152   2.634  0.00  0.00    -0.274 OA
ATOM      8  C   UNL     1       1.312   2.526   4.284  0.00  0.00    +0.021 C 
ENDROOT
BRANCH   1  15
ATOM      9  C   UNL     1      -0.018   1.503   0.010  0.00  0.00    +0.047 C 
ATOM     10  C   UNL     1       0.002  -0.004   0.002  0.00  0.00    -0.008 A 
ATOM     11  C   UNL     1       0.006  -0.693  -1.203  0.00  0.00    +0.029 A 
ATOM     12  C   UNL     1       0.025  -2.082  -1.207  0.00  0.00    +0.023 A 
ATOM     13  C   UNL     1       0.040  -2.777  -0.013  0.00  0.00    +0.004 A 
ATOM     14  C   UNL     1       0.036  -2.094   1.188  0.00  0.00    +0.024 A 
ATOM     15  C   UNL     1       0.023  -0.705   1.198  0.00  0.00    +0.049 A 
BRANCH  11  16
ATOM     16  N   UNL     1      -0.010   0.009  -2.410  0.00  0.00    -0.358 N 
ATOM     17  H   UNL     1      -0.024   0.979  -2.407  0.00  0.00    +0.142 HD
ATOM     18  H   UNL     1      -0.008  -0.472  -3.252  0.00  0.00    +0.142 HD
ENDBRANCH  11  16
ENDBRANCH   1  15
BRANCH   5  19
ATOM     19  C   UNL     1       1.366   0.339   5.527  0.00  0.00    -0.002 C 
ATOM     20  C   UNL     1       2.895   0.382   5.482  0.00  0.00    +0.008 C 
ATOM     21  C   UNL     1       0.874   1.004   6.813  0.00  0.00    +0.008 C 
ENDBRANCH   5  19
TORSDOF 3
