REMARK  Name = ZINC06763775
REMARK  4 active torsions:
REMARK  status: ('A' for Active; 'I' for Inactive)
REMARK    1  A    between atoms: C_1  and  C_2
REMARK    2  A    between atoms: C_4  and  C_13
REMARK    3  A    between atoms: C_14  and  C_15
REMARK    4  A    between atoms: N_17  and  C_18
REMARK                            x       y       z     vdW  Elec       q    Type
REMARK                         _______ _______ _______ _____ _____    ______ ____
ROOT
ATOM      1  C   UNL     1       5.946   3.281  -0.328  0.00  0.00    +0.012 C 
ATOM      2  C   UNL     1       5.970   1.927  -0.227  0.00  0.00    +0.068 C 
ENDROOT
BRANCH   1   5
ATOM      3  C   UNL     1       5.889   6.075  -0.074  0.00  0.00    +0.057 C 
ATOM      4  C   UNL     1       7.104   5.481  -0.790  0.00  0.00    +0.201 C 
ATOM      5  C   UNL     1       7.142   3.993  -0.556  0.00  0.00    -0.007 C 
ATOM      6  C   UNL     1       8.334   3.339  -0.571  0.00  0.00    +0.018 C 
ATOM      7  C   UNL     1       9.550   4.134  -0.793  0.00  0.00    +0.017 A 
ATOM      8  C   UNL     1      10.757   3.534  -1.153  0.00  0.00    +0.011 A 
ATOM      9  C   UNL     1      11.874   4.319  -1.350  0.00  0.00    +0.001 A 
ATOM     10  C   UNL     1      11.800   5.694  -1.194  0.00  0.00    +0.004 A 
ATOM     11  C   UNL     1      10.608   6.300  -0.839  0.00  0.00    +0.046 A 
ATOM     12  C   UNL     1       9.478   5.529  -0.635  0.00  0.00    +0.128 A 
ATOM     13  O   UNL     1       8.296   6.093  -0.284  0.00  0.00    -0.484 OA
ENDBRANCH   1   5
BRANCH   2  14
ATOM     14  C   UNL     1       4.759   1.205  -0.105  0.00  0.00    +0.241 C 
ATOM     15  O   UNL     1       3.695   1.798  -0.091  0.00  0.00    -0.270 OA
ATOM     16  N   UNL     1       4.783  -0.139  -0.004  0.00  0.00    -0.281 N 
ATOM     17  H   UNL     1       5.632  -0.606   0.048  0.00  0.00    +0.155 HD
BRANCH  16  18
ATOM     18  C   UNL     1       3.585  -0.860   0.025  0.00  0.00    +0.052 A 
ATOM     19  C   UNL     1       2.465  -0.323   0.647  0.00  0.00    +0.025 A 
ATOM     20  C   UNL     1       1.283  -1.037   0.674  0.00  0.00    +0.002 A 
ATOM     21  C   UNL     1       1.215  -2.288   0.088  0.00  0.00    +0.002 A 
ATOM     22  C   UNL     1       2.326  -2.824  -0.537  0.00  0.00    +0.022 A 
ATOM     23  C   UNL     1       3.512  -2.115  -0.568  0.00  0.00    +0.062 A 
ATOM     24 CL   UNL     1       4.909  -2.790  -1.347  0.00  0.00    -0.082 Cl
ENDBRANCH  16  18
ENDBRANCH   2  14
TORSDOF 3
