REMARK  Name = ZINC00222074
REMARK  2 active torsions:
REMARK  status: ('A' for Active; 'I' for Inactive)
REMARK    1  A    between atoms: C_6  and  C_7
REMARK    2  A    between atoms: C_10  and  C_18
REMARK                            x       y       z     vdW  Elec       q    Type
REMARK                         _______ _______ _______ _____ _____    ______ ____
ROOT
ATOM      1  C   UNL     1      -1.293  -0.775   0.010  0.00  0.00    +0.106 C 
ATOM      2  C   UNL     1      -1.589  -1.268   1.431  0.00  0.00    +0.059 C 
ATOM      3  C   UNL     1      -0.423  -2.127   1.936  0.00  0.00    +0.144 C 
ATOM      4  N   UNL     1      -0.090  -3.115   0.913  0.00  0.00    -0.206 N 
ATOM      5  C   UNL     1      -0.449  -3.019  -0.392  0.00  0.00    +0.236 A 
ATOM      6  N   UNL     1       0.015  -4.074  -1.000  0.00  0.00    -0.092 NA
ATOM      7  N   UNL     1       0.645  -4.829  -0.167  0.00  0.00    -0.021 NA
ATOM      8  N   UNL     1       0.624  -4.309   1.017  0.00  0.00    -0.042 NA
ATOM      9  N   UNL     1      -1.180  -1.943  -0.885  0.00  0.00    -0.305 N 
ATOM     10  H   UNL     1      -1.592  -1.958  -1.763  0.00  0.00    +0.150 HD
ENDROOT
BRANCH   1  16
ATOM     11  C   UNL     1      -0.017   1.378   0.010  0.00  0.00    +0.008 A 
ATOM     12  C   UNL     1       1.170   2.086   0.002  0.00  0.00    +0.038 A 
ATOM     13  C   UNL     1       2.379   1.410  -0.013  0.00  0.00    +0.123 A 
ATOM     14  C   UNL     1       2.396   0.026  -0.021  0.00  0.00    +0.038 A 
ATOM     15  C   UNL     1       1.208  -0.680  -0.013  0.00  0.00    +0.008 A 
ATOM     16  C   UNL     1       0.002  -0.004   0.002  0.00  0.00    -0.027 A 
ATOM     17  F   UNL     1       3.540   2.101  -0.021  0.00  0.00    -0.205 F 
ENDBRANCH   1  16
BRANCH   3  18
ATOM     18  C   UNL     1      -0.825  -2.828   3.208  0.00  0.00    -0.023 A 
ATOM     19  C   UNL     1      -1.898  -3.700   3.206  0.00  0.00    +0.008 A 
ATOM     20  C   UNL     1      -2.268  -4.344   4.371  0.00  0.00    +0.038 A 
ATOM     21  C   UNL     1      -1.563  -4.116   5.541  0.00  0.00    +0.123 A 
ATOM     22  C   UNL     1      -0.489  -3.242   5.542  0.00  0.00    +0.038 A 
ATOM     23  C   UNL     1      -0.118  -2.603   4.374  0.00  0.00    +0.008 A 
ATOM     24  F   UNL     1      -1.924  -4.744   6.681  0.00  0.00    -0.205 F 
ENDBRANCH   3  18
TORSDOF 2
