REMARK  Name = ZINC50774818
REMARK  3 active torsions:
REMARK  status: ('A' for Active; 'I' for Inactive)
REMARK    1  A    between atoms: C_1  and  C_2
REMARK    2  A    between atoms: C_12  and  C_14
REMARK    3  A    between atoms: N_20  and  C_21
REMARK                            x       y       z     vdW  Elec       q    Type
REMARK                         _______ _______ _______ _____ _____    ______ ____
ROOT
ATOM      1  C   UNL     1       0.056   1.527  -0.052  0.00  0.00    +0.033 C 
ATOM      2  C   UNL     1      -0.200   0.038   0.192  0.00  0.00    +0.104 C 
ATOM      3  C   UNL     1      -1.674  -0.185   0.526  0.00  0.00    -0.017 A 
ATOM      4  C   UNL     1      -2.717   0.370  -0.213  0.00  0.00    +0.013 A 
ATOM      5  C   UNL     1      -4.000   0.126   0.139  0.00  0.00    +0.046 A 
ATOM      6  S   UNL     1      -3.796  -0.925   1.569  0.00  0.00    -0.101 S 
ATOM      7  C   UNL     1      -2.022  -0.957   1.591  0.00  0.00    -0.004 A 
ATOM      8  C   UNL     1      -1.118  -1.661   2.550  0.00  0.00    +0.062 C 
ATOM      9  C   UNL     1       0.290  -1.728   1.941  0.00  0.00    +0.114 C 
ATOM     10  N   UNL     1       0.597  -0.422   1.337  0.00  0.00    -0.289 N 
ATOM     11  C   UNL     1       1.593   0.341   1.828  0.00  0.00    +0.267 C 
ATOM     12  O   UNL     1       1.770   1.463   1.393  0.00  0.00    -0.268 OA
ENDROOT
BRANCH  11  13
ATOM     13  C   UNL     1       2.471  -0.185   2.894  0.00  0.00    +0.148 A 
ATOM     14  C   UNL     1       3.216   0.695   3.689  0.00  0.00    +0.038 A 
ATOM     15  C   UNL     1       4.023   0.155   4.674  0.00  0.00    +0.047 A 
ATOM     16  C   UNL     1       4.046  -1.233   4.816  0.00  0.00    +0.141 A 
ATOM     17  N   UNL     1       3.305  -1.993   4.016  0.00  0.00    -0.134 NA
ATOM     18  N   UNL     1       2.551  -1.494   3.105  0.00  0.00    -0.143 NA
ATOM     19  N   UNL     1       4.839  -1.818   5.789  0.00  0.00    -0.331 N 
ATOM     20  C   UNL     1       5.656  -0.980   6.670  0.00  0.00    +0.127 C 
ATOM     21  H   UNL     1       4.854  -2.783   5.887  0.00  0.00    +0.147 HD
ENDBRANCH  11  13
TORSDOF 1
