REMARK  Name = ZINC02413128
REMARK  2 active torsions:
REMARK  status: ('A' for Active; 'I' for Inactive)
REMARK    1  A    between atoms: C_6  and  C_7
REMARK    2  A    between atoms: C_19  and  C_21
REMARK                            x       y       z     vdW  Elec       q    Type
REMARK                         _______ _______ _______ _____ _____    ______ ____
ROOT
ATOM      1  C   UNL     1      -1.293  -0.775   0.011  0.00  0.00    +0.140 C 
ATOM      2  C   UNL     1      -1.587  -1.278   1.429  0.00  0.00    +0.127 C 
ATOM      3  C   UNL     1      -0.739  -2.476   1.756  0.00  0.00    +0.241 C 
ATOM      4  O   UNL     1      -0.365  -2.637   2.903  0.00  0.00    -0.274 OA
ATOM      5  N   UNL     1      -0.387  -3.363   0.834  0.00  0.00    -0.148 NA
ATOM      6  C   UNL     1      -0.741  -3.148  -0.434  0.00  0.00    +0.222 C 
ATOM      7  N   UNL     1      -1.181  -1.940  -0.870  0.00  0.00    -0.184 N 
ATOM      8  N   UNL     1      -1.472  -2.059  -2.225  0.00  0.00    -0.143 NA
ATOM      9  C   UNL     1      -1.194  -3.281  -2.593  0.00  0.00    +0.229 C 
ATOM     10  N   UNL     1      -0.725  -3.978  -1.499  0.00  0.00    -0.149 NA
ATOM     11  N   UNL     1      -1.347  -3.795  -3.876  0.00  0.00    -0.253 N 
ATOM     12  C   UNL     1      -1.024  -5.078  -4.130  0.00  0.00    +0.248 C 
ATOM     13  O   UNL     1      -0.600  -5.785  -3.241  0.00  0.00    -0.273 OA
ATOM     14  H   UNL     1      -1.686  -3.229  -4.587  0.00  0.00    +0.158 HD
ENDROOT
BRANCH   1  20
ATOM     15  C   UNL     1      -0.017   1.378   0.010  0.00  0.00    +0.007 A 
ATOM     16  C   UNL     1       1.171   2.086   0.002  0.00  0.00    +0.020 A 
ATOM     17  C   UNL     1       2.378   1.410  -0.013  0.00  0.00    +0.041 A 
ATOM     18  C   UNL     1       2.396   0.027  -0.021  0.00  0.00    +0.020 A 
ATOM     19  C   UNL     1       1.208  -0.679  -0.013  0.00  0.00    +0.007 A 
ATOM     20  C   UNL     1       0.002  -0.004   0.002  0.00  0.00    -0.025 A 
ATOM     21 CL   UNL     1       3.870   2.298  -0.023  0.00  0.00    -0.084 Cl
ENDBRANCH   1  20
BRANCH  12  22
ATOM     22  C   UNL     1      -1.190  -5.635  -5.521  0.00  0.00    +0.204 C 
ATOM     23  C   UNL     1      -0.203  -4.946  -6.497  0.00  0.00    +0.043 C 
ATOM     24  C   UNL     1      -0.069  -6.034  -7.597  0.00  0.00    +0.031 C 
ATOM     25  C   UNL     1      -0.177  -7.340  -6.781  0.00  0.00    +0.161 C 
ATOM     26  O   UNL     1      -0.835  -7.027  -5.546  0.00  0.00    -0.367 OA
ENDBRANCH  12  22
TORSDOF 2
