REMARK  Name = ZINC65074648
REMARK  4 active torsions:
REMARK  status: ('A' for Active; 'I' for Inactive)
REMARK    1  A    between atoms: C_5  and  C_7
REMARK    2  A    between atoms: C_7  and  N_8
REMARK    3  A    between atoms: N_17  and  S_20
REMARK    4  A    between atoms: S_20  and  C_23
REMARK                            x       y       z     vdW  Elec       q    Type
REMARK                         _______ _______ _______ _____ _____    ______ ____
ROOT
ATOM      1  N   UNL     1       1.488  -2.679   1.333  0.00  0.00    -0.329 N 
ATOM      2  C   UNL     1       1.552  -4.027   1.571  0.00  0.00    +0.089 C 
ATOM      3  N   UNL     1       1.385  -4.824   0.585  0.00  0.00    -0.374 N 
ATOM      4  C   UNL     1       1.417  -6.278   0.702  0.00  0.00    +0.129 C 
ATOM      5  C   UNL     1       2.080  -6.684   2.021  0.00  0.00    +0.102 C 
ATOM      6  N   UNL     1       1.462  -5.909   3.111  0.00  0.00    -0.303 NA
ATOM      7  C   UNL     1       1.820  -4.488   2.976  0.00  0.00    +0.075 C 
ATOM      8  C   UNL     1       3.305  -4.303   3.300  0.00  0.00    +0.047 C 
ATOM      9  C   UNL     1       3.581  -4.811   4.718  0.00  0.00    +0.111 C 
ATOM     10  N   UNL     1       2.673  -4.128   5.650  0.00  0.00    -0.176 NA
ATOM     11  C   UNL     1       1.229  -4.164   5.381  0.00  0.00    +0.111 C 
ATOM     12  C   UNL     1       0.980  -3.664   3.955  0.00  0.00    +0.047 C 
ATOM     13  H   UNL     1       1.614  -2.051   2.062  0.00  0.00    +0.147 HD
ATOM     14  H   UNL     1       0.461  -6.035   3.121  0.00  0.00    +0.123 HD
ATOM     15  H   UNL     1       1.226  -4.440  -0.292  0.00  0.00    +0.161 HD
ENDROOT
BRANCH  10  16
ATOM     16  S   UNL     1       3.265  -3.335   6.977  0.00  0.00    +0.061 S 
ATOM     17  O   UNL     1       2.208  -3.284   7.925  0.00  0.00    -0.153 OA
ATOM     18  O   UNL     1       4.525  -3.922   7.272  0.00  0.00    -0.153 OA
BRANCH  16  19
ATOM     19  C   UNL     1       3.586  -1.672   6.490  0.00  0.00    +0.106 A 
ATOM     20  C   UNL     1       4.824  -1.328   5.980  0.00  0.00    +0.031 A 
ATOM     21  C   UNL     1       5.076  -0.025   5.598  0.00  0.00    +0.040 A 
ATOM     22  C   UNL     1       4.088   0.937   5.725  0.00  0.00    +0.124 A 
ATOM     23  C   UNL     1       2.849   0.592   6.236  0.00  0.00    +0.040 A 
ATOM     24  C   UNL     1       2.597  -0.714   6.614  0.00  0.00    +0.031 A 
ATOM     25  F   UNL     1       4.334   2.212   5.352  0.00  0.00    -0.205 F 
ENDBRANCH  16  19
ENDBRANCH  10  16
BRANCH   1  26
ATOM     26  C   UNL     1       1.228  -2.186  -0.022  0.00  0.00    +0.140 C 
BRANCH  26  31
ATOM     27  C   UNL     1      -0.017   1.378   0.010  0.00  0.00    +0.000 A 
ATOM     28  C   UNL     1       1.171   2.087   0.002  0.00  0.00    +0.003 A 
ATOM     29  C   UNL     1       2.377   1.414  -0.013  0.00  0.00    +0.038 A 
ATOM     30  C   UNL     1       2.397   0.029  -0.021  0.00  0.00    +0.128 A 
ATOM     31  C   UNL     1       1.208  -0.679  -0.013  0.00  0.00    +0.005 A 
ATOM     32  C   UNL     1       0.002  -0.004   0.002  0.00  0.00    +0.008 A 
ATOM     33  F   UNL     1       3.577  -0.630  -0.036  0.00  0.00    -0.205 F 
ENDBRANCH  26  31
ENDBRANCH   1  26
TORSDOF 4
