REMARK  Name = ZINC05174411
REMARK  5 active torsions:
REMARK  status: ('A' for Active; 'I' for Inactive)
REMARK    1  A    between atoms: C_1  and  C_2
REMARK    2  A    between atoms: C_2  and  N_3
REMARK    3  A    between atoms: C_14  and  C_16
REMARK    4  A    between atoms: C_18  and  C_29
REMARK    5  A    between atoms: N_20  and  C_23
REMARK                            x       y       z     vdW  Elec       q    Type
REMARK                         _______ _______ _______ _____ _____    ______ ____
ROOT
ATOM      1  N   UNL     1       2.853   4.746  -1.274  0.00  0.00    -0.340 N 
ATOM      2  C   UNL     1       2.045   3.648  -1.036  0.00  0.00    +0.050 A 
ATOM      3  C   UNL     1       2.272   2.279  -1.127  0.00  0.00    +0.026 A 
ATOM      4  C   UNL     1       1.264   1.389  -0.823  0.00  0.00    +0.002 A 
ATOM      5  C   UNL     1       0.016   1.846  -0.430  0.00  0.00    +0.001 A 
ATOM      6  C   UNL     1      -0.227   3.199  -0.328  0.00  0.00    +0.010 A 
ATOM      7  C   UNL     1       0.782   4.108  -0.632  0.00  0.00    +0.008 A 
ATOM      8  C   UNL     1       0.856   5.582  -0.633  0.00  0.00    +0.008 A 
ATOM      9  C   UNL     1       2.162   5.914  -1.039  0.00  0.00    +0.050 A 
ATOM     10  C   UNL     1       2.532   7.257  -1.137  0.00  0.00    +0.027 A 
ATOM     11  C   UNL     1       1.639   8.242  -0.842  0.00  0.00    +0.010 A 
ATOM     12  C   UNL     1       0.332   7.923  -0.435  0.00  0.00    -0.024 A 
ATOM     13  C   UNL     1      -0.056   6.581  -0.331  0.00  0.00    +0.018 A 
ENDROOT
BRANCH  12  14
ATOM     14  C   UNL     1      -0.620   8.988  -0.122  0.00  0.00    +0.023 C 
ATOM     15  C   UNL     1      -0.225  10.060   0.659  0.00  0.00    +0.062 C 
ATOM     16  C   UNL     1       1.019  10.197   1.431  0.00  0.00    +0.069 C 
ATOM     17  N   UNL     1       0.992  11.356   2.016  0.00  0.00    -0.177 NA
ATOM     18  N   UNL     1      -0.183  12.046   1.724  0.00  0.00    -0.156 N 
ATOM     19  C   UNL     1      -0.963  11.311   0.905  0.00  0.00    +0.272 C 
ATOM     20  O   UNL     1      -2.054  11.619   0.459  0.00  0.00    -0.268 OA
ATOM     21  C   UNL     1       2.126   9.179   1.524  0.00  0.00    +0.068 C 
BRANCH  18  22
ATOM     22  C   UNL     1      -0.508  13.319   2.211  0.00  0.00    +0.060 A 
ATOM     23  C   UNL     1      -1.708  13.917   1.850  0.00  0.00    +0.025 A 
ATOM     24  C   UNL     1      -2.027  15.170   2.336  0.00  0.00    +0.002 A 
ATOM     25  C   UNL     1      -1.148  15.833   3.172  0.00  0.00    +0.000 A 
ATOM     26  C   UNL     1       0.050  15.243   3.529  0.00  0.00    +0.002 A 
ATOM     27  C   UNL     1       0.373  13.988   3.051  0.00  0.00    +0.025 A 
ENDBRANCH  18  22
ENDBRANCH  12  14
BRANCH   1  29
ATOM     28  C   UNL     1       4.302   4.671  -3.243  0.00  0.00    +0.027 C 
ATOM     29  C   UNL     1       4.249   4.675  -1.714  0.00  0.00    +0.119 C 
ENDBRANCH   1  29
TORSDOF 3
