REMARK  Name = ZINC11683244
REMARK  8 active torsions:
REMARK  status: ('A' for Active; 'I' for Inactive)
REMARK    1  A    between atoms: C_1  and  C_2
REMARK    2  A    between atoms: C_6  and  N_9
REMARK    3  A    between atoms: C_7  and  C_8
REMARK    4  A    between atoms: C_12  and  C_15
REMARK    5  A    between atoms: C_15  and  S_16
REMARK    6  A    between atoms: S_16  and  C_17
REMARK    7  A    between atoms: N_21  and  C_26
REMARK    8  A    between atoms: C_27  and  C_29
REMARK                            x       y       z     vdW  Elec       q    Type
REMARK                         _______ _______ _______ _____ _____    ______ ____
ROOT
ATOM      1  N   UNL     1      -1.068  -0.893   0.006  0.00  0.00    -0.219 N 
ATOM      2  C   UNL     1       0.002  -0.004   0.003  0.00  0.00    +0.172 A 
ATOM      3  N   UNL     1      -0.015   1.314   0.012  0.00  0.00    -0.228 NA
ATOM      4  C   UNL     1       1.103   2.013   0.007  0.00  0.00    +0.061 A 
ATOM      5  C   UNL     1       2.282   1.344  -0.008  0.00  0.00    +0.072 A 
ATOM      6  S   UNL     1       1.704  -0.347  -0.015  0.00  0.00    -0.060 S 
ATOM      7  C   UNL     1      -2.329  -0.429   0.123  0.00  0.00    +0.223 C 
ATOM      8  O   UNL     1      -2.537   0.765   0.132  0.00  0.00    -0.275 OA
ATOM      9  C   UNL     1      -3.479  -1.396   0.242  0.00  0.00    +0.110 C 
ENDROOT
BRANCH   1  15
ATOM     10  C   UNL     1      -0.529  -4.867  -2.840  0.00  0.00    +0.044 C 
ATOM     11  C   UNL     1      -0.570  -4.221  -1.478  0.00  0.00    -0.046 A 
ATOM     12  C   UNL     1      -0.379  -4.988  -0.344  0.00  0.00    +0.004 A 
ATOM     13  C   UNL     1      -0.416  -4.399   0.907  0.00  0.00    +0.002 A 
ATOM     14  C   UNL     1      -0.638  -3.041   1.026  0.00  0.00    +0.024 A 
ATOM     15  C   UNL     1      -0.837  -2.269  -0.111  0.00  0.00    +0.046 A 
ATOM     16  C   UNL     1      -0.799  -2.864  -1.366  0.00  0.00    -0.026 A 
ATOM     17  C   UNL     1      -1.008  -2.029  -2.603  0.00  0.00    +0.046 C 
ENDBRANCH   1  15
BRANCH   4  18
ATOM     18  C   UNL     1       1.071   3.519   0.018  0.00  0.00    +0.131 C 
BRANCH  18  19
ATOM     19  S   UNL     1       1.075   4.110   1.729  0.00  0.00    -0.099 S 
BRANCH  19  20
ATOM     20  C   UNL     1       1.035   5.850   1.452  0.00  0.00    +0.111 A 
ATOM     21  C   UNL     1       1.020   6.753   2.533  0.00  0.00    +0.070 A 
ATOM     22  C   UNL     1       1.042   6.620   3.938  0.00  0.00    +0.147 A 
ATOM     23  N   UNL     1       1.022   7.811   4.466  0.00  0.00    -0.177 NA
ATOM     24  N   UNL     1       0.991   8.776   3.452  0.00  0.00    -0.249 N 
ATOM     25  C   UNL     1       0.994   8.132   2.250  0.00  0.00    +0.162 A 
ATOM     26  N   UNL     1       0.973   8.527   0.977  0.00  0.00    -0.216 NA
ATOM     27  C   UNL     1       0.983   7.646   0.001  0.00  0.00    +0.224 A 
ATOM     28  N   UNL     1       1.013   6.343   0.217  0.00  0.00    -0.228 NA
ATOM     29  C   UNL     1       0.961  10.227   3.648  0.00  0.00    +0.174 C 
ENDBRANCH  19  20
ENDBRANCH  18  19
ENDBRANCH   4  18
TORSDOF 4
