REMARK  Name = ZINC35870303
REMARK  5 active torsions:
REMARK  status: ('A' for Active; 'I' for Inactive)
REMARK    1  A    between atoms: C_4  and  C_7
REMARK    2  A    between atoms: C_7  and  N_8
REMARK    3  A    between atoms: C_9  and  C_11
REMARK    4  A    between atoms: C_16  and  N_33
REMARK    5  A    between atoms: N_24  and  C_27
REMARK                            x       y       z     vdW  Elec       q    Type
REMARK                         _______ _______ _______ _____ _____    ______ ____
ROOT
ATOM      1  C   UNL     1       5.746  -1.858   2.961  0.00  0.00    +0.101 C 
ATOM      2  C   UNL     1       5.902  -0.524   3.690  0.00  0.00    +0.051 C 
ATOM      3  C   UNL     1       7.005   0.262   3.029  0.00  0.00    -0.023 A 
ATOM      4  C   UNL     1       6.968   1.644   3.055  0.00  0.00    +0.038 A 
ATOM      5  C   UNL     1       7.969   2.375   2.442  0.00  0.00    +0.127 A 
ATOM      6  C   UNL     1       9.008   1.725   1.802  0.00  0.00    +0.034 A 
ATOM      7  C   UNL     1       9.051   0.346   1.777  0.00  0.00    +0.025 A 
ATOM      8  C   UNL     1       8.047  -0.392   2.398  0.00  0.00    +0.033 A 
ATOM      9  N   UNL     1       8.134  -1.795   2.377  0.00  0.00    -0.323 N 
ATOM     10  C   UNL     1       7.081  -2.609   2.955  0.00  0.00    +0.103 C 
ATOM     11  C   UNL     1       6.882  -3.933   2.237  0.00  0.00    +0.128 C 
ATOM     12  N   UNL     1       8.111  -4.470   1.687  0.00  0.00    -0.327 N 
ATOM     13  C   UNL     1       9.104  -3.637   1.031  0.00  0.00    +0.124 C 
ATOM     14  C   UNL     1       9.351  -2.364   1.802  0.00  0.00    +0.124 C 
ENDROOT
BRANCH  12  15
ATOM     15  C   UNL     1       8.350  -5.843   1.792  0.00  0.00    +0.030 A 
ATOM     16  C   UNL     1       9.461  -6.405   1.178  0.00  0.00    +0.023 A 
ATOM     17  C   UNL     1       9.695  -7.762   1.285  0.00  0.00    +0.002 A 
ATOM     18  C   UNL     1       8.823  -8.561   2.002  0.00  0.00    +0.000 A 
ATOM     19  C   UNL     1       7.716  -8.004   2.615  0.00  0.00    +0.002 A 
ATOM     20  C   UNL     1       7.479  -6.647   2.517  0.00  0.00    +0.023 A 
ENDBRANCH  12  15
BRANCH   1  22
ATOM     21  N   UNL     1       4.153  -0.955   1.297  0.00  0.00    -0.311 N 
ATOM     22  C   UNL     1       5.310  -1.603   1.541  0.00  0.00    +0.219 C 
ATOM     23  O   UNL     1       5.999  -1.980   0.618  0.00  0.00    -0.275 OA
ATOM     24  H   UNL     1       3.601  -0.653   2.036  0.00  0.00    +0.149 HD
BRANCH  21  25
ATOM     25  C   UNL     1       3.729  -0.708  -0.083  0.00  0.00    +0.139 C 
BRANCH  25  29
ATOM     26  C   UNL     1      -0.001   1.374  -0.077  0.00  0.00    +0.000 A 
ATOM     27  C   UNL     1       1.186   2.083  -0.068  0.00  0.00    +0.000 A 
ATOM     28  C   UNL     1       2.393   1.409  -0.070  0.00  0.00    +0.005 A 
ATOM     29  C   UNL     1       2.413   0.027  -0.080  0.00  0.00    -0.030 A 
ATOM     30  C   UNL     1       1.226  -0.682  -0.087  0.00  0.00    +0.005 A 
ATOM     31  C   UNL     1       0.019  -0.008  -0.087  0.00  0.00    +0.000 A 
ENDBRANCH  25  29
ENDBRANCH  21  25
ENDBRANCH   1  22
BRANCH   5  32
ATOM     32  N   UNL     1       7.928   3.854   2.472  0.00  0.00    +0.056 N 
ATOM     33  O   UNL     1       7.020   4.423   3.032  0.00  0.00    -0.126 OA
ATOM     34  O   UNL     1       8.803   4.493   1.936  0.00  0.00    -0.126 OA
ENDBRANCH   5  32
TORSDOF 5
