REMARK  Name = ZINC52607409
REMARK  9 active torsions:
REMARK  status: ('A' for Active; 'I' for Inactive)
REMARK    1  A    between atoms: C_1  and  O_2
REMARK    2  A    between atoms: O_2  and  C_3
REMARK    3  A    between atoms: C_4  and  O_20
REMARK    4  A    between atoms: C_8  and  C_9
REMARK    5  A    between atoms: C_9  and  S_10
REMARK    6  A    between atoms: S_10  and  C_12
REMARK    7  A    between atoms: O_20  and  C_21
REMARK    8  A    between atoms: C_21  and  C_22
REMARK    9  A    between atoms: C_25  and  C_28
REMARK                            x       y       z     vdW  Elec       q    Type
REMARK                         _______ _______ _______ _____ _____    ______ ____
ROOT
ATOM      1  C   UNL     1       0.606  -0.608  -1.056  0.00  0.00    +0.182 A 
ATOM      2  C   UNL     1      -0.126  -0.928  -2.203  0.00  0.00    +0.165 A 
ATOM      3  C   UNL     1       0.538  -1.544  -3.258  0.00  0.00    +0.067 A 
ATOM      4  C   UNL     1       1.887  -1.815  -3.137  0.00  0.00    +0.086 A 
ATOM      5  N   UNL     1       2.547  -1.499  -2.039  0.00  0.00    -0.361 N 
ATOM      6  C   UNL     1       1.956  -0.908  -1.017  0.00  0.00    +0.075 A 
ATOM      7  H   UNL     1       3.493  -1.702  -1.983  0.00  0.00    +0.165 HD
ENDROOT
BRANCH   1   9
ATOM      8  C   UNL     1      -0.017   1.425   0.010  0.00  0.00    +0.277 C 
ATOM      9  O   UNL     1       0.002  -0.004   0.002  0.00  0.00    -0.490 OA
ENDBRANCH   1   9
BRANCH   6  10
ATOM     10  C   UNL     1       2.761  -0.563   0.210  0.00  0.00    +0.169 C 
BRANCH  10  11
ATOM     11  S   UNL     1       2.722  -1.958   1.370  0.00  0.00    +0.097 S 
ATOM     12  O   UNL     1       1.415  -2.088   1.911  0.00  0.00    -0.249 OA
BRANCH  11  13
ATOM     13  C   UNL     1       3.694  -1.405   2.732  0.00  0.00    +0.220 C 
ATOM     14  N   UNL     1       3.242  -1.201   3.941  0.00  0.00    -0.218 NA
ATOM     15  C   UNL     1       4.285  -0.779   4.725  0.00  0.00    +0.095 C 
ATOM     16  C   UNL     1       4.439  -0.408   6.072  0.00  0.00    +0.070 C 
ATOM     17  S   UNL     1       6.050  -0.005   6.287  0.00  0.00    -0.125 S 
ATOM     18  C   UNL     1       6.666  -0.298   4.585  0.00  0.00    +0.131 C 
ATOM     19  C   UNL     1       5.393  -0.749   3.885  0.00  0.00    +0.080 C 
ATOM     20  N   UNL     1       4.994  -1.142   2.683  0.00  0.00    -0.222 NA
ENDBRANCH  11  13
ENDBRANCH  10  11
ENDBRANCH   6  10
BRANCH   2  21
ATOM     21  O   UNL     1      -1.452  -0.645  -2.284  0.00  0.00    -0.484 OA
BRANCH  21  22
ATOM     22  C   UNL     1      -2.119  -1.009  -3.494  0.00  0.00    +0.264 C 
BRANCH  22  23
ATOM     23  C   UNL     1      -3.573  -0.621  -3.402  0.00  0.00    -0.010 A 
ATOM     24  C   UNL     1      -4.495  -1.514  -2.890  0.00  0.00    +0.007 A 
ATOM     25  C   UNL     1      -5.829  -1.158  -2.806  0.00  0.00    +0.013 A 
ATOM     26  C   UNL     1      -6.239   0.091  -3.232  0.00  0.00    +0.055 A 
ATOM     27  C   UNL     1      -5.316   0.985  -3.743  0.00  0.00    +0.013 A 
ATOM     28  C   UNL     1      -3.982   0.630  -3.824  0.00  0.00    +0.007 A 
BRANCH  26  29
ATOM     29  C   UNL     1      -7.692   0.479  -3.141  0.00  0.00    +0.417 C 
ATOM     30  F   UNL     1      -7.938   1.079  -1.902  0.00  0.00    -0.166 F 
ATOM     31  F   UNL     1      -8.000   1.381  -4.165  0.00  0.00    -0.166 F 
ATOM     32  F   UNL     1      -8.489  -0.664  -3.272  0.00  0.00    -0.166 F 
ENDBRANCH  26  29
ENDBRANCH  22  23
ENDBRANCH  21  22
ENDBRANCH   2  21
TORSDOF 8
