REMARK  Name = ZINC14754046
REMARK  9 active torsions:
REMARK  status: ('A' for Active; 'I' for Inactive)
REMARK    1  A    between atoms: C_1  and  N_2
REMARK    2  A    between atoms: C_5  and  C_7
REMARK    3  A    between atoms: N_9  and  C_10
REMARK    4  A    between atoms: N_9  and  C_11
REMARK    5  A    between atoms: C_11  and  C_12
REMARK    6  A    between atoms: C_19  and  N_63
REMARK    7  A    between atoms: C_23  and  C_24
REMARK    8  A    between atoms: C_23  and  N_63
REMARK    9  A    between atoms: C_24  and  O_30
REMARK                            x       y       z     vdW  Elec       q    Type
REMARK                         _______ _______ _______ _____ _____    ______ ____
ROOT
ATOM      1  C   UNL     1       2.456   5.376  -1.236  0.00  0.00    +0.172 C 
ATOM      2  N   UNL     1       2.132   3.970  -0.987  0.00  0.00    -0.270 N 
ATOM      3  C   UNL     1       3.017   2.960  -1.005  0.00  0.00    +0.043 A 
ATOM      4  C   UNL     1       2.334   1.822  -0.727  0.00  0.00    +0.004 A 
ATOM      5  C   UNL     1       0.996   2.210  -0.546  0.00  0.00    +0.151 A 
ATOM      6  N   UNL     1       0.954   3.519  -0.724  0.00  0.00    -0.166 NA
ATOM      7  C   UNL     1       2.952   0.454  -0.644  0.00  0.00    +0.023 C 
ATOM      8  C   UNL     1       4.473   0.619  -0.514  0.00  0.00    -0.067 C 
ATOM      9  C   UNL     1       4.976   1.582  -1.593  0.00  0.00    -0.009 C 
ATOM     10  C   UNL     1       4.499   3.005  -1.276  0.00  0.00    +0.054 C 
ENDROOT
BRANCH   5  11
ATOM     11  C   UNL     1      -0.143   1.325  -0.224  0.00  0.00    +0.267 C 
ATOM     12  O   UNL     1       0.016   0.121  -0.181  0.00  0.00    -0.268 OA
ATOM     13  N   UNL     1      -1.359   1.854   0.016  0.00  0.00    -0.295 N 
ATOM     14  C   UNL     1      -1.565   3.300  -0.098  0.00  0.00    +0.132 C 
BRANCH  13  15
ATOM     15  C   UNL     1      -2.475   0.982   0.390  0.00  0.00    +0.142 C 
BRANCH  15  16
ATOM     16  C   UNL     1      -2.520   0.839   1.890  0.00  0.00    -0.030 A 
ATOM     17  C   UNL     1      -1.824  -0.183   2.508  0.00  0.00    +0.005 A 
ATOM     18  C   UNL     1      -1.860  -0.311   3.884  0.00  0.00    +0.000 A 
ATOM     19  C   UNL     1      -2.602   0.577   4.641  0.00  0.00    +0.000 A 
ATOM     20  C   UNL     1      -3.303   1.595   4.023  0.00  0.00    +0.000 A 
ATOM     21  C   UNL     1      -3.261   1.727   2.647  0.00  0.00    +0.005 A 
ENDBRANCH  15  16
ENDBRANCH  13  15
ENDBRANCH   5  11
BRANCH   8  22
ATOM     22  N   UNL     1       5.119  -0.696  -0.688  0.00  0.00    +0.383 N 
ATOM     23  H   UNL     1       5.252  -0.877  -1.690  0.00  0.00    -0.085 HD
ATOM     24  H   UNL     1       4.518  -1.425  -0.286  0.00  0.00    -0.085 HD
BRANCH  22  25
ATOM     25  C   UNL     1       6.429  -0.716  -0.011  0.00  0.00    -0.047 C 
BRANCH  25  26
ATOM     26  C   UNL     1       7.074  -2.089  -0.208  0.00  0.00    +0.051 C 
ATOM     27  C   UNL     1       6.115  -3.178   0.276  0.00  0.00    +0.033 C 
ATOM     28  C   UNL     1       6.760  -4.551   0.079  0.00  0.00    +0.003 C 
ATOM     29  C   UNL     1       8.060  -4.624   0.881  0.00  0.00    +0.000 C 
ATOM     30  C   UNL     1       9.020  -3.535   0.397  0.00  0.00    +0.003 C 
ATOM     31  C   UNL     1       8.375  -2.162   0.594  0.00  0.00    +0.033 C 
BRANCH  26  32
ATOM     32  O   UNL     1       7.358  -2.287  -1.595  0.00  0.00    -0.390 OA
ATOM     33  H   UNL     1       6.577  -2.254  -2.165  0.00  0.00    +0.210 HD
ENDBRANCH  26  32
ENDBRANCH  25  26
ENDBRANCH  22  25
ENDBRANCH   8  22
TORSDOF 7
