REMARK  Name = ZINC20882235
REMARK  5 active torsions:
REMARK  status: ('A' for Active; 'I' for Inactive)
REMARK    1  A    between atoms: C_1  and  C_2
REMARK    2  A    between atoms: C_2  and  C_3
REMARK    3  A    between atoms: C_6  and  C_9
REMARK    4  A    between atoms: C_14  and  C_20
REMARK    5  A    between atoms: C_24  and  N_26
REMARK                            x       y       z     vdW  Elec       q    Type
REMARK                         _______ _______ _______ _____ _____    ______ ____
ROOT
ATOM      1  C   UNL     1       1.911   6.133  -3.692  0.00  0.00    +0.032 C 
ATOM      2  C   UNL     1       2.677   6.545  -2.433  0.00  0.00    +0.059 C 
ATOM      3  C   UNL     1       1.964   6.021  -1.212  0.00  0.00    +0.018 C 
ATOM      4  C   UNL     1       0.623   5.867  -1.206  0.00  0.00    +0.020 C 
ATOM      5  C   UNL     1      -0.070   5.347   0.031  0.00  0.00    +0.063 C 
ATOM      6  C   UNL     1       0.657   5.860   1.275  0.00  0.00    +0.109 C 
ATOM      7  C   UNL     1       2.136   5.623   1.114  0.00  0.00    +0.218 C 
ATOM      8  O   UNL     1       2.816   5.361   2.083  0.00  0.00    -0.275 OA
ATOM      9  N   UNL     1       2.704   5.702  -0.102  0.00  0.00    -0.289 N 
ATOM     10  C   UNL     1      -0.154   6.180  -2.334  0.00  0.00    +0.162 C 
ATOM     11  O   UNL     1      -1.360   6.040  -2.287  0.00  0.00    -0.292 OA
ATOM     12  C   UNL     1       0.485   6.686  -3.600  0.00  0.00    +0.088 C 
ATOM     13  H   UNL     1       3.782   5.505  -0.198  0.00  0.00    +0.155 HD
ENDROOT
BRANCH   1  17
ATOM     14  C   UNL     1       3.851   7.740  -7.142  0.00  0.00    -0.048 A 
ATOM     15  C   UNL     1       3.686   6.373  -7.016  0.00  0.00    +0.004 A 
ATOM     16  C   UNL     1       3.058   5.853  -5.899  0.00  0.00    +0.004 A 
ATOM     17  C   UNL     1       2.596   6.700  -4.909  0.00  0.00    -0.043 A 
ATOM     18  C   UNL     1       2.756   8.067  -5.038  0.00  0.00    +0.004 A 
ATOM     19  C   UNL     1       3.388   8.586  -6.152  0.00  0.00    +0.004 A 
BRANCH  14  21
ATOM     20  C   UNL     1       3.493   8.590  -9.444  0.00  0.00    +0.009 C 
ATOM     21  C   UNL     1       4.535   8.307  -8.359  0.00  0.00    +0.032 C 
ENDBRANCH  14  21
ENDBRANCH   1  17
BRANCH   5  22
ATOM     22  C   UNL     1      -0.050   3.840   0.023  0.00  0.00    -0.037 A 
ATOM     23  C   UNL     1       1.157   3.165   0.008  0.00  0.00    +0.004 A 
ATOM     24  C   UNL     1       1.175   1.783   0.000  0.00  0.00    +0.003 A 
ATOM     25  C   UNL     1      -0.013   1.076   0.008  0.00  0.00    +0.033 A 
ATOM     26  C   UNL     1      -1.219   1.750   0.017  0.00  0.00    +0.126 A 
ATOM     27  C   UNL     1      -1.238   3.133   0.030  0.00  0.00    +0.037 A 
BRANCH  26  28
ATOM     28  N   UNL     1      -2.490   0.993   0.019  0.00  0.00    +0.056 N 
ATOM     29  O   UNL     1      -2.474  -0.225   0.013  0.00  0.00    -0.126 OA
ATOM     30  O   UNL     1      -3.554   1.588   0.028  0.00  0.00    -0.126 OA
ENDBRANCH  26  28
ENDBRANCH   5  22
TORSDOF 4
