REMARK  Name = ZINC41174034
REMARK  4 active torsions:
REMARK  status: ('A' for Active; 'I' for Inactive)
REMARK    1  A    between atoms: C_1  and  O_2
REMARK    2  A    between atoms: O_2  and  C_3
REMARK    3  A    between atoms: C_6  and  C_9
REMARK    4  A    between atoms: N_18  and  C_19
REMARK                            x       y       z     vdW  Elec       q    Type
REMARK                         _______ _______ _______ _____ _____    ______ ____
ROOT
ATOM      1  C   UNL     1       2.512  -2.503  -4.383  0.00  0.00    +0.166 C 
ATOM      2  C   UNL     1       1.458  -2.849  -5.440  0.00  0.00    +0.145 C 
ATOM      3  N   UNL     1       2.098  -3.666  -6.484  0.00  0.00    -0.281 N 
ATOM      4  C   UNL     1       2.880  -4.838  -6.061  0.00  0.00    +0.137 C 
ATOM      5  C   UNL     1       3.865  -4.396  -4.973  0.00  0.00    +0.179 C 
ATOM      6  O   UNL     1       3.153  -3.704  -3.945  0.00  0.00    -0.369 OA
ATOM      7  C   UNL     1       1.970  -3.350  -7.788  0.00  0.00    +0.303 C 
ATOM      8  O   UNL     1       2.582  -3.980  -8.628  0.00  0.00    -0.253 OA
ATOM      9  N   UNL     1       1.164  -2.336  -8.160  0.00  0.00    -0.296 N 
ATOM     10  H   UNL     1       0.732  -1.788  -7.486  0.00  0.00    +0.151 HD
ENDROOT
BRANCH   1  14
ATOM     11  C   UNL     1       0.625  -0.598  -1.056  0.00  0.00    +0.120 A 
ATOM     12  C   UNL     1       1.194   0.168  -2.064  0.00  0.00    +0.046 A 
ATOM     13  C   UNL     1       1.804  -0.451  -3.138  0.00  0.00    +0.010 A 
ATOM     14  C   UNL     1       1.847  -1.831  -3.209  0.00  0.00    -0.017 A 
ATOM     15  C   UNL     1       1.280  -2.596  -2.206  0.00  0.00    +0.010 A 
ATOM     16  C   UNL     1       0.675  -1.982  -1.127  0.00  0.00    +0.046 A 
BRANCH  11  18
ATOM     17  C   UNL     1       0.011   1.438   0.009  0.00  0.00    +0.277 C 
ATOM     18  O   UNL     1       0.025   0.009   0.002  0.00  0.00    -0.495 OA
ENDBRANCH  11  18
ENDBRANCH   1  14
BRANCH   9  19
ATOM     19  C   UNL     1       0.940  -2.062  -9.581  0.00  0.00    +0.074 C 
ATOM     20  C   UNL     1       2.063  -1.169 -10.112  0.00  0.00    +0.022 C 
ATOM     21  C   UNL     1       1.829  -0.883 -11.597  0.00  0.00    +0.002 C 
ATOM     22  C   UNL     1       0.486  -0.173 -11.774  0.00  0.00    +0.000 C 
ATOM     23  C   UNL     1      -0.637  -1.066 -11.243  0.00  0.00    +0.002 C 
ATOM     24  C   UNL     1      -0.404  -1.352  -9.758  0.00  0.00    +0.022 C 
ENDBRANCH   9  19
TORSDOF 3
