REMARK  Name = ZINC14626764
REMARK  3 active torsions:
REMARK  status: ('A' for Active; 'I' for Inactive)
REMARK    1  A    between atoms: C_5  and  C_8
REMARK    2  A    between atoms: N_10  and  C_11
REMARK    3  A    between atoms: C_12  and  C_16
REMARK                            x       y       z     vdW  Elec       q    Type
REMARK                         _______ _______ _______ _____ _____    ______ ____
ROOT
ATOM      1  C   UNL     1       1.715  -2.638  -0.028  0.00  0.00    +0.268 C 
ATOM      2  O   UNL     1       0.499  -2.629  -0.016  0.00  0.00    -0.268 OA
ATOM      3  N   UNL     1       2.397  -1.476  -0.029  0.00  0.00    -0.274 N 
ATOM      4  H   UNL     1       3.367  -1.483  -0.038  0.00  0.00    +0.156 HD
ENDROOT
BRANCH   1   9
ATOM      5  C   UNL     1       2.432  -6.323  -0.055  0.00  0.00    +0.025 A 
ATOM      6  C   UNL     1       3.817  -6.281  -0.069  0.00  0.00    +0.041 A 
ATOM      7  C   UNL     1       4.460  -5.051  -0.069  0.00  0.00    +0.130 A 
ATOM      8  N   UNL     1       3.773  -3.929  -0.061  0.00  0.00    -0.229 NA
ATOM      9  C   UNL     1       2.445  -3.925  -0.042  0.00  0.00    +0.146 A 
ATOM     10  C   UNL     1       1.733  -5.124  -0.041  0.00  0.00    +0.072 A 
ATOM     11 CL   UNL     1      -0.003  -5.117  -0.024  0.00  0.00    -0.081 Cl
ATOM     12 CL   UNL     1       6.195  -4.993  -0.085  0.00  0.00    -0.062 Cl
ENDBRANCH   1   9
BRANCH   3  13
ATOM     13  C   UNL     1       1.713  -0.270  -0.016  0.00  0.00    +0.090 A 
ATOM     14  C   UNL     1       2.234   1.018  -0.014  0.00  0.00    +0.080 A 
ATOM     15  C   UNL     1       1.284   2.104   0.001  0.00  0.00    +0.028 A 
ATOM     16  C   UNL     1      -0.022   1.777   0.012  0.00  0.00    +0.048 A 
ATOM     17  S   UNL     1       0.002  -0.004   0.002  0.00  0.00    -0.081 S 
BRANCH  14  18
ATOM     18  C   UNL     1       3.646   1.257  -0.026  0.00  0.00    +0.102 C 
ATOM     19  N   UNL     1       4.766   1.446  -0.036  0.00  0.00    -0.191 NA
ENDBRANCH  14  18
ENDBRANCH   3  13
TORSDOF 3
