REMARK  Name = ZINC39662373
REMARK  8 active torsions:
REMARK  status: ('A' for Active; 'I' for Inactive)
REMARK    1  A    between atoms: C_1  and  C_2
REMARK    2  A    between atoms: C_2  and  C_4
REMARK    3  A    between atoms: C_2  and  O_30
REMARK    4  A    between atoms: C_8  and  C_17
REMARK    5  A    between atoms: N_19  and  C_20
REMARK    6  A    between atoms: C_20  and  C_22
REMARK    7  A    between atoms: C_20  and  C_24
REMARK    8  A    between atoms: O_30  and  C_31
REMARK                            x       y       z     vdW  Elec       q    Type
REMARK                         _______ _______ _______ _____ _____    ______ ____
ROOT
ATOM      1  C   UNL     1       0.852  -0.294  -1.672  0.00  0.00    +0.256 C 
ATOM      2  O   UNL     1       0.277  -0.748  -2.639  0.00  0.00    -0.272 OA
ATOM      3  N   UNL     1       2.162   0.013  -1.749  0.00  0.00    -0.297 N 
ATOM      4  C   UNL     1       3.029   0.566  -0.682  0.00  0.00    +0.121 C 
ATOM      5  C   UNL     1       4.378  -0.169  -0.856  0.00  0.00    +0.100 C 
ATOM      6  C   UNL     1       4.393  -0.619  -2.326  0.00  0.00    -0.004 C 
ATOM      7  C   UNL     1       3.062  -0.133  -2.918  0.00  0.00    +0.115 C 
ATOM      8  C   UNL     1       4.477  -2.140  -2.412  0.00  0.00    -0.010 C 
ATOM      9  C   UNL     1       4.548  -2.560  -3.883  0.00  0.00    -0.082 C 
ATOM     10  N   UNL     1       5.725  -1.948  -4.512  0.00  0.00    +0.379 N 
ATOM     11  C   UNL     1       5.592  -0.487  -4.508  0.00  0.00    -0.082 C 
ATOM     12  C   UNL     1       5.565   0.021  -3.063  0.00  0.00    -0.010 C 
ATOM     13  H   UNL     1       6.553  -2.211  -3.999  0.00  0.00    -0.086 HD
ATOM     14  H   UNL     1       5.804  -2.275  -5.464  0.00  0.00    -0.086 HD
ENDROOT
BRANCH   5  15
ATOM     15  C   UNL     1       4.447  -1.363   0.062  0.00  0.00    +0.219 C 
ATOM     16  O   UNL     1       3.432  -1.955   0.364  0.00  0.00    -0.275 OA
ATOM     17  N   UNL     1       5.636  -1.772   0.546  0.00  0.00    -0.296 N 
ATOM     18  H   UNL     1       6.447  -1.299   0.304  0.00  0.00    +0.150 HD
BRANCH  17  19
ATOM     19  C   UNL     1       5.703  -2.933   1.438  0.00  0.00    +0.207 C 
BRANCH  19  20
ATOM     20  C   UNL     1       6.935  -2.833   2.300  0.00  0.00    -0.013 A 
ATOM     21  C   UNL     1       8.121  -2.374   1.760  0.00  0.00    +0.006 A 
ATOM     22  C   UNL     1       9.251  -2.283   2.551  0.00  0.00    +0.000 A 
ATOM     23  C   UNL     1       9.194  -2.649   3.883  0.00  0.00    +0.000 A 
ATOM     24  C   UNL     1       8.007  -3.107   4.424  0.00  0.00    +0.000 A 
ATOM     25  C   UNL     1       6.876  -3.194   3.633  0.00  0.00    +0.006 A 
ENDBRANCH  19  20
BRANCH  19  26
ATOM     26  C   UNL     1       5.765  -4.165   0.635  0.00  0.00    +0.090 C 
ATOM     27  N   UNL     1       5.812  -5.117   0.016  0.00  0.00    -0.194 NA
ENDBRANCH  19  26
ENDBRANCH  17  19
ENDBRANCH   5  15
BRANCH   1  29
ATOM     28  C   UNL     1       0.049   1.425  -0.074  0.00  0.00    +0.062 C 
ATOM     29  C   UNL     1       0.101  -0.073  -0.384  0.00  0.00    +0.256 C 
BRANCH  29  30
ATOM     30  O   UNL     1      -1.230  -0.578  -0.516  0.00  0.00    -0.480 OA
BRANCH  30  31
ATOM     31  C   UNL     1      -1.865  -0.949   0.627  0.00  0.00    +0.122 A 
ATOM     32  C   UNL     1      -3.112  -1.552   0.564  0.00  0.00    +0.045 A 
ATOM     33  C   UNL     1      -3.756  -1.929   1.727  0.00  0.00    +0.004 A 
ATOM     34  C   UNL     1      -3.158  -1.703   2.954  0.00  0.00    +0.000 A 
ATOM     35  C   UNL     1      -1.915  -1.101   3.019  0.00  0.00    +0.004 A 
ATOM     36  C   UNL     1      -1.265  -0.728   1.858  0.00  0.00    +0.045 A 
ENDBRANCH  30  31
ENDBRANCH  29  30
ENDBRANCH   1  29
TORSDOF 7
