REMARK  Name = ZINC01067312
REMARK  6 active torsions:
REMARK  status: ('A' for Active; 'I' for Inactive)
REMARK    1  A    between atoms: C_1  and  C_2
REMARK    2  A    between atoms: C_7  and  N_8
REMARK    3  A    between atoms: N_11  and  C_12
REMARK    4  A    between atoms: C_13  and  C_25
REMARK    5  A    between atoms: N_14  and  C_19
REMARK    6  A    between atoms: N_17  and  C_18
REMARK                            x       y       z     vdW  Elec       q    Type
REMARK                         _______ _______ _______ _____ _____    ______ ____
ROOT
ATOM      1  N   UNL     1       0.979   0.400   2.647  0.00  0.00    -0.269 N 
ATOM      2  C   UNL     1       0.935  -0.347   3.768  0.00  0.00    +0.309 C 
ATOM      3  O   UNL     1       1.794  -1.183   3.975  0.00  0.00    -0.252 OA
ATOM      4  N   UNL     1      -0.060  -0.168   4.659  0.00  0.00    -0.254 N 
ATOM      5  H   UNL     1       0.329   1.107   2.510  0.00  0.00    +0.156 HD
ATOM      6  H   UNL     1      -0.782   0.448   4.462  0.00  0.00    +0.158 HD
ENDROOT
BRANCH   1  13
ATOM      7  C   UNL     1       0.292   0.764  -0.090  0.00  0.00    +0.046 C 
ATOM      8  C   UNL     1       1.669   0.322   0.334  0.00  0.00    -0.028 A 
ATOM      9  C   UNL     1       2.642   0.086  -0.618  0.00  0.00    +0.025 A 
ATOM     10  C   UNL     1       3.906  -0.320  -0.230  0.00  0.00    +0.041 A 
ATOM     11  C   UNL     1       4.199  -0.492   1.112  0.00  0.00    +0.022 A 
ATOM     12  C   UNL     1       3.230  -0.258   2.067  0.00  0.00    +0.025 A 
ATOM     13  C   UNL     1       1.962   0.156   1.681  0.00  0.00    +0.038 A 
ATOM     14 CL   UNL     1       5.127  -0.617  -1.428  0.00  0.00    -0.084 Cl
ENDBRANCH   1  13
BRANCH   4  15
ATOM     15  C   UNL     1      -0.051  -0.872   5.868  0.00  0.00    +0.130 A 
ATOM     16  C   UNL     1      -0.053  -0.335   7.091  0.00  0.00    +0.064 A 
ATOM     17  N   UNL     1      -0.042  -1.379   8.013  0.00  0.00    -0.263 N 
ATOM     18  C   UNL     1      -0.033  -2.539   7.327  0.00  0.00    +0.335 A 
ATOM     19  O   UNL     1      -0.021  -3.655   7.813  0.00  0.00    -0.246 OA
ATOM     20  N   UNL     1      -0.044  -2.252   6.011  0.00  0.00    -0.283 N 
ATOM     21  C   UNL     1      -0.046  -3.228   4.919  0.00  0.00    +0.155 C 
ATOM     22  C   UNL     1      -0.066   1.137   7.416  0.00  0.00    +0.067 C 
BRANCH  17  23
ATOM     23  C   UNL     1      -0.039  -1.248   9.407  0.00  0.00    +0.051 A 
ATOM     24  C   UNL     1       1.061  -1.667  10.144  0.00  0.00    +0.026 A 
ATOM     25  C   UNL     1       1.060  -1.535  11.519  0.00  0.00    +0.002 A 
ATOM     26  C   UNL     1      -0.034  -0.986  12.162  0.00  0.00    +0.000 A 
ATOM     27  C   UNL     1      -1.131  -0.568  11.431  0.00  0.00    +0.002 A 
ATOM     28  C   UNL     1      -1.134  -0.692  10.056  0.00  0.00    +0.026 A 
ENDBRANCH  17  23
ENDBRANCH   4  15
TORSDOF 3
