REMARK  Name = ZINC03987257
REMARK  7 active torsions:
REMARK  status: ('A' for Active; 'I' for Inactive)
REMARK    1  A    between atoms: C_1  and  C_2
REMARK    2  A    between atoms: C_5  and  C_33
REMARK    3  A    between atoms: N_8  and  S_10
REMARK    4  A    between atoms: S_10  and  C_13
REMARK    5  A    between atoms: C_16  and  C_19
REMARK    6  A    between atoms: C_25  and  O_31
REMARK    7  A    between atoms: O_31  and  C_32
REMARK                            x       y       z     vdW  Elec       q    Type
REMARK                         _______ _______ _______ _____ _____    ______ ____
ROOT
ATOM      1  C   UNL     1      -4.043   3.754   0.061  0.00  0.00    +0.106 A 
ATOM      2  C   UNL     1      -4.642   3.400  -1.135  0.00  0.00    +0.029 A 
ATOM      3  C   UNL     1      -5.809   2.664  -1.135  0.00  0.00    +0.015 A 
ATOM      4  C   UNL     1      -6.391   2.285   0.075  0.00  0.00    +0.037 A 
ATOM      5  C   UNL     1      -5.785   2.651   1.279  0.00  0.00    +0.015 A 
ATOM      6  C   UNL     1      -4.616   3.382   1.264  0.00  0.00    +0.029 A 
ENDROOT
BRANCH   4   7
ATOM      7  C   UNL     1      -7.644   1.502   0.083  0.00  0.00    +0.250 C 
ATOM      8  O   UNL     1      -8.150   1.174   1.139  0.00  0.00    -0.270 OA
ATOM      9  N   UNL     1      -8.227   1.151  -1.081  0.00  0.00    -0.261 N 
ATOM     10  C   UNL     1      -9.401   0.417  -1.074  0.00  0.00    +0.166 A 
ATOM     11  N   UNL     1     -10.112  -0.009  -2.091  0.00  0.00    -0.221 NA
ATOM     12  C   UNL     1     -11.247  -0.726  -1.935  0.00  0.00    +0.122 A 
ATOM     13  C   UNL     1     -12.099  -1.247  -2.942  0.00  0.00    +0.146 A 
ATOM     14  C   UNL     1     -13.228  -1.956  -2.606  0.00  0.00    +0.048 A 
ATOM     15  C   UNL     1     -13.572  -2.185  -1.281  0.00  0.00    +0.005 A 
ATOM     16  C   UNL     1     -12.761  -1.692  -0.276  0.00  0.00    +0.017 A 
ATOM     17  C   UNL     1     -11.631  -0.981  -0.600  0.00  0.00    +0.044 A 
ATOM     18  S   UNL     1     -10.339  -0.185   0.324  0.00  0.00    -0.052 S 
ATOM     19  H   UNL     1      -7.824   1.413  -1.923  0.00  0.00    +0.157 HD
BRANCH  13  20
ATOM     20  O   UNL     1     -11.797  -1.044  -4.251  0.00  0.00    -0.493 OA
ATOM     21  C   UNL     1     -12.695  -1.593  -5.217  0.00  0.00    +0.277 C 
ENDBRANCH  13  20
ENDBRANCH   4   7
BRANCH   1  22
ATOM     22  S   UNL     1      -2.550   4.688   0.052  0.00  0.00    +0.061 S 
ATOM     23  O   UNL     1      -2.485   5.364   1.300  0.00  0.00    -0.153 OA
ATOM     24  O   UNL     1      -2.509   5.377  -1.190  0.00  0.00    -0.153 OA
BRANCH  22  30
ATOM     25  C   UNL     1      -2.198   1.093  -1.204  0.00  0.00    +0.009 C 
ATOM     26  C   UNL     1      -0.752   1.593  -1.232  0.00  0.00    +0.002 C 
ATOM     27  C   UNL     1      -0.013   1.086   0.008  0.00  0.00    +0.009 C 
ATOM     28  C   UNL     1      -0.729   1.579   1.268  0.00  0.00    +0.002 C 
ATOM     29  C   UNL     1      -0.717   3.111   1.290  0.00  0.00    +0.112 C 
ATOM     30  N   UNL     1      -1.296   3.606   0.034  0.00  0.00    -0.176 NA
ATOM     31  C   UNL     1      -0.741   3.124  -1.238  0.00  0.00    +0.112 C 
ATOM     32  C   UNL     1      -0.008   1.045   2.507  0.00  0.00    +0.009 C 
ENDBRANCH  22  30
ENDBRANCH   1  22
TORSDOF 4
