REMARK  Name = ZINC00042334
REMARK  7 active torsions:
REMARK  status: ('A' for Active; 'I' for Inactive)
REMARK    1  A    between atoms: C_1  and  C_2
REMARK    2  A    between atoms: C_2  and  C_3
REMARK    3  A    between atoms: C_3  and  C_5
REMARK    4  A    between atoms: C_6  and  C_23
REMARK    5  A    between atoms: C_8  and  N_22
REMARK    6  A    between atoms: C_9  and  C_20
REMARK    7  A    between atoms: C_10  and  C_12
REMARK                            x       y       z     vdW  Elec       q    Type
REMARK                         _______ _______ _______ _____ _____    ______ ____
ROOT
ATOM      1  C   UNL     1       0.003  -0.004   0.008  0.00  0.00    +0.045 C 
ATOM      2  C   UNL     1       1.175  -0.649  -0.120  0.00  0.00    +0.112 C 
ATOM      3  O   UNL     1       1.257  -1.986  -0.132  0.00  0.00    -0.445 OA
ATOM      4  C   UNL     1       0.159  -2.711  -0.408  0.00  0.00    +0.198 C 
ATOM      5  C   UNL     1      -1.087  -2.189  -0.303  0.00  0.00    +0.098 C 
ATOM      6  C   UNL     1      -1.291  -0.763   0.131  0.00  0.00    +0.101 C 
ATOM      7  C   UNL     1       2.440   0.159  -0.249  0.00  0.00    +0.086 C 
ENDROOT
BRANCH   6   8
ATOM      8  C   UNL     1      -1.753  -0.737   1.565  0.00  0.00    -0.033 A 
ATOM      9  C   UNL     1      -2.975  -0.177   1.887  0.00  0.00    +0.006 A 
ATOM     10  C   UNL     1      -3.400  -0.152   3.202  0.00  0.00    +0.022 A 
ATOM     11  C   UNL     1      -2.602  -0.689   4.197  0.00  0.00    +0.059 A 
ATOM     12  C   UNL     1      -1.378  -1.250   3.874  0.00  0.00    +0.060 A 
ATOM     13  C   UNL     1      -0.957  -1.279   2.556  0.00  0.00    +0.026 A 
ATOM     14 CL   UNL     1      -0.376  -1.924   5.121  0.00  0.00    -0.082 Cl
ATOM     15 CL   UNL     1      -3.135  -0.658   5.849  0.00  0.00    -0.082 Cl
ENDBRANCH   6   8
BRANCH   4  16
ATOM     16  N   UNL     1       0.304  -4.015  -0.809  0.00  0.00    -0.328 N 
ATOM     17  H   UNL     1      -0.479  -4.550  -1.012  0.00  0.00    +0.145 HD
ATOM     18  H   UNL     1       1.190  -4.402  -0.889  0.00  0.00    +0.145 HD
ENDBRANCH   4  16
BRANCH   1  19
ATOM     19  C   UNL     1      -0.016   1.403   0.021  0.00  0.00    +0.163 C 
ATOM     20  O   UNL     1       1.028   2.024   0.027  0.00  0.00    -0.292 OA
BRANCH  19  22
ATOM     21  C   UNL     1      -1.071   3.647   0.039  0.00  0.00    +0.012 C 
ATOM     22  C   UNL     1      -1.331   2.139   0.023  0.00  0.00    +0.076 C 
ENDBRANCH  19  22
ENDBRANCH   1  19
BRANCH   5  23
ATOM     23  C   UNL     1      -2.224  -3.006  -0.608  0.00  0.00    +0.101 C 
ATOM     24  N   UNL     1      -3.125  -3.653  -0.850  0.00  0.00    -0.191 NA
ENDBRANCH   5  23
TORSDOF 5
