REMARK  Name = ZINC01213077
REMARK  7 active torsions:
REMARK  status: ('A' for Active; 'I' for Inactive)
REMARK    1  A    between atoms: C_1  and  C_2
REMARK    2  A    between atoms: C_3  and  C_24
REMARK    3  A    between atoms: C_4  and  C_14
REMARK    4  A    between atoms: C_16  and  N_21
REMARK    5  A    between atoms: C_24  and  O_26
REMARK    6  A    between atoms: O_26  and  C_27
REMARK    7  A    between atoms: C_27  and  C_28
REMARK                            x       y       z     vdW  Elec       q    Type
REMARK                         _______ _______ _______ _____ _____    ______ ____
ROOT
ATOM      1  C   UNL     1       0.092   1.981  -4.903  0.00  0.00    +0.061 C 
ATOM      2  C   UNL     1      -0.674   2.014  -3.606  0.00  0.00    +0.016 C 
ATOM      3  C   UNL     1      -1.999   2.244  -3.619  0.00  0.00    +0.065 C 
ATOM      4  C   UNL     1      -2.793   2.294  -2.346  0.00  0.00    +0.094 C 
ATOM      5  C   UNL     1      -2.037   1.650  -1.211  0.00  0.00    +0.024 C 
ATOM      6  C   UNL     1      -0.707   1.441  -1.299  0.00  0.00    +0.015 C 
ATOM      7  N   UNL     1      -0.018   1.809  -2.424  0.00  0.00    -0.321 N 
ATOM      8  C   UNL     1       0.056   0.797  -0.168  0.00  0.00    +0.051 C 
ATOM      9  C   UNL     1      -0.614   1.143   1.164  0.00  0.00    +0.014 C 
ATOM     10  C   UNL     1      -2.065   0.654   1.121  0.00  0.00    +0.080 C 
ATOM     11  C   UNL     1      -2.755   1.278  -0.061  0.00  0.00    +0.162 C 
ATOM     12  O   UNL     1      -3.956   1.463  -0.021  0.00  0.00    -0.292 OA
ATOM     13  H   UNL     1       1.072   1.940  -2.371  0.00  0.00    +0.152 HD
ENDROOT
BRANCH   4  14
ATOM     14  C   UNL     1      -3.079   3.731  -1.997  0.00  0.00    -0.015 A 
ATOM     15  C   UNL     1      -2.035   4.603  -1.748  0.00  0.00    +0.038 A 
ATOM     16  C   UNL     1      -2.298   5.922  -1.428  0.00  0.00    +0.127 A 
ATOM     17  C   UNL     1      -3.604   6.370  -1.358  0.00  0.00    +0.034 A 
ATOM     18  C   UNL     1      -4.648   5.500  -1.607  0.00  0.00    +0.022 A 
ATOM     19  C   UNL     1      -4.386   4.181  -1.932  0.00  0.00    +0.045 A 
ATOM     20 CL   UNL     1      -5.696   3.088  -2.253  0.00  0.00    -0.083 Cl
BRANCH  16  21
ATOM     21  N   UNL     1      -1.180   6.855  -1.161  0.00  0.00    +0.056 N 
ATOM     22  O   UNL     1      -0.030   6.460  -1.222  0.00  0.00    -0.126 OA
ATOM     23  O   UNL     1      -1.411   8.017  -0.879  0.00  0.00    -0.126 OA
ENDBRANCH  16  21
ENDBRANCH   4  14
BRANCH   3  24
ATOM     24  C   UNL     1      -2.656   2.444  -4.855  0.00  0.00    +0.338 C 
ATOM     25  O   UNL     1      -3.359   1.566  -5.319  0.00  0.00    -0.245 OA
BRANCH  24  26
ATOM     26  O   UNL     1      -2.504   3.609  -5.519  0.00  0.00    -0.457 OA
BRANCH  26  27
ATOM     27  C   UNL     1      -3.197   3.742  -6.762  0.00  0.00    +0.268 C 
BRANCH  27  28
ATOM     28  C   UNL     1      -2.909   5.098  -7.355  0.00  0.00    -0.010 A 
ATOM     29  C   UNL     1      -3.727   6.171  -7.054  0.00  0.00    +0.007 A 
ATOM     30  C   UNL     1      -3.460   7.415  -7.594  0.00  0.00    +0.000 A 
ATOM     31  C   UNL     1      -2.382   7.584  -8.442  0.00  0.00    +0.000 A 
ATOM     32  C   UNL     1      -1.567   6.509  -8.747  0.00  0.00    +0.000 A 
ATOM     33  C   UNL     1      -1.831   5.266  -8.203  0.00  0.00    +0.007 A 
ENDBRANCH  27  28
ENDBRANCH  26  27
ENDBRANCH  24  26
ENDBRANCH   3  24
TORSDOF 6
