REMARK  Name = ZINC14185314
REMARK  6 active torsions:
REMARK  status: ('A' for Active; 'I' for Inactive)
REMARK    1  A    between atoms: C_10  and  O_11
REMARK    2  A    between atoms: O_11  and  C_12
REMARK    3  A    between atoms: C_12  and  C_13
REMARK    4  A    between atoms: C_13  and  C_15
REMARK    5  A    between atoms: C_13  and  O_32
REMARK    6  A    between atoms: C_15  and  N_16
REMARK                            x       y       z     vdW  Elec       q    Type
REMARK                         _______ _______ _______ _____ _____    ______ ____
ROOT
ATOM      1  N   UNL     1      -8.472   3.007   0.346  0.00  0.00    -0.221 N 
ATOM      2  C   UNL     1      -8.949   2.547   1.522  0.00  0.00    +0.251 C 
ATOM      3  O   UNL     1      -8.518   2.779   2.631  0.00  0.00    -0.272 OA
ATOM      4  C   UNL     1     -10.136   1.682   1.165  0.00  0.00    +0.144 C 
ATOM      5  C   UNL     1      -9.902   0.244   1.616  0.00  0.00    +0.081 C 
ATOM      6  C   UNL     1     -11.221  -0.528   1.470  0.00  0.00    +0.232 C 
ATOM      7  O   UNL     1     -12.182   0.048   2.356  0.00  0.00    -0.492 OA
ATOM      8  C   UNL     1     -12.345   1.397   2.335  0.00  0.00    +0.126 A 
ATOM      9  C   UNL     1     -11.392   2.235   1.778  0.00  0.00    +0.027 A 
ATOM     10  C   UNL     1     -11.593   3.604   1.785  0.00  0.00    +0.010 A 
ATOM     11  C   UNL     1     -12.741   4.138   2.338  0.00  0.00    +0.001 A 
ATOM     12  C   UNL     1     -13.695   3.304   2.889  0.00  0.00    +0.004 A 
ATOM     13  C   UNL     1     -13.500   1.938   2.888  0.00  0.00    +0.046 A 
ATOM     14  N   UNL     1     -10.204   1.757  -0.300  0.00  0.00    -0.281 N 
ATOM     15  C   UNL     1      -9.193   2.558  -0.688  0.00  0.00    +0.310 C 
ATOM     16  O   UNL     1      -8.960   2.840  -1.847  0.00  0.00    -0.252 OA
ATOM     17  H   UNL     1     -10.851   1.319  -0.875  0.00  0.00    +0.152 HD
ENDROOT
BRANCH   1  18
ATOM     18  C   UNL     1      -7.311   3.892   0.219  0.00  0.00    +0.152 C 
BRANCH  18  19
ATOM     19  C   UNL     1      -6.041   3.050   0.077  0.00  0.00    +0.170 C 
BRANCH  19  20
ATOM     20  O   UNL     1      -6.092   2.315  -1.147  0.00  0.00    -0.387 OA
ATOM     21  H   UNL     1      -6.157   2.869  -1.937  0.00  0.00    +0.210 HD
ENDBRANCH  19  20
BRANCH  19  22
ATOM     22  C   UNL     1      -4.819   3.970   0.069  0.00  0.00    +0.262 C 
BRANCH  22  23
ATOM     23  O   UNL     1      -3.628   3.179   0.053  0.00  0.00    -0.489 OA
BRANCH  23  33
ATOM     24  C   UNL     1       1.191   1.779   0.000  0.00  0.00    +0.001 A 
ATOM     25  C   UNL     1      -0.013   1.076   0.008  0.00  0.00    +0.001 A 
ATOM     26  C   UNL     1      -1.206   1.730   0.017  0.00  0.00    +0.012 A 
ATOM     27  C   UNL     1      -1.229   3.134   0.030  0.00  0.00    +0.024 A 
ATOM     28  C   UNL     1      -0.006   3.850   0.021  0.00  0.00    -0.014 A 
ATOM     29  C   UNL     1       1.207   3.140   0.006  0.00  0.00    +0.008 A 
ATOM     30  C   UNL     1      -0.029   5.255   0.028  0.00  0.00    +0.009 A 
ATOM     31  C   UNL     1      -1.222   5.911   0.042  0.00  0.00    +0.004 A 
ATOM     32  C   UNL     1      -2.426   5.213   0.050  0.00  0.00    +0.046 A 
ATOM     33  C   UNL     1      -2.445   3.846   0.044  0.00  0.00    +0.128 A 
ENDBRANCH  23  33
ENDBRANCH  22  23
ENDBRANCH  19  22
ENDBRANCH  18  19
ENDBRANCH   1  18
TORSDOF 6
