REMARK  Name = ZINC66249584
REMARK  3 active torsions:
REMARK  status: ('A' for Active; 'I' for Inactive)
REMARK    1  A    between atoms: C_1  and  C_2
REMARK    2  A    between atoms: N_11  and  S_12
REMARK    3  A    between atoms: S_12  and  C_15
REMARK                            x       y       z     vdW  Elec       q    Type
REMARK                         _______ _______ _______ _____ _____    ______ ____
ROOT
ATOM      1  S   UNL     1       2.000  -6.957   0.280  0.00  0.00    +0.101 S 
ATOM      2  O   UNL     1       0.651  -7.127  -0.132  0.00  0.00    -0.146 OA
ATOM      3  O   UNL     1       3.033  -6.593  -0.625  0.00  0.00    -0.146 OA
ENDROOT
BRANCH   1  13
ATOM      4  C   UNL     1      -0.019   1.526   0.010  0.00  0.00    +0.008 C 
ATOM      5  C   UNL     1       0.002  -0.004   0.002  0.00  0.00    -0.009 C 
ATOM      6  C   UNL     1       0.727  -0.502  -1.252  0.00  0.00    +0.010 C 
ATOM      7  C   UNL     1       0.548  -2.014  -1.389  0.00  0.00    +0.054 C 
ATOM      8  C   UNL     1       0.969  -2.684  -0.083  0.00  0.00    +0.028 A 
ATOM      9  C   UNL     1       1.044  -1.972   1.048  0.00  0.00    +0.013 A 
ATOM     10  S   UNL     1       1.560  -3.151   2.269  0.00  0.00    -0.053 S 
ATOM     11  C   UNL     1       1.655  -4.574   1.192  0.00  0.00    +0.192 A 
ATOM     12  N   UNL     1       1.283  -4.025  -0.012  0.00  0.00    -0.336 N 
ATOM     13  N   UNL     1       1.990  -5.809   1.473  0.00  0.00    -0.103 NA
ATOM     14  C   UNL     1       0.752  -0.517   1.240  0.00  0.00    +0.047 C 
ATOM     15  H   UNL     1       1.242  -4.578  -0.807  0.00  0.00    +0.168 HD
ENDBRANCH   1  13
BRANCH   1  16
ATOM     16  C   UNL     1       2.494  -8.477   1.023  0.00  0.00    +0.116 A 
ATOM     17  C   UNL     1       3.835  -8.811   1.081  0.00  0.00    +0.033 A 
ATOM     18  C   UNL     1       4.230 -10.002   1.663  0.00  0.00    +0.051 A 
ATOM     19  C   UNL     1       3.278 -10.859   2.189  0.00  0.00    +0.162 A 
ATOM     20  C   UNL     1       1.933 -10.523   2.130  0.00  0.00    +0.164 A 
ATOM     21  C   UNL     1       1.541  -9.328   1.551  0.00  0.00    +0.078 A 
ATOM     22  O   UNL     1       1.002 -11.374   2.652  0.00  0.00    -0.488 OA
ATOM     23  C   UNL     1       0.831 -12.613   1.960  0.00  0.00    +0.232 C 
ATOM     24  C   UNL     1       1.859 -13.634   2.420  0.00  0.00    +0.082 C 
ATOM     25  C   UNL     1       3.280 -13.224   2.066  0.00  0.00    +0.232 C 
ATOM     26  O   UNL     1       3.654 -12.036   2.767  0.00  0.00    -0.488 OA
ENDBRANCH   1  16
TORSDOF 2
