REMARK  Name = ZINC21809943
REMARK  8 active torsions:
REMARK  status: ('A' for Active; 'I' for Inactive)
REMARK    1  A    between atoms: C_1  and  C_2
REMARK    2  A    between atoms: C_2  and  C_3
REMARK    3  A    between atoms: C_12  and  C_23
REMARK    4  A    between atoms: C_12  and  C_24
REMARK    5  A    between atoms: N_13  and  C_16
REMARK    6  A    between atoms: C_16  and  C_17
REMARK    7  A    between atoms: C_17  and  N_18
REMARK    8  A    between atoms: N_26  and  C_27
REMARK                            x       y       z     vdW  Elec       q    Type
REMARK                         _______ _______ _______ _____ _____    ______ ____
ROOT
ATOM      1  C   UNL     1       1.875   0.961  -5.554  0.00  0.00    -0.008 A 
ATOM      2  C   UNL     1       1.789   0.689  -4.236  0.00  0.00    +0.037 A 
ATOM      3  C   UNL     1       0.568   0.286  -3.676  0.00  0.00    +0.057 A 
ATOM      4  C   UNL     1      -0.510   0.202  -4.570  0.00  0.00    +0.038 A 
ATOM      5  S   UNL     1       0.209   0.669  -6.123  0.00  0.00    -0.092 S 
ATOM      6  C   UNL     1      -1.651  -0.202  -3.886  0.00  0.00    +0.048 A 
ATOM      7  C   UNL     1      -1.302  -0.356  -2.578  0.00  0.00    +0.106 A 
ATOM      8  N   UNL     1       0.055  -0.079  -2.445  0.00  0.00    -0.333 N 
ATOM      9  C   UNL     1       0.744  -0.196  -1.159  0.00  0.00    +0.157 C 
ATOM     10  C   UNL     1      -0.249   0.086  -0.031  0.00  0.00    +0.128 C 
ATOM     11  N   UNL     1      -1.508  -0.630  -0.204  0.00  0.00    -0.282 N 
ATOM     12  C   UNL     1      -2.101  -0.760  -1.414  0.00  0.00    +0.264 C 
ATOM     13  O   UNL     1      -3.235  -1.187  -1.531  0.00  0.00    -0.268 OA
ATOM     14  C   UNL     1      -0.536   1.588   0.012  0.00  0.00    +0.043 C 
ENDROOT
BRANCH  10  15
ATOM     15  C   UNL     1       0.371  -0.329   1.278  0.00  0.00    +0.238 C 
ATOM     16  O   UNL     1       0.778   0.513   2.050  0.00  0.00    -0.273 OA
ATOM     17  N   UNL     1       0.473  -1.636   1.592  0.00  0.00    -0.311 N 
ATOM     18  H   UNL     1       0.180  -2.402   0.859  0.00  0.00    +0.149 HD
BRANCH  17  19
ATOM     19  C   UNL     1       0.974  -2.036   2.909  0.00  0.00    +0.073 C 
ATOM     20  C   UNL     1       2.514  -1.949   2.905  0.00  0.00    +0.022 C 
ATOM     21  C   UNL     1       2.990  -1.852   4.329  0.00  0.00    +0.002 C 
ATOM     22  C   UNL     1       3.357  -3.226   4.922  0.00  0.00    +0.000 C 
ATOM     23  C   UNL     1       2.351  -4.329   4.539  0.00  0.00    +0.000 C 
ATOM     24  C   UNL     1       0.924  -3.857   4.609  0.00  0.00    +0.002 C 
ATOM     25  C   UNL     1       0.497  -3.378   3.207  0.00  0.00    +0.022 C 
ENDBRANCH  17  19
ENDBRANCH  10  15
BRANCH   1  27
ATOM     26  C   UNL     1       3.817   0.173  -6.880  0.00  0.00    +0.009 C 
ATOM     27  C   UNL     1       3.078   1.403  -6.348  0.00  0.00    +0.039 C 
ENDBRANCH   1  27
BRANCH  11  28
ATOM     28  C   UNL     1      -2.152  -1.226   0.969  0.00  0.00    +0.091 C 
BRANCH  28  29
ATOM     29  C   UNL     1      -3.014  -0.174   1.668  0.00  0.00    -0.060 C 
BRANCH  29  30
ATOM     30  N   UNL     1      -3.595  -0.749   2.889  0.00  0.00    +0.381 N 
ATOM     31  C   UNL     1      -2.532  -1.220   3.814  0.00  0.00    -0.079 C 
ATOM     32  C   UNL     1      -3.256  -1.282   5.182  0.00  0.00    -0.020 C 
ATOM     33  C   UNL     1      -4.189  -0.050   5.137  0.00  0.00    -0.020 C 
ATOM     34  C   UNL     1      -4.362   0.268   3.640  0.00  0.00    -0.079 C 
ATOM     35  H   UNL     1      -4.240  -1.574   2.553  0.00  0.00    -0.082 HD
ENDBRANCH  29  30
ENDBRANCH  28  29
ENDBRANCH  11  28
TORSDOF 6
