REMARK  Name = ZINC09151096
REMARK  8 active torsions:
REMARK  status: ('A' for Active; 'I' for Inactive)
REMARK    1  A    between atoms: C_1  and  O_2
REMARK    2  A    between atoms: O_2  and  C_3
REMARK    3  A    between atoms: C_3  and  C_5
REMARK    4  A    between atoms: C_5  and  N_6
REMARK    5  A    between atoms: N_15  and  C_16
REMARK    6  A    between atoms: C_16  and  C_18
REMARK    7  A    between atoms: C_21  and  S_24
REMARK    8  A    between atoms: S_24  and  C_27
REMARK                            x       y       z     vdW  Elec       q    Type
REMARK                         _______ _______ _______ _____ _____    ______ ____
ROOT
ATOM      1  N   UNL     1      -1.114   2.245   0.019  0.00  0.00    -0.308 N 
ATOM      2  C   UNL     1      -0.017   1.402   0.010  0.00  0.00    +0.094 A 
ATOM      3  C   UNL     1       0.002  -0.004   0.002  0.00  0.00    +0.148 A 
ATOM      4  C   UNL     1       1.195  -0.691  -0.013  0.00  0.00    +0.040 A 
ATOM      5  C   UNL     1       2.408  -0.022  -0.021  0.00  0.00    +0.004 A 
ATOM      6  C   UNL     1       2.417   1.361  -0.013  0.00  0.00    +0.017 A 
ATOM      7  C   UNL     1       1.226   2.049   0.001  0.00  0.00    +0.042 A 
ATOM      8  S   UNL     1       0.789   3.770   0.014  0.00  0.00    -0.052 S 
ATOM      9  C   UNL     1      -0.936   3.593   0.029  0.00  0.00    +0.167 A 
ATOM     10  N   UNL     1      -1.862   4.546   0.044  0.00  0.00    -0.152 NA
ATOM     11  F   UNL     1      -1.163  -0.688   0.009  0.00  0.00    -0.203 F 
ENDROOT
BRANCH  10  12
ATOM     12  C   UNL     1      -1.497   5.832   0.047  0.00  0.00    +0.269 C 
ATOM     13  O   UNL     1      -0.315   6.131   0.037  0.00  0.00    -0.268 OA
BRANCH  12  14
ATOM     14  C   UNL     1      -2.529   6.895   0.063  0.00  0.00    +0.039 A 
ATOM     15  C   UNL     1      -3.882   6.557   0.068  0.00  0.00    +0.015 A 
ATOM     16  C   UNL     1      -4.839   7.551   0.088  0.00  0.00    +0.027 A 
ATOM     17  C   UNL     1      -4.458   8.881   0.091  0.00  0.00    +0.088 A 
ATOM     18  C   UNL     1      -3.118   9.223   0.080  0.00  0.00    +0.027 A 
ATOM     19  C   UNL     1      -2.152   8.238   0.066  0.00  0.00    +0.015 A 
BRANCH  17  20
ATOM     20  S   UNL     1      -5.686  10.145   0.109  0.00  0.00    -0.006 S 
ATOM     21  O   UNL     1      -6.818   9.542   0.719  0.00  0.00    -0.170 OA
ATOM     22  O   UNL     1      -5.047  11.262   0.711  0.00  0.00    -0.170 OA
ATOM     23  C   UNL     1      -6.027  10.488  -1.640  0.00  0.00    +0.200 C 
ENDBRANCH  17  20
ENDBRANCH  12  14
ENDBRANCH  10  12
BRANCH   1  24
ATOM     24  C   UNL     1      -2.467   1.685   0.023  0.00  0.00    +0.244 C 
BRANCH  24  25
ATOM     25  C   UNL     1      -2.925   1.486   1.445  0.00  0.00    +0.327 C 
ATOM     26  O   UNL     1      -2.195   1.781   2.361  0.00  0.00    -0.249 OA
BRANCH  25  28
ATOM     27  C   UNL     1      -4.517   0.816   3.087  0.00  0.00    +0.280 C 
ATOM     28  O   UNL     1      -4.143   0.981   1.693  0.00  0.00    -0.467 OA
ENDBRANCH  25  28
ENDBRANCH  24  25
ENDBRANCH   1  24
TORSDOF 6
