REMARK  Name = ZINC35378966
REMARK  7 active torsions:
REMARK  status: ('A' for Active; 'I' for Inactive)
REMARK    1  A    between atoms: C_1  and  C_2
REMARK    2  A    between atoms: C_7  and  S_8
REMARK    3  A    between atoms: S_8  and  N_11
REMARK    4  A    between atoms: C_15  and  C_18
REMARK    5  A    between atoms: N_20  and  C_21
REMARK    6  A    between atoms: N_20  and  C_22
REMARK    7  A    between atoms: C_22  and  C_23
REMARK                            x       y       z     vdW  Elec       q    Type
REMARK                         _______ _______ _______ _____ _____    ______ ____
ROOT
ATOM      1  S   UNL     1      -0.277   0.100   1.710  0.00  0.00    +0.061 S 
ATOM      2  O   UNL     1      -1.359   0.988   1.463  0.00  0.00    -0.153 OA
ATOM      3  O   UNL     1      -0.329  -0.903   2.715  0.00  0.00    -0.153 OA
ENDROOT
BRANCH   1  10
ATOM      4  C   UNL     1      -0.068   1.492  -0.962  0.00  0.00    +0.046 C 
ATOM      5  C   UNL     1       0.130  -0.002  -0.986  0.00  0.00    -0.022 A 
ATOM      6  C   UNL     1       0.395  -0.643  -2.182  0.00  0.00    +0.032 A 
ATOM      7  C   UNL     1       0.577  -2.016  -2.203  0.00  0.00    +0.076 A 
ATOM      8  C   UNL     1       0.493  -2.747  -1.018  0.00  0.00    +0.144 A 
ATOM      9  C   UNL     1       0.229  -2.099   0.175  0.00  0.00    +0.076 A 
ATOM     10  C   UNL     1       0.053  -0.727   0.189  0.00  0.00    +0.112 A 
ATOM     11  O   UNL     1       0.670  -4.095  -1.051  0.00  0.00    -0.481 OA
ATOM     12  C   UNL     1       0.229  -4.773  -2.230  0.00  0.00    +0.325 C 
ATOM     13  C   UNL     1       0.706  -4.029  -3.451  0.00  0.00    +0.255 C 
ATOM     14  O   UNL     1       0.962  -4.632  -4.471  0.00  0.00    -0.272 OA
ATOM     15  N   UNL     1       0.846  -2.686  -3.405  0.00  0.00    -0.280 N 
ATOM     16  H   UNL     1       1.129  -2.192  -4.191  0.00  0.00    +0.155 HD
ENDBRANCH   1  10
BRANCH   1  17
ATOM     17  N   UNL     1       1.041   1.043   2.050  0.00  0.00    -0.176 NA
ATOM     18  C   UNL     1       2.216   0.473   2.722  0.00  0.00    +0.109 C 
ATOM     19  C   UNL     1       3.461   0.778   1.883  0.00  0.00    +0.018 C 
ATOM     20  C   UNL     1       3.548   2.287   1.637  0.00  0.00    +0.015 C 
ATOM     21  C   UNL     1       2.314   2.750   0.859  0.00  0.00    +0.091 C 
ATOM     22  C   UNL     1       1.059   2.465   1.681  0.00  0.00    +0.122 C 
BRANCH  21  23
ATOM     23  C   UNL     1       2.417   4.229   0.588  0.00  0.00    +0.220 C 
ATOM     24  O   UNL     1       1.669   5.001   1.150  0.00  0.00    -0.275 OA
ATOM     25  N   UNL     1       3.338   4.693  -0.279  0.00  0.00    -0.297 N 
ATOM     26  C   UNL     1       4.179   3.755  -1.027  0.00  0.00    +0.132 C 
BRANCH  25  27
ATOM     27  C   UNL     1       3.500   6.136  -0.473  0.00  0.00    +0.181 C 
BRANCH  27  28
ATOM     28  C   UNL     1       4.520   6.663   0.504  0.00  0.00    +0.122 A 
ATOM     29  C   UNL     1       5.844   6.757   0.285  0.00  0.00    +0.046 A 
ATOM     30  C   UNL     1       6.416   7.301   1.458  0.00  0.00    +0.041 A 
ATOM     31  C   UNL     1       5.407   7.507   2.324  0.00  0.00    +0.195 A 
ATOM     32  O   UNL     1       4.260   7.125   1.738  0.00  0.00    -0.466 OA
ENDBRANCH  27  28
ENDBRANCH  25  27
ENDBRANCH  21  23
ENDBRANCH   1  17
TORSDOF 5
