REMARK  Name = ZINC12163234
REMARK  7 active torsions:
REMARK  status: ('A' for Active; 'I' for Inactive)
REMARK    1  A    between atoms: C_1  and  O_2
REMARK    2  A    between atoms: O_2  and  C_3
REMARK    3  A    between atoms: C_8  and  C_17
REMARK    4  A    between atoms: C_17  and  N_18
REMARK    5  A    between atoms: N_18  and  C_19
REMARK    6  A    between atoms: C_19  and  C_20
REMARK    7  A    between atoms: C_26  and  C_28
REMARK                            x       y       z     vdW  Elec       q    Type
REMARK                         _______ _______ _______ _____ _____    ______ ____
ROOT
ATOM      1  C   UNL     1      -2.579  10.119   4.493  0.00  0.00    +0.122 A 
ATOM      2  C   UNL     1      -2.692   9.829   3.130  0.00  0.00    +0.046 A 
ATOM      3  C   UNL     1      -2.736   8.541   2.694  0.00  0.00    +0.013 A 
ATOM      4  C   UNL     1      -2.667   7.487   3.618  0.00  0.00    -0.001 A 
ATOM      5  C   UNL     1      -2.711   6.143   3.196  0.00  0.00    +0.018 A 
ATOM      6  C   UNL     1      -2.640   5.165   4.142  0.00  0.00    +0.008 A 
ATOM      7  C   UNL     1      -2.533   5.510   5.496  0.00  0.00    +0.104 A 
ATOM      8  C   UNL     1      -2.552   7.770   5.001  0.00  0.00    +0.051 A 
ATOM      9  C   UNL     1      -2.509   9.108   5.425  0.00  0.00    +0.071 A 
ATOM     10  N   UNL     1      -2.468   4.503   6.448  0.00  0.00    -0.316 N 
ATOM     11  C   UNL     1      -1.062   4.087   6.688  0.00  0.00    +0.106 C 
ATOM     12  C   UNL     1      -1.127   3.400   8.075  0.00  0.00    +0.020 C 
ATOM     13  C   UNL     1      -2.148   4.269   8.844  0.00  0.00    +0.020 C 
ATOM     14  C   UNL     1      -2.976   4.976   7.755  0.00  0.00    +0.106 C 
ATOM     15  N   UNL     1      -2.480   6.783   5.960  0.00  0.00    -0.343 N 
ATOM     16  H   UNL     1      -2.393   6.998   6.961  0.00  0.00    +0.167 HD
ENDROOT
BRANCH   1  18
ATOM     17  C   UNL     1      -2.615  12.418   3.889  0.00  0.00    +0.277 C 
ATOM     18  O   UNL     1      -2.538  11.414   4.903  0.00  0.00    -0.495 OA
ENDBRANCH   1  18
BRANCH   6  19
ATOM     19  C   UNL     1      -2.683   3.715   3.733  0.00  0.00    +0.146 C 
BRANCH  19  20
ATOM     20  N   UNL     1      -2.681   3.619   2.271  0.00  0.00    -0.294 N 
ATOM     21  C   UNL     1      -3.846   3.643   1.593  0.00  0.00    +0.219 C 
ATOM     22  O   UNL     1      -3.852   3.468   0.393  0.00  0.00    -0.275 OA
BRANCH  21  23
ATOM     23  C   UNL     1      -5.140   3.887   2.326  0.00  0.00    +0.075 C 
ATOM     24  C   UNL     1      -6.316   2.962   2.009  0.00  0.00    +0.013 C 
ATOM     25  C   UNL     1      -6.325   4.409   1.511  0.00  0.00    +0.013 C 
ENDBRANCH  21  23
BRANCH  20  26
ATOM     26  C   UNL     1      -1.414   3.498   1.547  0.00  0.00    +0.139 C 
BRANCH  26  27
ATOM     27  C   UNL     1      -1.056   2.019   1.388  0.00  0.00    +0.136 C 
ATOM     28  C   UNL     1       0.279   1.867   0.626  0.00  0.00    +0.035 C 
ATOM     29  C   UNL     1       0.969   0.667   1.313  0.00  0.00    +0.031 C 
ATOM     30  C   UNL     1      -0.031   0.237   2.409  0.00  0.00    +0.160 C 
ATOM     31  O   UNL     1      -0.815   1.419   2.682  0.00  0.00    -0.375 OA
ENDBRANCH  26  27
ENDBRANCH  20  26
ENDBRANCH  19  20
ENDBRANCH   6  19
TORSDOF 6
