REMARK  Name = ZINC61889026
REMARK  3 active torsions:
REMARK  status: ('A' for Active; 'I' for Inactive)
REMARK    1  A    between atoms: C_5  and  C_6
REMARK    2  A    between atoms: N_8  and  C_9
REMARK    3  A    between atoms: C_14  and  C_16
REMARK                            x       y       z     vdW  Elec       q    Type
REMARK                         _______ _______ _______ _____ _____    ______ ____
ROOT
ATOM      1  C   UNL     1      -1.123  -0.944   0.007  0.00  0.00    +0.251 C 
ATOM      2  O   UNL     1      -2.265  -0.525   0.020  0.00  0.00    -0.270 OA
ATOM      3  N   UNL     1      -0.892  -2.272  -0.002  0.00  0.00    -0.307 N 
ATOM      4  H   UNL     1       0.019  -2.605  -0.012  0.00  0.00    +0.149 HD
ENDROOT
BRANCH   1   9
ATOM      5  C   UNL     1      -0.017   1.376   0.010  0.00  0.00    +0.024 A 
ATOM      6  C   UNL     1       1.221   2.023   0.001  0.00  0.00    -0.036 A 
ATOM      7  C   UNL     1       2.323   1.230  -0.016  0.00  0.00    -0.006 A 
ATOM      8  S   UNL     1       1.751  -0.345  -0.016  0.00  0.00    -0.088 S 
ATOM      9  C   UNL     1       0.002  -0.004   0.002  0.00  0.00    +0.074 A 
ATOM     10  C   UNL     1       3.593   2.040  -0.030  0.00  0.00    +0.043 C 
ATOM     11  C   UNL     1       3.149   3.456  -0.458  0.00  0.00    +0.010 C 
ATOM     12  C   UNL     1       1.681   3.483   0.009  0.00  0.00    +0.036 C 
ENDBRANCH   1   9
BRANCH   3  13
ATOM     13  C   UNL     1      -2.016  -3.211   0.003  0.00  0.00    +0.090 C 
ATOM     14  C   UNL     1      -2.482  -3.485  -1.442  0.00  0.00    +0.023 C 
ATOM     15  C   UNL     1      -1.745  -4.790  -1.837  0.00  0.00    +0.003 C 
ATOM     16  C   UNL     1      -1.781  -5.613  -0.525  0.00  0.00    +0.020 C 
ATOM     17  C   UNL     1      -1.571  -4.563   0.587  0.00  0.00    +0.112 C 
BRANCH  17  18
ATOM     18  C   UNL     1      -0.149  -4.505   0.964  0.00  0.00    +0.068 C 
ATOM     19  N   UNL     1       0.948  -4.461   1.256  0.00  0.00    -0.196 NA
ENDBRANCH  17  18
ENDBRANCH   3  13
TORSDOF 3
