REMARK  Name = ZINC05077593
REMARK  7 active torsions:
REMARK  status: ('A' for Active; 'I' for Inactive)
REMARK    1  A    between atoms: C_1  and  C_2
REMARK    2  A    between atoms: C_5  and  N_22
REMARK    3  A    between atoms: C_7  and  S_8
REMARK    4  A    between atoms: S_8  and  N_11
REMARK    5  A    between atoms: N_11  and  C_12
REMARK    6  A    between atoms: C_12  and  C_13
REMARK    7  A    between atoms: C_14  and  C_21
REMARK                            x       y       z     vdW  Elec       q    Type
REMARK                         _______ _______ _______ _____ _____    ______ ____
ROOT
ATOM      1  S   UNL     1      -0.625   8.058  -1.677  0.00  0.00    +0.059 S 
ATOM      2  O   UNL     1      -0.688   8.292  -3.077  0.00  0.00    -0.153 OA
ATOM      3  O   UNL     1      -1.760   8.185  -0.831  0.00  0.00    -0.153 OA
ENDROOT
BRANCH   1  10
ATOM      4  C   UNL     1       2.146   8.370  -2.849  0.00  0.00    +0.046 C 
ATOM      5  C   UNL     1       1.843   9.222  -1.643  0.00  0.00    -0.024 A 
ATOM      6  C   UNL     1       2.805  10.081  -1.145  0.00  0.00    +0.007 A 
ATOM      7  C   UNL     1       2.530  10.858  -0.035  0.00  0.00    +0.033 A 
ATOM      8  C   UNL     1       1.291  10.780   0.573  0.00  0.00    +0.128 A 
ATOM      9  C   UNL     1       0.328   9.925   0.072  0.00  0.00    +0.061 A 
ATOM     10  C   UNL     1       0.603   9.148  -1.038  0.00  0.00    +0.110 A 
BRANCH   8  11
ATOM     11  N   UNL     1       0.997  11.612   1.762  0.00  0.00    +0.056 N 
ATOM     12  O   UNL     1      -0.095  11.543   2.298  0.00  0.00    -0.126 OA
ATOM     13  O   UNL     1       1.846  12.365   2.203  0.00  0.00    -0.126 OA
ENDBRANCH   8  11
ENDBRANCH   1  10
BRANCH   1  14
ATOM     14  N   UNL     1      -0.059   6.514  -1.480  0.00  0.00    -0.186 NA
ATOM     15  H   UNL     1       0.125   5.962  -2.256  0.00  0.00    +0.148 HD
BRANCH  14  16
ATOM     16  C   UNL     1       0.163   5.981  -0.134  0.00  0.00    +0.142 C 
BRANCH  16  17
ATOM     17  C   UNL     1       0.302   4.482  -0.203  0.00  0.00    -0.011 A 
ATOM     18  C   UNL     1      -0.817   3.678  -0.086  0.00  0.00    -0.043 A 
ATOM     19  C   UNL     1      -0.690   2.303  -0.155  0.00  0.00    +0.023 A 
ATOM     20  C   UNL     1       0.557   1.731  -0.330  0.00  0.00    +0.043 A 
ATOM     21  C   UNL     1       1.677   2.535  -0.448  0.00  0.00    +0.040 A 
ATOM     22  C   UNL     1       1.549   3.911  -0.384  0.00  0.00    +0.047 A 
ATOM     23 CL   UNL     1       2.953   4.921  -0.531  0.00  0.00    -0.083 Cl
ATOM     24 CL   UNL     1       0.716   0.004  -0.410  0.00  0.00    -0.083 Cl
ATOM     25  C   UNL     1      -2.175   4.301   0.110  0.00  0.00    +0.044 C 
ENDBRANCH  16  17
ENDBRANCH  14  16
ENDBRANCH   1  14
TORSDOF 5
