REMARK  Name = ZINC42890463
REMARK  2 active torsions:
REMARK  status: ('A' for Active; 'I' for Inactive)
REMARK    1  A    between atoms: C_7  and  C_10
REMARK    2  A    between atoms: C_10  and  C_12
REMARK                            x       y       z     vdW  Elec       q    Type
REMARK                         _______ _______ _______ _____ _____    ______ ____
ROOT
ATOM      1  C   UNL     1       0.389  -3.112  -0.018  0.00  0.00    +0.194 C 
ATOM      2  O   UNL     1       1.290  -2.299   0.076  0.00  0.00    -0.287 OA
ENDROOT
BRANCH   1   3
ATOM      3  C   UNL     1       0.684  -4.555   0.083  0.00  0.00    +0.023 A 
ATOM      4  C   UNL     1       2.006  -4.999   0.179  0.00  0.00    +0.013 A 
ATOM      5  C   UNL     1       2.281  -6.342   0.273  0.00  0.00    +0.024 A 
ATOM      6  C   UNL     1       1.242  -7.276   0.274  0.00  0.00    +0.037 A 
ATOM      7  C   UNL     1      -0.073  -6.828   0.178  0.00  0.00    -0.017 A 
ATOM      8  C   UNL     1      -0.358  -5.489   0.089  0.00  0.00    +0.017 A 
ATOM      9  C   UNL     1      -0.944  -8.063   0.205  0.00  0.00    +0.133 C 
ATOM     10  C   UNL     1       0.042  -9.205   0.324  0.00  0.00    +0.222 C 
ATOM     11  O   UNL     1      -0.227 -10.386   0.379  0.00  0.00    -0.275 OA
ATOM     12  N   UNL     1       1.272  -8.664   0.357  0.00  0.00    -0.285 N 
ATOM     13  H   UNL     1       2.088  -9.183   0.430  0.00  0.00    +0.155 HD
ENDBRANCH   1   3
BRANCH   1  20
ATOM     14  C   UNL     1      -1.899  -3.288  -3.887  0.00  0.00    +0.001 A 
ATOM     15  C   UNL     1      -3.199  -2.803  -3.868  0.00  0.00    +0.001 A 
ATOM     16  C   UNL     1      -3.723  -2.299  -2.694  0.00  0.00    +0.015 A 
ATOM     17  C   UNL     1      -2.948  -2.284  -1.554  0.00  0.00    +0.020 A 
ATOM     18  C   UNL     1      -1.627  -2.770  -1.546  0.00  0.00    +0.000 A 
ATOM     19  C   UNL     1      -1.120  -3.278  -2.758  0.00  0.00    +0.010 A 
ATOM     20  C   UNL     1      -0.990  -2.658  -0.232  0.00  0.00    +0.037 A 
ATOM     21  C   UNL     1      -1.717  -2.121   0.784  0.00  0.00    +0.058 A 
ATOM     22  S   UNL     1      -3.209  -1.746   0.114  0.00  0.00    -0.096 S 
ENDBRANCH   1  20
TORSDOF 2
