REMARK  Name = ZINC09253596
REMARK  7 active torsions:
REMARK  status: ('A' for Active; 'I' for Inactive)
REMARK    1  A    between atoms: C_1  and  O_2
REMARK    2  A    between atoms: O_2  and  C_3
REMARK    3  A    between atoms: C_8  and  O_9
REMARK    4  A    between atoms: O_9  and  C_10
REMARK    5  A    between atoms: C_15  and  C_17
REMARK    6  A    between atoms: C_17  and  S_18
REMARK    7  A    between atoms: S_18  and  C_19
REMARK                            x       y       z     vdW  Elec       q    Type
REMARK                         _______ _______ _______ _____ _____    ______ ____
ROOT
ATOM      1  C   UNL     1      -1.976   1.163   1.348  0.00  0.00    +0.162 A 
ATOM      2  C   UNL     1      -2.590   0.367   0.400  0.00  0.00    +0.053 A 
ATOM      3  C   UNL     1      -3.911  -0.034   0.560  0.00  0.00    -0.038 A 
ATOM      4  C   UNL     1      -4.615   0.368   1.674  0.00  0.00    -0.023 A 
ATOM      5  C   UNL     1      -4.004   1.173   2.627  0.00  0.00    +0.054 A 
ATOM      6  C   UNL     1      -2.690   1.574   2.470  0.00  0.00    +0.162 A 
ATOM      7  C   UNL     1      -6.046  -0.042   1.916  0.00  0.00    +0.143 C 
ATOM      8  N   UNL     1      -6.596  -0.657   0.703  0.00  0.00    -0.296 N 
ATOM      9  C   UNL     1      -5.748  -1.631  -0.004  0.00  0.00    +0.113 C 
ATOM     10  C   UNL     1      -4.514  -0.892  -0.521  0.00  0.00    +0.054 C 
ATOM     11  C   UNL     1      -7.827  -0.343   0.254  0.00  0.00    +0.226 C 
ATOM     12  O   UNL     1      -8.258  -0.867  -0.751  0.00  0.00    -0.275 OA
ENDROOT
BRANCH   1  14
ATOM     13  C   UNL     1      -0.013   1.086   0.008  0.00  0.00    +0.277 C 
ATOM     14  O   UNL     1      -0.682   1.547   1.184  0.00  0.00    -0.491 OA
ENDBRANCH   1  14
BRANCH   6  15
ATOM     15  O   UNL     1      -2.100   2.365   3.405  0.00  0.00    -0.491 OA
ATOM     16  C   UNL     1      -2.896   2.747   4.529  0.00  0.00    +0.277 C 
ENDBRANCH   6  15
BRANCH  11  17
ATOM     17  C   UNL     1      -8.669   0.658   1.002  0.00  0.00    +0.173 C 
BRANCH  17  18
ATOM     18  S   UNL     1     -10.260   0.863   0.155  0.00  0.00    -0.076 S 
BRANCH  18  19
ATOM     19  C   UNL     1     -11.117   2.048   1.139  0.00  0.00    +0.196 A 
ATOM     20  N   UNL     1     -10.667   2.625   2.230  0.00  0.00    -0.122 NA
ATOM     21  N   UNL     1     -11.547   3.438   2.699  0.00  0.00    -0.127 NA
ATOM     22  C   UNL     1     -12.619   3.427   1.929  0.00  0.00    +0.180 A 
ATOM     23  N   UNL     1     -12.367   2.539   0.905  0.00  0.00    -0.275 N 
ATOM     24  C   UNL     1     -13.310   2.308  -0.059  0.00  0.00    +0.115 A 
ATOM     25  C   UNL     1     -14.493   2.954  -0.028  0.00  0.00    +0.059 A 
ATOM     26  C   UNL     1     -14.777   3.872   1.002  0.00  0.00    +0.045 A 
ATOM     27  C   UNL     1     -13.853   4.109   1.972  0.00  0.00    +0.087 A 
ATOM     28 CL   UNL     1     -14.188   5.237   3.247  0.00  0.00    -0.080 Cl
ATOM     29 CL   UNL     1     -15.674   2.653  -1.264  0.00  0.00    -0.082 Cl
ENDBRANCH  18  19
ENDBRANCH  17  18
ENDBRANCH  11  17
TORSDOF 5
