REMARK  Name = ZINC63350090
REMARK  2 active torsions:
REMARK  status: ('A' for Active; 'I' for Inactive)
REMARK    1  A    between atoms: C_2  and  C_3
REMARK    2  A    between atoms: C_3  and  N_4
REMARK                            x       y       z     vdW  Elec       q    Type
REMARK                         _______ _______ _______ _____ _____    ______ ____
ROOT
ATOM      1  N   UNL     1       1.367  -1.676   1.111  0.00  0.00    -0.248 N 
ATOM      2  C   UNL     1       1.841  -1.364   2.336  0.00  0.00    +0.242 C 
ATOM      3  O   UNL     1       2.259  -0.288   2.707  0.00  0.00    -0.273 OA
ATOM      4  C   UNL     1       1.742  -2.636   3.148  0.00  0.00    +0.166 C 
ATOM      5  C   UNL     1       0.853  -2.402   4.383  0.00  0.00    +0.065 C 
ATOM      6  C   UNL     1       0.324  -3.758   4.788  0.00  0.00    -0.035 C 
ATOM      7  C   UNL     1       0.377  -4.395   5.953  0.00  0.00    -0.001 A 
ATOM      8  C   UNL     1       0.875  -3.978   7.274  0.00  0.00    +0.010 A 
ATOM      9  C   UNL     1       0.794  -4.905   8.265  0.00  0.00    +0.001 A 
ATOM     10  C   UNL     1       0.273  -6.189   8.076  0.00  0.00    +0.002 A 
ATOM     11  C   UNL     1      -0.214  -6.654   6.898  0.00  0.00    +0.026 A 
ATOM     12  C   UNL     1      -0.188  -5.768   5.782  0.00  0.00    +0.043 A 
ATOM     13  N   UNL     1      -0.599  -5.941   4.561  0.00  0.00    -0.376 N 
ATOM     14  C   UNL     1      -0.398  -4.691   3.824  0.00  0.00    +0.124 C 
ATOM     15  C   UNL     1       0.530  -4.891   2.617  0.00  0.00    +0.136 C 
ATOM     16  N   UNL     1       1.054  -3.570   2.234  0.00  0.00    -0.298 N 
ATOM     17  C   UNL     1       0.943  -2.946   1.054  0.00  0.00    +0.143 C 
ATOM     18  S   UNL     1       0.334  -3.687  -0.364  0.00  0.00    -0.018 S 
ATOM     19  H   UNL     1      -0.975  -6.758   4.199  0.00  0.00    +0.160 HD
ENDROOT
BRANCH   1  20
ATOM     20  C   UNL     1       1.317  -0.740  -0.015  0.00  0.00    +0.142 C 
BRANCH  20  22
ATOM     21  C   UNL     1      -0.016   1.306   0.009  0.00  0.00    +0.005 C 
ATOM     22  C   UNL     1       0.002  -0.004   0.002  0.00  0.00    -0.015 C 
ENDBRANCH  20  22
ENDBRANCH   1  20
TORSDOF 2
