REMARK  Name = ZINC21647579
REMARK  6 active torsions:
REMARK  status: ('A' for Active; 'I' for Inactive)
REMARK    1  A    between atoms: C_1  and  N_2
REMARK    2  A    between atoms: N_2  and  C_3
REMARK    3  A    between atoms: N_2  and  C_4
REMARK    4  A    between atoms: C_7  and  C_10
REMARK    5  A    between atoms: C_10  and  N_11
REMARK    6  A    between atoms: C_12  and  C_14
REMARK                            x       y       z     vdW  Elec       q    Type
REMARK                         _______ _______ _______ _____ _____    ______ ____
ROOT
ATOM      1  N   UNL     1       0.783   3.830   1.295  0.00  0.00    -0.307 N 
ATOM      2  C   UNL     1       0.754   5.077   1.807  0.00  0.00    +0.251 C 
ATOM      3  O   UNL     1       0.741   6.040   1.063  0.00  0.00    -0.270 OA
ATOM      4  H   UNL     1       0.705   2.960   1.962  0.00  0.00    +0.149 HD
ENDROOT
BRANCH   2   5
ATOM      5  C   UNL     1       0.738   5.273   3.261  0.00  0.00    +0.119 A 
ATOM      6  C   UNL     1       0.574   6.553   3.801  0.00  0.00    +0.132 A 
ATOM      7  N   UNL     1       0.559   6.690   5.117  0.00  0.00    -0.230 NA
ATOM      8  C   UNL     1       0.705   5.654   5.916  0.00  0.00    +0.180 A 
ATOM      9  N   UNL     1       0.875   4.371   5.484  0.00  0.00    -0.258 N 
ATOM     10  C   UNL     1       0.893   4.172   4.131  0.00  0.00    +0.271 A 
ATOM     11  O   UNL     1       1.042   3.050   3.679  0.00  0.00    -0.266 OA
ATOM     12  C   UNL     1       1.016   3.378   6.442  0.00  0.00    +0.039 A 
ATOM     13  C   UNL     1       0.974   3.755   7.726  0.00  0.00    +0.013 A 
ATOM     14  S   UNL     1       0.738   5.510   7.641  0.00  0.00    -0.054 S 
ATOM     15  C   UNL     1       1.098   2.891   8.939  0.00  0.00    +0.044 C 
ATOM     16  C   UNL     1       0.917   1.427   8.510  0.00  0.00    +0.006 C 
ATOM     17  C   UNL     1       1.785   1.168   7.274  0.00  0.00    +0.006 C 
ATOM     18  C   UNL     1       1.211   1.913   6.068  0.00  0.00    +0.055 C 
ENDBRANCH   2   5
BRANCH   1  19
ATOM     19  C   UNL     1       0.918   3.635  -0.151  0.00  0.00    +0.139 C 
BRANCH  19  23
ATOM     20  C   UNL     1       0.936  -0.548  -1.029  0.00  0.00    +0.029 A 
ATOM     21  C   UNL     1      -0.264   0.153  -1.000  0.00  0.00    +0.023 A 
ATOM     22  C   UNL     1      -0.266   1.504  -0.716  0.00  0.00    +0.007 A 
ATOM     23  C   UNL     1       0.924   2.160  -0.460  0.00  0.00    -0.030 A 
ATOM     24  C   UNL     1       2.120   1.466  -0.488  0.00  0.00    +0.007 A 
ATOM     25  C   UNL     1       2.129   0.115  -0.772  0.00  0.00    +0.023 A 
BRANCH  20  27
ATOM     26  C   UNL     1      -0.324  -2.638  -1.459  0.00  0.00    +0.129 C 
ATOM     27  N   UNL     1       0.941  -1.915  -1.316  0.00  0.00    -0.336 N 
ATOM     28  C   UNL     1       2.213  -2.625  -1.474  0.00  0.00    +0.129 C 
ENDBRANCH  20  27
ENDBRANCH  19  23
ENDBRANCH   1  19
TORSDOF 4
