REMARK  Name = ZINC22969095
REMARK  6 active torsions:
REMARK  status: ('A' for Active; 'I' for Inactive)
REMARK    1  A    between atoms: C_1  and  C_2
REMARK    2  A    between atoms: C_4  and  C_7
REMARK    3  A    between atoms: C_7  and  C_9
REMARK    4  A    between atoms: C_7  and  S_10
REMARK    5  A    between atoms: S_10  and  C_11
REMARK    6  A    between atoms: N_20  and  C_21
REMARK                            x       y       z     vdW  Elec       q    Type
REMARK                         _______ _______ _______ _____ _____    ______ ____
ROOT
ATOM      1  C   UNL     1      -0.016   1.361   0.009  0.00  0.00    +0.173 A 
ATOM      2  N   UNL     1       1.105   2.052   0.003  0.00  0.00    -0.216 NA
ATOM      3  C   UNL     1       2.283   1.440  -0.012  0.00  0.00    +0.116 A 
ATOM      4  C   UNL     1       2.396   0.037  -0.021  0.00  0.00    +0.072 A 
ATOM      5  C   UNL     1       3.758  -0.468  -0.036  0.00  0.00    +0.023 A 
ATOM      6  C   UNL     1       4.779   0.402  -0.041  0.00  0.00    +0.048 A 
ATOM      7  S   UNL     1       3.970   1.990  -0.025  0.00  0.00    -0.077 S 
ATOM      8  C   UNL     1       1.162  -0.686  -0.013  0.00  0.00    +0.263 A 
ATOM      9  O   UNL     1       1.161  -1.905  -0.020  0.00  0.00    -0.267 OA
ATOM     10  N   UNL     1       0.002  -0.004   0.002  0.00  0.00    -0.290 N 
ATOM     11  C   UNL     1      -1.265  -0.740   0.010  0.00  0.00    +0.154 C 
ENDROOT
BRANCH   1  12
ATOM     12  S   UNL     1      -1.561   2.209   0.021  0.00  0.00    -0.075 S 
BRANCH  12  13
ATOM     13  C   UNL     1      -0.978   3.923   0.028  0.00  0.00    +0.140 C 
ATOM     14  C   UNL     1      -0.243   4.216  -1.281  0.00  0.00    +0.029 C 
BRANCH  13  18
ATOM     15  C   UNL     1      -4.045   7.633   1.407  0.00  0.00    +0.091 C 
ATOM     16  C   UNL     1      -3.462   6.416   0.736  0.00  0.00    +0.169 A 
ATOM     17  N   UNL     1      -2.241   5.896   0.953  0.00  0.00    -0.195 NA
ATOM     18  C   UNL     1      -2.156   4.853   0.162  0.00  0.00    +0.240 A 
ATOM     19  O   UNL     1      -3.311   4.777  -0.506  0.00  0.00    -0.337 OA
ATOM     20  N   UNL     1      -4.046   5.677  -0.159  0.00  0.00    -0.062 NA
ENDBRANCH  13  18
ENDBRANCH  12  13
ENDBRANCH   1  12
TORSDOF 3
