REMARK  Name = ZINC04736109
REMARK  10 active torsions:
REMARK  status: ('A' for Active; 'I' for Inactive)
REMARK    1  A    between atoms: C_1  and  C_2
REMARK    2  A    between atoms: C_3  and  C_27
REMARK    3  A    between atoms: C_8  and  C_10
REMARK    4  A    between atoms: C_10  and  C_12
REMARK    5  A    between atoms: C_10  and  S_13
REMARK    6  A    between atoms: S_13  and  C_14
REMARK    7  A    between atoms: C_17  and  C_22
REMARK    8  A    between atoms: N_18  and  C_19
REMARK    9  A    between atoms: C_19  and  C_20
REMARK   10  A    between atoms: C_19  and  C_21
REMARK                            x       y       z     vdW  Elec       q    Type
REMARK                         _______ _______ _______ _____ _____    ______ ____
ROOT
ATOM      1  S   UNL     1       1.685   1.712  -0.005  0.00  0.00    -0.073 S 
ENDROOT
BRANCH   1   2
ATOM      2  C   UNL     1       2.303   0.892  -1.437  0.00  0.00    +0.193 A 
ATOM      3  N   UNL     1       1.634   0.071  -2.214  0.00  0.00    -0.122 NA
ATOM      4  N   UNL     1       2.386  -0.348  -3.168  0.00  0.00    -0.125 NA
ATOM      5  C   UNL     1       3.585   0.181  -3.058  0.00  0.00    +0.201 A 
ATOM      6  N   UNL     1       3.566   0.996  -1.948  0.00  0.00    -0.297 N 
BRANCH   5   7
ATOM      7  C   UNL     1       4.728  -0.050  -3.955  0.00  0.00    +0.172 A 
ATOM      8  C   UNL     1       4.673  -0.617  -5.194  0.00  0.00    +0.053 A 
ATOM      9  C   UNL     1       5.990  -0.637  -5.690  0.00  0.00    +0.042 A 
ATOM     10  C   UNL     1       6.779  -0.097  -4.739  0.00  0.00    +0.196 A 
ATOM     11  O   UNL     1       6.014   0.256  -3.693  0.00  0.00    -0.460 OA
ENDBRANCH   5   7
BRANCH   6  12
ATOM     12  C   UNL     1       4.670   1.804  -1.424  0.00  0.00    +0.085 C 
ATOM     13  C   UNL     1       4.264   3.279  -1.415  0.00  0.00    +0.030 C 
ATOM     14  C   UNL     1       4.997   1.356   0.002  0.00  0.00    +0.030 C 
ENDBRANCH   6  12
ENDBRANCH   1   2
BRANCH   1  15
ATOM     15  C   UNL     1      -0.013   1.086   0.008  0.00  0.00    +0.137 C 
ATOM     16  C   UNL     1      -0.753   1.593  -1.232  0.00  0.00    +0.029 C 
BRANCH  15  24
ATOM     17  C   UNL     1      -2.586   3.901   5.516  0.00  0.00    +0.066 C 
ATOM     18  C   UNL     1      -2.882   2.678   4.687  0.00  0.00    +0.050 A 
ATOM     19  C   UNL     1      -3.897   1.843   5.021  0.00  0.00    +0.011 A 
ATOM     20  S   UNL     1      -3.764   0.624   3.721  0.00  0.00    -0.057 S 
ATOM     21  C   UNL     1      -2.412   1.326   2.889  0.00  0.00    +0.165 A 
ATOM     22  N   UNL     1      -2.156   2.391   3.624  0.00  0.00    -0.230 NA
ATOM     23  N   UNL     1      -1.761   0.878   1.746  0.00  0.00    -0.264 N 
ATOM     24  C   UNL     1      -0.718   1.572   1.248  0.00  0.00    +0.232 C 
ATOM     25  O   UNL     1      -0.347   2.587   1.798  0.00  0.00    -0.274 OA
ATOM     26  C   UNL     1      -4.868   1.921   6.170  0.00  0.00    +0.053 C 
ATOM     27  H   UNL     1      -2.057   0.066   1.306  0.00  0.00    +0.157 HD
ENDBRANCH  15  24
ENDBRANCH   1  15
TORSDOF 5
