REMARK  Name = ZINC35290854
REMARK  4 active torsions:
REMARK  status: ('A' for Active; 'I' for Inactive)
REMARK    1  A    between atoms: C_4  and  C_7
REMARK    2  A    between atoms: C_9  and  C_12
REMARK    3  A    between atoms: N_21  and  C_22
REMARK    4  A    between atoms: C_27  and  C_28
REMARK                            x       y       z     vdW  Elec       q    Type
REMARK                         _______ _______ _______ _____ _____    ______ ____
ROOT
ATOM      1  C   UNL     1       5.914  -3.974   0.097  0.00  0.00    +0.095 C 
ATOM      2  C   UNL     1       7.027  -4.035   1.145  0.00  0.00    +0.016 C 
ATOM      3  C   UNL     1       7.839  -5.318   0.955  0.00  0.00    +0.020 C 
ATOM      4  C   UNL     1       8.484  -5.308  -0.435  0.00  0.00    +0.109 C 
ATOM      5  N   UNL     1       7.434  -5.103  -1.442  0.00  0.00    -0.285 N 
ATOM      6  C   UNL     1       6.536  -3.948  -1.303  0.00  0.00    +0.122 C 
ATOM      7  C   UNL     1       7.297  -5.958  -2.474  0.00  0.00    +0.306 C 
ATOM      8  O   UNL     1       8.101  -6.856  -2.631  0.00  0.00    -0.252 OA
ATOM      9  N   UNL     1       6.268  -5.818  -3.333  0.00  0.00    -0.269 N 
ATOM     10  H   UNL     1       5.672  -5.056  -3.257  0.00  0.00    +0.156 HD
ENDROOT
BRANCH   9  11
ATOM     11  C   UNL     1       6.058  -6.771  -4.336  0.00  0.00    +0.046 A 
ATOM     12  C   UNL     1       6.594  -8.046  -4.207  0.00  0.00    +0.024 A 
ATOM     13  C   UNL     1       6.385  -8.985  -5.198  0.00  0.00    +0.002 A 
ATOM     14  C   UNL     1       5.644  -8.656  -6.319  0.00  0.00    +0.001 A 
ATOM     15  C   UNL     1       5.110  -7.388  -6.450  0.00  0.00    +0.014 A 
ATOM     16  C   UNL     1       5.310  -6.446  -5.460  0.00  0.00    +0.076 A 
BRANCH  16  17
ATOM     17  C   UNL     1       4.722  -5.066  -5.601  0.00  0.00    +0.419 C 
ATOM     18  F   UNL     1       4.017  -4.981  -6.807  0.00  0.00    -0.166 F 
ATOM     19  F   UNL     1       3.853  -4.817  -4.534  0.00  0.00    -0.166 F 
ATOM     20  F   UNL     1       5.751  -4.118  -5.596  0.00  0.00    -0.166 F 
ENDBRANCH  16  17
ENDBRANCH   9  11
BRANCH   1  23
ATOM     21  C   UNL     1       3.412  -1.412   0.691  0.00  0.00    +0.202 A 
ATOM     22  N   UNL     1       3.818  -2.688   0.563  0.00  0.00    -0.191 NA
ATOM     23  C   UNL     1       5.094  -2.726   0.306  0.00  0.00    +0.232 A 
ATOM     24  O   UNL     1       5.556  -1.470   0.259  0.00  0.00    -0.337 OA
ATOM     25  N   UNL     1       4.443  -0.624   0.508  0.00  0.00    -0.056 NA
BRANCH  21  29
ATOM     26  C   UNL     1      -0.560  -0.145   1.531  0.00  0.00    +0.000 A 
ATOM     27  C   UNL     1       0.441   0.794   1.359  0.00  0.00    +0.001 A 
ATOM     28  C   UNL     1       1.732   0.388   1.087  0.00  0.00    +0.012 A 
ATOM     29  C   UNL     1       2.026  -0.970   0.985  0.00  0.00    +0.022 A 
ATOM     30  C   UNL     1       1.014  -1.911   1.158  0.00  0.00    +0.012 A 
ATOM     31  C   UNL     1      -0.274  -1.495   1.431  0.00  0.00    +0.001 A 
ENDBRANCH  21  29
ENDBRANCH   1  23
TORSDOF 4
