REMARK  Name = ZINC12862529
REMARK  6 active torsions:
REMARK  status: ('A' for Active; 'I' for Inactive)
REMARK    1  A    between atoms: C_1  and  C_2
REMARK    2  A    between atoms: N_6  and  N_7
REMARK    3  A    between atoms: N_7  and  C_8
REMARK    4  A    between atoms: C_8  and  N_10
REMARK    5  A    between atoms: C_22  and  C_33
REMARK    6  A    between atoms: C_26  and  C_27
REMARK                            x       y       z     vdW  Elec       q    Type
REMARK                         _______ _______ _______ _____ _____    ______ ____
ROOT
ATOM      1  C   UNL     1      -2.097   3.194   2.461  0.00  0.00    +0.012 C 
ATOM      2  C   UNL     1      -0.705   3.826   2.511  0.00  0.00    -0.025 C 
ATOM      3  C   UNL     1       0.072   3.261   3.703  0.00  0.00    +0.013 C 
ATOM      4  C   UNL     1      -0.717   3.507   4.993  0.00  0.00    +0.053 C 
ATOM      5  C   UNL     1      -1.012   4.987   5.096  0.00  0.00    +0.037 C 
ATOM      6  N   UNL     1      -0.729   5.642   6.158  0.00  0.00    -0.190 NA
ATOM      7  C   UNL     1      -1.645   5.671   3.913  0.00  0.00    +0.056 C 
ATOM      8  C   UNL     1      -0.835   5.345   2.652  0.00  0.00    +0.001 C 
ATOM      9  C   UNL     1      -1.557   5.933   1.439  0.00  0.00    +0.005 C 
ATOM     10  C   UNL     1      -0.812   5.577   0.149  0.00  0.00    +0.008 C 
ATOM     11  C   UNL     1      -0.752   4.056   0.027  0.00  0.00    +0.019 C 
ATOM     12  C   UNL     1       0.037   3.491   1.220  0.00  0.00    +0.002 C 
ATOM     13  C   UNL     1       0.253   1.994   1.047  0.00  0.00    +0.006 C 
ATOM     14  C   UNL     1       1.129   1.711  -0.182  0.00  0.00    +0.016 C 
ATOM     15  C   UNL     1       0.393   2.181  -1.437  0.00  0.00    +0.015 C 
ATOM     16  C   UNL     1      -0.004   3.632  -1.208  0.00  0.00    -0.056 C 
ATOM     17  C   UNL     1       0.497   4.344  -2.200  0.00  0.00    +0.001 C 
ATOM     18  C   UNL     1       1.290   3.501  -3.088  0.00  0.00    +0.005 C 
ATOM     19  C   UNL     1       1.279   2.193  -2.653  0.00  0.00    -0.031 C 
ATOM     20  C   UNL     1      -0.846   1.318  -1.685  0.00  0.00    +0.021 C 
ENDROOT
BRANCH  19  21
ATOM     21  C   UNL     1       1.954   1.091  -3.215  0.00  0.00    +0.000 C 
ATOM     22  C   UNL     1       1.942  -0.193  -2.766  0.00  0.00    +0.098 C 
ATOM     23  C   UNL     1       2.740  -0.992  -3.606  0.00  0.00    +0.333 C 
ATOM     24  O   UNL     1       2.918  -2.187  -3.457  0.00  0.00    -0.246 OA
ATOM     25  O   UNL     1       3.285  -0.258  -4.594  0.00  0.00    -0.457 OA
ATOM     26  C   UNL     1       2.845   1.097  -4.437  0.00  0.00    +0.268 C 
ENDBRANCH  19  21
BRANCH   6  27
ATOM     27  N   UNL     1      -0.264   4.967   7.294  0.00  0.00    -0.219 N 
ATOM     28  H   UNL     1      -0.226   3.998   7.301  0.00  0.00    +0.176 HD
BRANCH  27  29
ATOM     29  C   UNL     1       0.132   5.665   8.378  0.00  0.00    +0.147 C 
ATOM     30  S   UNL     1       0.700   4.840   9.766  0.00  0.00    -0.017 S 
BRANCH  29  31
ATOM     31  N   UNL     1       0.079   7.011   8.368  0.00  0.00    -0.339 N 
ATOM     32  H   UNL     1      -0.243   7.479   7.582  0.00  0.00    +0.144 HD
ATOM     33  H   UNL     1       0.364   7.513   9.148  0.00  0.00    +0.144 HD
ENDBRANCH  29  31
ENDBRANCH  27  29
ENDBRANCH   6  27
TORSDOF 4
