REMARK  Name = ZINC41057270
REMARK  4 active torsions:
REMARK  status: ('A' for Active; 'I' for Inactive)
REMARK    1  A    between atoms: C_1  and  C_2
REMARK    2  A    between atoms: C_2  and  C_3
REMARK    3  A    between atoms: C_2  and  C_4
REMARK    4  A    between atoms: C_6  and  C_10
REMARK                            x       y       z     vdW  Elec       q    Type
REMARK                         _______ _______ _______ _____ _____    ______ ____
ROOT
ATOM      1  C   UNL     1       0.731  -0.503   1.223  0.00  0.00    +0.154 A 
ATOM      2  N   UNL     1       0.210  -1.288   2.162  0.00  0.00    -0.208 NA
ATOM      3  C   UNL     1       1.116  -1.536   3.089  0.00  0.00    +0.192 A 
ATOM      4  N   UNL     1       2.259  -0.889   2.733  0.00  0.00    -0.256 N 
ATOM      5  H   UNL     1       3.100  -0.882   3.216  0.00  0.00    +0.191 HD
ATOM      6  N   UNL     1       1.976  -0.237   1.521  0.00  0.00    -0.157 NA
ENDROOT
BRANCH   3   7
ATOM      7  C   UNL     1       0.925  -2.364   4.291  0.00  0.00    +0.173 A 
ATOM      8  C   UNL     1       1.863  -2.612   5.248  0.00  0.00    +0.054 A 
ATOM      9  C   UNL     1       1.253  -3.443   6.206  0.00  0.00    +0.057 A 
ATOM     10  C   UNL     1      -0.014  -3.660   5.794  0.00  0.00    +0.171 A 
ATOM     11  O   UNL     1      -0.209  -3.002   4.640  0.00  0.00    -0.445 OA
ATOM     12 BR   UNL     1      -1.302  -4.712   6.695  0.00  0.00    -0.008 Br
ENDBRANCH   3   7
BRANCH   1  14
ATOM     13  C   UNL     1      -0.019   1.526   0.010  0.00  0.00    +0.015 C 
ATOM     14  C   UNL     1       0.002  -0.004   0.002  0.00  0.00    +0.053 C 
ATOM     15  C   UNL     1       0.718  -0.497  -1.257  0.00  0.00    +0.015 C 
ENDBRANCH   1  14
TORSDOF 2
