REMARK  Name = ZINC09705825
REMARK  9 active torsions:
REMARK  status: ('A' for Active; 'I' for Inactive)
REMARK    1  A    between atoms: C_1  and  C_2
REMARK    2  A    between atoms: C_7  and  N_8
REMARK    3  A    between atoms: C_9  and  C_11
REMARK    4  A    between atoms: C_12  and  N_20
REMARK    5  A    between atoms: C_21  and  C_23
REMARK    6  A    between atoms: N_25  and  C_26
REMARK    7  A    between atoms: C_26  and  C_27
REMARK    8  A    between atoms: C_27  and  C_29
REMARK    9  A    between atoms: C_27  and  O_30
REMARK                            x       y       z     vdW  Elec       q    Type
REMARK                         _______ _______ _______ _____ _____    ______ ____
ROOT
ATOM      1  C   UNL     1      -2.462   1.095   0.442  0.00  0.00    +0.212 A 
ATOM      2  C   UNL     1      -3.631   1.693   0.057  0.00  0.00    +0.093 A 
ATOM      3  C   UNL     1      -4.613   0.609  -0.073  0.00  0.00    +0.042 A 
ATOM      4  C   UNL     1      -5.961   0.558  -0.428  0.00  0.00    +0.013 A 
ATOM      5  C   UNL     1      -6.612  -0.644  -0.448  0.00  0.00    +0.001 A 
ATOM      6  C   UNL     1      -5.940  -1.812  -0.116  0.00  0.00    +0.004 A 
ATOM      7  C   UNL     1      -4.608  -1.782   0.237  0.00  0.00    +0.047 A 
ATOM      8  C   UNL     1      -3.926  -0.570   0.264  0.00  0.00    +0.138 A 
ATOM      9  O   UNL     1      -2.655  -0.237   0.562  0.00  0.00    -0.448 OA
ENDROOT
BRANCH   1  11
ATOM     10  N   UNL     1      -0.085   1.087   0.968  0.00  0.00    -0.279 N 
ATOM     11  C   UNL     1      -1.200   1.791   0.691  0.00  0.00    +0.285 C 
ATOM     12  O   UNL     1      -1.157   3.007   0.648  0.00  0.00    -0.266 OA
ATOM     13  H   UNL     1      -0.106   0.117   0.945  0.00  0.00    +0.155 HD
BRANCH  10  20
ATOM     14  C   UNL     1       1.691  -0.137   2.824  0.00  0.00    +0.045 C 
ATOM     15  C   UNL     1       1.998   1.192   2.183  0.00  0.00    -0.029 A 
ATOM     16  C   UNL     1       3.171   1.853   2.492  0.00  0.00    +0.005 A 
ATOM     17  C   UNL     1       3.454   3.072   1.905  0.00  0.00    +0.000 A 
ATOM     18  C   UNL     1       2.565   3.634   1.007  0.00  0.00    +0.002 A 
ATOM     19  C   UNL     1       1.393   2.976   0.690  0.00  0.00    +0.023 A 
ATOM     20  C   UNL     1       1.103   1.753   1.282  0.00  0.00    +0.037 A 
ENDBRANCH  10  20
ENDBRANCH   1  11
BRANCH   2  21
ATOM     21  N   UNL     1      -3.845   3.046  -0.168  0.00  0.00    -0.274 N 
ATOM     22  C   UNL     1      -5.080   3.566  -0.026  0.00  0.00    +0.303 C 
ATOM     23  O   UNL     1      -5.992   2.866   0.362  0.00  0.00    -0.265 OA
ATOM     24  H   UNL     1      -3.104   3.618  -0.426  0.00  0.00    +0.155 HD
BRANCH  22  25
ATOM     25  C   UNL     1      -5.326   5.004  -0.348  0.00  0.00    +0.299 C 
ATOM     26  O   UNL     1      -4.414   5.704  -0.736  0.00  0.00    -0.265 OA
ATOM     27  N   UNL     1      -6.561   5.524  -0.206  0.00  0.00    -0.305 N 
ATOM     28  H   UNL     1      -7.290   4.964   0.104  0.00  0.00    +0.149 HD
BRANCH  27  29
ATOM     29  C   UNL     1      -6.803   6.934  -0.521  0.00  0.00    +0.135 C 
BRANCH  29  30
ATOM     30  C   UNL     1      -8.277   7.266  -0.277  0.00  0.00    +0.128 C 
ATOM     31  C   UNL     1      -8.557   8.702  -0.724  0.00  0.00    +0.039 C 
BRANCH  30  32
ATOM     32  O   UNL     1      -8.570   7.134   1.115  0.00  0.00    -0.391 OA
ATOM     33  H   UNL     1      -9.489   7.330   1.344  0.00  0.00    +0.210 HD
ENDBRANCH  30  32
ENDBRANCH  29  30
ENDBRANCH  27  29
ENDBRANCH  22  25
ENDBRANCH   2  21
TORSDOF 7
