REMARK  Name = ZINC24474701
REMARK  8 active torsions:
REMARK  status: ('A' for Active; 'I' for Inactive)
REMARK    1  A    between atoms: C_1  and  C_2
REMARK    2  A    between atoms: C_3  and  C_30
REMARK    3  A    between atoms: N_9  and  C_29
REMARK    4  A    between atoms: C_10  and  S_12
REMARK    5  A    between atoms: S_12  and  C_13
REMARK    6  A    between atoms: C_13  and  C_14
REMARK    7  A    between atoms: N_19  and  C_20
REMARK    8  A    between atoms: C_26  and  C_28
REMARK                            x       y       z     vdW  Elec       q    Type
REMARK                         _______ _______ _______ _____ _____    ______ ____
ROOT
ATOM      1  C   UNL     1      -0.661  -2.724  -0.006  0.00  0.00    +0.173 C 
ENDROOT
BRANCH   1   2
ATOM      2  C   UNL     1      -0.923  -4.208  -0.012  0.00  0.00    +0.231 C 
ATOM      3  O   UNL     1       0.005  -4.988  -0.025  0.00  0.00    -0.274 OA
ATOM      4  N   UNL     1      -2.189  -4.668  -0.002  0.00  0.00    -0.239 N 
ATOM      5  C   UNL     1      -2.424  -5.996  -0.007  0.00  0.00    +0.306 C 
ATOM      6  O   UNL     1      -1.494  -6.777  -0.020  0.00  0.00    -0.252 OA
ATOM      7  N   UNL     1      -3.691  -6.456   0.003  0.00  0.00    -0.296 N 
ATOM      8  H   UNL     1      -3.032  -3.961   0.010  0.00  0.00    +0.159 HD
ATOM      9  H   UNL     1      -4.533  -5.749   0.015  0.00  0.00    +0.151 HD
BRANCH   7  10
ATOM     10  C   UNL     1      -3.946  -7.899  -0.003  0.00  0.00    +0.077 C 
ATOM     11  C   UNL     1      -3.925  -8.415  -1.443  0.00  0.00    +0.022 C 
ATOM     12  C   UNL     1      -5.007  -7.703  -2.256  0.00  0.00    +0.002 C 
ATOM     13  C   UNL     1      -6.377  -7.981  -1.635  0.00  0.00    +0.000 C 
ATOM     14  C   UNL     1      -6.399  -7.465  -0.195  0.00  0.00    +0.005 C 
ATOM     15  C   UNL     1      -5.316  -8.177   0.619  0.00  0.00    +0.006 C 
ATOM     16  C   UNL     1      -5.337  -7.660   2.059  0.00  0.00    +0.009 C 
ENDBRANCH   7  10
ENDBRANCH   1   2
BRANCH   1  17
ATOM     17  S   UNL     1       1.125  -2.427  -0.022  0.00  0.00    -0.078 S 
BRANCH  17  27
ATOM     18  C   UNL     1       2.151   4.459   0.006  0.00  0.00    +0.045 C 
ATOM     19  C   UNL     1       0.968   3.525   0.012  0.00  0.00    -0.026 A 
ATOM     20  C   UNL     1      -0.281   4.014   0.026  0.00  0.00    -0.008 A 
ATOM     21  S   UNL     1      -1.298   2.550   0.021  0.00  0.00    -0.073 S 
ATOM     22  C   UNL     1      -0.016   1.323   0.009  0.00  0.00    +0.117 A 
ATOM     23  C   UNL     1       1.167   2.086   0.002  0.00  0.00    +0.075 A 
ATOM     24  C   UNL     1       2.388   1.341  -0.013  0.00  0.00    +0.263 A 
ATOM     25  O   UNL     1       3.463   1.917  -0.019  0.00  0.00    -0.267 OA
ATOM     26  N   UNL     1       2.335  -0.003  -0.020  0.00  0.00    -0.290 N 
ATOM     27  C   UNL     1       1.142  -0.665  -0.012  0.00  0.00    +0.173 A 
ATOM     28  N   UNL     1       0.002  -0.004   0.002  0.00  0.00    -0.216 NA
ATOM     29  C   UNL     1       3.583  -0.771  -0.035  0.00  0.00    +0.154 C 
ATOM     30  C   UNL     1      -0.720   5.455   0.039  0.00  0.00    +0.052 C 
ENDBRANCH  17  27
ENDBRANCH   1  17
TORSDOF 4
