REMARK  Name = ZINC46865683
REMARK  7 active torsions:
REMARK  status: ('A' for Active; 'I' for Inactive)
REMARK    1  A    between atoms: C_1  and  C_2
REMARK    2  A    between atoms: C_3  and  C_23
REMARK    3  A    between atoms: C_7  and  S_12
REMARK    4  A    between atoms: C_10  and  C_11
REMARK    5  A    between atoms: S_12  and  C_13
REMARK    6  A    between atoms: C_13  and  C_15
REMARK    7  A    between atoms: C_13  and  C_16
REMARK                            x       y       z     vdW  Elec       q    Type
REMARK                         _______ _______ _______ _____ _____    ______ ____
ROOT
ATOM      1  C   UNL     1      -0.018   1.503   0.010  0.00  0.00    +0.047 C 
ATOM      2  C   UNL     1       0.002  -0.004   0.002  0.00  0.00    -0.008 A 
ATOM      3  C   UNL     1       0.006  -0.705  -1.209  0.00  0.00    +0.047 A 
ATOM      4  N   UNL     1       0.024  -2.019  -1.214  0.00  0.00    -0.216 NA
ATOM      5  C   UNL     1       0.038  -2.710  -0.068  0.00  0.00    +0.254 A 
ATOM      6  N   UNL     1       0.057  -4.013   0.191  0.00  0.00    -0.183 NA
ATOM      7  C   UNL     1       0.066  -4.209   1.508  0.00  0.00    +0.212 A 
ATOM      8  N   UNL     1       0.053  -3.044   2.124  0.00  0.00    -0.137 NA
ATOM      9  N   UNL     1       0.035  -2.055   1.131  0.00  0.00    -0.200 N 
ATOM     10  C   UNL     1       0.023  -0.698   1.170  0.00  0.00    +0.048 A 
ATOM     11  C   UNL     1       0.025   0.029   2.490  0.00  0.00    +0.066 C 
ATOM     12  C   UNL     1      -0.011   0.050  -2.513  0.00  0.00    +0.066 C 
ENDROOT
BRANCH   7  13
ATOM     13  S   UNL     1       0.090  -5.781   2.304  0.00  0.00    -0.072 S 
BRANCH  13  14
ATOM     14  C   UNL     1       0.100  -6.967   0.931  0.00  0.00    +0.137 C 
ATOM     15  C   UNL     1       1.402  -6.822   0.141  0.00  0.00    +0.029 C 
BRANCH  14  16
ATOM     16  C   UNL     1      -0.003  -8.368   1.477  0.00  0.00    +0.229 C 
ATOM     17  O   UNL     1       0.284  -8.590   2.634  0.00  0.00    -0.274 OA
ATOM     18  N   UNL     1      -0.415  -9.373   0.680  0.00  0.00    -0.301 N 
ATOM     19  C   UNL     1      -0.787  -9.246  -0.737  0.00  0.00    +0.108 C 
ATOM     20  C   UNL     1      -1.214 -10.646  -1.226  0.00  0.00    +0.020 C 
ATOM     21  C   UNL     1      -1.599 -11.371   0.090  0.00  0.00    +0.020 C 
ATOM     22  C   UNL     1      -0.561 -10.784   1.082  0.00  0.00    +0.108 C 
ENDBRANCH  14  16
ENDBRANCH  13  14
ENDBRANCH   7  13
TORSDOF 3
