REMARK  Name = ZINC04836511
REMARK  7 active torsions:
REMARK  status: ('A' for Active; 'I' for Inactive)
REMARK    1  A    between atoms: C_1  and  C_2
REMARK    2  A    between atoms: C_9  and  C_11
REMARK    3  A    between atoms: C_11  and  O_12
REMARK    4  A    between atoms: O_12  and  C_13
REMARK    5  A    between atoms: C_13  and  C_15
REMARK    6  A    between atoms: C_18  and  S_21
REMARK    7  A    between atoms: S_21  and  N_24
REMARK                            x       y       z     vdW  Elec       q    Type
REMARK                         _______ _______ _______ _____ _____    ______ ____
ROOT
ATOM      1  C   UNL     1       3.130   4.743   4.686  0.00  0.00    +0.059 A 
ATOM      2  C   UNL     1       2.229   4.970   5.729  0.00  0.00    +0.017 A 
ATOM      3  C   UNL     1       2.633   5.677   6.842  0.00  0.00    +0.029 A 
ATOM      4  C   UNL     1       3.923   6.171   6.922  0.00  0.00    +0.106 A 
ATOM      5  C   UNL     1       4.819   5.954   5.890  0.00  0.00    +0.029 A 
ATOM      6  C   UNL     1       4.430   5.243   4.774  0.00  0.00    +0.017 A 
ENDROOT
BRANCH   4   7
ATOM      7  S   UNL     1       4.428   7.079   8.345  0.00  0.00    +0.061 S 
ATOM      8  O   UNL     1       3.574   6.677   9.408  0.00  0.00    -0.153 OA
ATOM      9  O   UNL     1       5.842   6.964   8.420  0.00  0.00    -0.153 OA
BRANCH   7  10
ATOM     10  N   UNL     1       4.098   8.675   8.050  0.00  0.00    -0.177 NA
ATOM     11  C   UNL     1       5.118   9.490   7.429  0.00  0.00    +0.109 C 
ATOM     12  C   UNL     1       6.020  10.118   8.512  0.00  0.00    +0.017 C 
ATOM     13  C   UNL     1       5.287  11.162   9.244  0.00  0.00    +0.001 C 
ATOM     14  C   UNL     1       4.070  10.654  10.012  0.00  0.00    +0.001 C 
ATOM     15  C   UNL     1       2.881  10.600   9.086  0.00  0.00    +0.017 C 
ATOM     16  C   UNL     1       2.777   9.207   8.438  0.00  0.00    +0.109 C 
ENDBRANCH   7  10
ENDBRANCH   4   7
BRANCH   1  17
ATOM     17  C   UNL     1       2.707   3.981   3.493  0.00  0.00    +0.340 C 
ATOM     18  O   UNL     1       3.491   3.789   2.586  0.00  0.00    -0.245 OA
BRANCH  17  19
ATOM     19  O   UNL     1       1.451   3.499   3.412  0.00  0.00    -0.452 OA
BRANCH  19  20
ATOM     20  C   UNL     1       1.105   2.760   2.211  0.00  0.00    +0.328 C 
BRANCH  20  28
ATOM     21  C   UNL     1      -2.991   1.943   2.472  0.00  0.00    +0.028 C 
ATOM     22  C   UNL     1      -2.302   1.247   1.296  0.00  0.00    +0.073 C 
ATOM     23  C   UNL     1      -2.932   1.716  -0.019  0.00  0.00    +0.022 C 
ATOM     24  C   UNL     1      -2.149   1.126  -1.194  0.00  0.00    +0.003 C 
ATOM     25  C   UNL     1      -0.702   1.622  -1.147  0.00  0.00    +0.019 C 
ATOM     26  C   UNL     1      -0.048   1.152   0.156  0.00  0.00    +0.108 C 
ATOM     27  N   UNL     1      -0.872   1.593   1.289  0.00  0.00    -0.296 N 
ATOM     28  C   UNL     1      -0.328   2.303   2.298  0.00  0.00    +0.254 C 
ATOM     29  O   UNL     1      -0.992   2.573   3.276  0.00  0.00    -0.272 OA
ENDBRANCH  20  28
ENDBRANCH  19  20
ENDBRANCH  17  19
ENDBRANCH   1  17
TORSDOF 6
