REMARK  Name = ZINC16024900
REMARK  10 active torsions:
REMARK  status: ('A' for Active; 'I' for Inactive)
REMARK    1  A    between atoms: C_1  and  C_2
REMARK    2  A    between atoms: C_4  and  C_37
REMARK    3  A    between atoms: C_13  and  C_16
REMARK    4  A    between atoms: C_16  and  C_17
REMARK    5  A    between atoms: C_20  and  O_24
REMARK    6  A    between atoms: C_21  and  O_23
REMARK    7  A    between atoms: N_27  and  C_30
REMARK    8  A    between atoms: C_30  and  C_31
REMARK    9  A    between atoms: C_31  and  O_32
REMARK   10  A    between atoms: O_32  and  C_33
REMARK                            x       y       z     vdW  Elec       q    Type
REMARK                         _______ _______ _______ _____ _____    ______ ____
ROOT
ATOM      1  C   UNL     1      -0.018   1.503   0.010  0.00  0.00    +0.044 C 
ATOM      2  C   UNL     1       0.002  -0.004   0.002  0.00  0.00    -0.050 A 
ATOM      3  C   UNL     1       0.006  -0.691  -1.199  0.00  0.00    +0.008 A 
ATOM      4  C   UNL     1       0.026  -2.070  -1.212  0.00  0.00    -0.029 A 
ATOM      5  C   UNL     1       0.043  -2.782  -0.015  0.00  0.00    +0.042 A 
ATOM      6  C   UNL     1       0.038  -2.081   1.187  0.00  0.00    +0.004 A 
ATOM      7  C   UNL     1       0.023  -0.704   1.195  0.00  0.00    +0.011 A 
ATOM      8  C   UNL     1       0.059  -3.122   2.270  0.00  0.00    +0.136 C 
ATOM      9  C   UNL     1       1.285  -2.962   3.178  0.00  0.00    +0.122 C 
ATOM     10  C   UNL     1       0.754  -2.190   4.418  0.00  0.00    +0.107 C 
ATOM     11  C   UNL     1      -0.738  -1.934   4.117  0.00  0.00    +0.072 C 
ATOM     12  N   UNL     1      -1.116  -3.009   3.152  0.00  0.00    -0.295 NA
ATOM     13  C   UNL     1       0.888  -3.194   5.539  0.00  0.00    +0.227 C 
ATOM     14  O   UNL     1       0.572  -3.001   6.694  0.00  0.00    -0.275 OA
ATOM     15  N   UNL     1       1.410  -4.329   5.059  0.00  0.00    -0.239 N 
ATOM     16  C   UNL     1       1.683  -4.311   3.735  0.00  0.00    +0.228 C 
ATOM     17  O   UNL     1       2.165  -5.219   3.092  0.00  0.00    -0.275 OA
ATOM     18  C   UNL     1       0.078  -4.440   1.545  0.00  0.00    +0.243 C 
ATOM     19  O   UNL     1       0.101  -5.543   2.049  0.00  0.00    -0.273 OA
ATOM     20  N   UNL     1       0.065  -4.157   0.228  0.00  0.00    -0.283 N 
ATOM     21  C   UNL     1       0.029  -2.808  -2.526  0.00  0.00    +0.045 C 
ATOM     22  H   UNL     1      -1.938  -2.746   2.628  0.00  0.00    +0.124 HD
ATOM     23  H   UNL     1       0.070  -4.831  -0.470  0.00  0.00    +0.155 HD
ENDROOT
BRANCH  11  24
ATOM     24  C   UNL     1      -1.569  -2.068   5.395  0.00  0.00    +0.054 C 
BRANCH  24  25
ATOM     25  C   UNL     1      -3.000  -1.696   5.105  0.00  0.00    -0.042 A 
ATOM     26  C   UNL     1      -3.413  -0.383   5.243  0.00  0.00    +0.007 A 
ATOM     27  C   UNL     1      -4.724  -0.037   4.979  0.00  0.00    +0.049 A 
ATOM     28  C   UNL     1      -5.629  -1.005   4.574  0.00  0.00    +0.158 A 
ATOM     29  C   UNL     1      -5.213  -2.326   4.435  0.00  0.00    +0.158 A 
ATOM     30  C   UNL     1      -3.896  -2.666   4.697  0.00  0.00    +0.052 A 
BRANCH  29  31
ATOM     31  O   UNL     1      -6.097  -3.280   4.038  0.00  0.00    -0.503 OA
ATOM     32  H   UNL     1      -6.141  -3.401   3.079  0.00  0.00    +0.292 HD
ENDBRANCH  29  31
BRANCH  28  33
ATOM     33  O   UNL     1      -6.920  -0.666   4.313  0.00  0.00    -0.503 OA
ATOM     34  H   UNL     1      -7.082  -0.412   3.394  0.00  0.00    +0.292 HD
ENDBRANCH  28  33
ENDBRANCH  24  25
ENDBRANCH  11  24
BRANCH  15  35
ATOM     35  C   UNL     1       1.671  -5.499   5.902  0.00  0.00    +0.144 C 
BRANCH  35  36
ATOM     36  C   UNL     1       0.435  -6.400   5.920  0.00  0.00    +0.179 C 
BRANCH  36  37
ATOM     37  O   UNL     1       0.206  -6.922   4.610  0.00  0.00    -0.381 OA
ATOM     38  C   UNL     1      -0.932  -7.781   4.517  0.00  0.00    +0.194 C 
ENDBRANCH  36  37
ENDBRANCH  35  36
ENDBRANCH  15  35
TORSDOF 7
