REMARK  Name = ZINC06866291
REMARK  9 active torsions:
REMARK  status: ('A' for Active; 'I' for Inactive)
REMARK    1  A    between atoms: C_1  and  C_2
REMARK    2  A    between atoms: C_7  and  S_17
REMARK    3  A    between atoms: C_12  and  C_14
REMARK    4  A    between atoms: S_17  and  N_20
REMARK    5  A    between atoms: N_20  and  C_21
REMARK    6  A    between atoms: C_24  and  O_29
REMARK    7  A    between atoms: C_25  and  O_27
REMARK    8  A    between atoms: O_27  and  C_28
REMARK    9  A    between atoms: O_29  and  C_30
REMARK                            x       y       z     vdW  Elec       q    Type
REMARK                         _______ _______ _______ _____ _____    ______ ____
ROOT
ATOM      1  C   UNL     1      -2.322   3.915   2.989  0.00  0.00    +0.029 C 
ATOM      2  C   UNL     1      -0.931   4.329   2.506  0.00  0.00    +0.083 C 
ATOM      3  C   UNL     1      -0.943   5.793   2.037  0.00  0.00    +0.059 C 
ATOM      4  C   UNL     1      -0.555   5.728   0.577  0.00  0.00    -0.022 A 
ATOM      5  C   UNL     1      -0.401   6.727  -0.365  0.00  0.00    +0.034 A 
ATOM      6  C   UNL     1      -0.017   6.412  -1.655  0.00  0.00    +0.109 A 
ATOM      7  C   UNL     1       0.199   5.092  -2.006  0.00  0.00    +0.030 A 
ATOM      8  C   UNL     1       0.041   4.091  -1.071  0.00  0.00    +0.026 A 
ATOM      9  C   UNL     1      -0.337   4.402   0.237  0.00  0.00    +0.040 A 
ATOM     10  N   UNL     1      -0.550   3.550   1.325  0.00  0.00    -0.268 N 
ATOM     11  C   UNL     1      -0.418   2.209   1.293  0.00  0.00    +0.223 C 
ATOM     12  O   UNL     1      -0.017   1.663   0.287  0.00  0.00    -0.275 OA
ENDROOT
BRANCH  11  13
ATOM     13  C   UNL     1      -0.768   1.389   2.507  0.00  0.00    +0.076 C 
ATOM     14  C   UNL     1      -1.873   0.341   2.357  0.00  0.00    +0.013 C 
ATOM     15  C   UNL     1      -0.413  -0.099   2.481  0.00  0.00    +0.013 C 
ENDBRANCH  11  13
BRANCH   6  16
ATOM     16  S   UNL     1       0.186   7.688  -2.853  0.00  0.00    +0.072 S 
ATOM     17  O   UNL     1       0.455   8.883  -2.132  0.00  0.00    -0.150 OA
ATOM     18  O   UNL     1       1.071   7.180  -3.843  0.00  0.00    -0.150 OA
BRANCH  16  19
ATOM     19  N   UNL     1      -1.280   7.902  -3.594  0.00  0.00    -0.216 N 
ATOM     20  H   UNL     1      -1.381   7.699  -4.537  0.00  0.00    +0.174 HD
BRANCH  19  21
ATOM     21  C   UNL     1      -2.372   8.376  -2.859  0.00  0.00    +0.052 A 
ATOM     22  C   UNL     1      -2.213   9.449  -1.992  0.00  0.00    +0.028 A 
ATOM     23  C   UNL     1      -3.291   9.918  -1.266  0.00  0.00    +0.051 A 
ATOM     24  C   UNL     1      -4.533   9.319  -1.401  0.00  0.00    +0.162 A 
ATOM     25  C   UNL     1      -4.696   8.243  -2.269  0.00  0.00    +0.163 A 
ATOM     26  C   UNL     1      -3.616   7.776  -3.000  0.00  0.00    +0.074 A 
BRANCH  25  27
ATOM     27  O   UNL     1      -5.914   7.655  -2.402  0.00  0.00    -0.491 OA
ATOM     28  C   UNL     1      -6.008   6.556  -3.311  0.00  0.00    +0.277 C 
ENDBRANCH  25  27
BRANCH  24  29
ATOM     29  O   UNL     1      -5.593   9.782  -0.685  0.00  0.00    -0.491 OA
ATOM     30  C   UNL     1      -5.354  10.889   0.187  0.00  0.00    +0.277 C 
ENDBRANCH  24  29
ENDBRANCH  19  21
ENDBRANCH  16  19
ENDBRANCH   6  16
TORSDOF 6
