REMARK  Name = ZINC01944987
REMARK  5 active torsions:
REMARK  status: ('A' for Active; 'I' for Inactive)
REMARK    1  A    between atoms: C_1  and  C_2
REMARK    2  A    between atoms: N_13  and  C_16
REMARK    3  A    between atoms: C_16  and  C_18
REMARK    4  A    between atoms: C_16  and  C_19
REMARK    5  A    between atoms: C_19  and  C_21
REMARK                            x       y       z     vdW  Elec       q    Type
REMARK                         _______ _______ _______ _____ _____    ______ ____
ROOT
ATOM      1  C   UNL     1      -6.726   0.056   0.141  0.00  0.00    +0.008 C 
ATOM      2  C   UNL     1      -5.284   0.479   0.423  0.00  0.00    -0.009 C 
ATOM      3  C   UNL     1      -4.326  -0.360  -0.428  0.00  0.00    +0.008 C 
ATOM      4  C   UNL     1      -2.885  -0.122   0.025  0.00  0.00    +0.037 C 
ATOM      5  C   UNL     1      -2.613   1.380   0.033  0.00  0.00    -0.023 A 
ATOM      6  C   UNL     1      -3.634   2.265   0.048  0.00  0.00    -0.004 A 
ATOM      7  S   UNL     1      -2.858   3.859   0.051  0.00  0.00    -0.071 S 
ATOM      8  C   UNL     1      -1.163   3.329   0.032  0.00  0.00    +0.138 A 
ATOM      9  C   UNL     1      -1.260   1.929   0.018  0.00  0.00    +0.079 A 
ATOM     10  C   UNL     1      -0.015   1.215   0.009  0.00  0.00    +0.279 A 
ATOM     11  O   UNL     1       0.002  -0.004   0.002  0.00  0.00    -0.265 OA
ATOM     12  N   UNL     1       1.135   1.916   0.002  0.00  0.00    -0.200 N 
ATOM     13  N   UNL     1       1.119   3.315   0.010  0.00  0.00    -0.061 NA
ATOM     14  N   UNL     1       0.005   3.963   0.024  0.00  0.00    -0.123 NA
ATOM     15  C   UNL     1      -5.100   1.959   0.059  0.00  0.00    +0.046 C 
ENDROOT
BRANCH  12  16
ATOM     16  C   UNL     1       2.417   1.207  -0.015  0.00  0.00    +0.175 C 
ATOM     17  C   UNL     1       3.200   1.597  -1.269  0.00  0.00    +0.041 C 
BRANCH  16  18
ATOM     18  C   UNL     1       3.212   1.578   1.210  0.00  0.00    +0.154 C 
ATOM     19  O   UNL     1       2.894   2.540   1.868  0.00  0.00    -0.295 OA
ATOM     20  C   UNL     1       4.404   0.750   1.615  0.00  0.00    +0.088 C 
ENDBRANCH  16  18
ENDBRANCH  12  16
TORSDOF 2
