REMARK  Name = ZINC22293329
REMARK  9 active torsions:
REMARK  status: ('A' for Active; 'I' for Inactive)
REMARK    1  A    between atoms: C_1  and  C_2
REMARK    2  A    between atoms: C_5  and  C_32
REMARK    3  A    between atoms: N_8  and  C_10
REMARK    4  A    between atoms: C_10  and  C_11
REMARK    5  A    between atoms: N_16  and  C_17
REMARK    6  A    between atoms: C_17  and  C_19
REMARK    7  A    between atoms: C_22  and  C_24
REMARK    8  A    between atoms: C_24  and  O_25
REMARK    9  A    between atoms: O_25  and  C_26
REMARK                            x       y       z     vdW  Elec       q    Type
REMARK                         _______ _______ _______ _____ _____    ______ ____
ROOT
ATOM      1  C   UNL     1       2.146   0.211   3.650  0.00  0.00    +0.008 A 
ATOM      2  C   UNL     1       1.517  -0.522   4.575  0.00  0.00    +0.067 A 
ATOM      3  S   UNL     1       0.946   0.726   5.713  0.00  0.00    -0.061 S 
ATOM      4  C   UNL     1       1.550   2.084   4.926  0.00  0.00    +0.163 A 
ATOM      5  N   UNL     1       2.170   1.559   3.832  0.00  0.00    -0.341 N 
ATOM      6  N   UNL     1       1.452   3.361   5.287  0.00  0.00    -0.150 NA
ATOM      7  H   UNL     1       2.616   2.136   3.193  0.00  0.00    +0.167 HD
ENDROOT
BRANCH   6   8
ATOM      8  C   UNL     1       0.804   3.691   6.410  0.00  0.00    +0.305 C 
ATOM      9  O   UNL     1       0.303   2.820   7.103  0.00  0.00    -0.265 OA
BRANCH   8  10
ATOM     10  C   UNL     1       0.696   5.103   6.809  0.00  0.00    +0.192 A 
ATOM     11  C   UNL     1       0.071   5.573   7.926  0.00  0.00    +0.055 A 
ATOM     12  C   UNL     1       0.211   6.971   7.909  0.00  0.00    +0.049 A 
ATOM     13  C   UNL     1       0.907   7.287   6.796  0.00  0.00    +0.143 A 
ATOM     14  O   UNL     1       1.202   6.157   6.138  0.00  0.00    -0.452 OA
BRANCH  13  15
ATOM     15  C   UNL     1       1.294   8.678   6.367  0.00  0.00    +0.303 C 
BRANCH  15  16
ATOM     16  O   UNL     1       2.568   9.011   6.921  0.00  0.00    -0.484 OA
BRANCH  16  17
ATOM     17  C   UNL     1       3.066  10.242   6.629  0.00  0.00    +0.121 A 
ATOM     18  C   UNL     1       2.340  11.113   5.830  0.00  0.00    +0.045 A 
ATOM     19  C   UNL     1       2.848  12.363   5.534  0.00  0.00    +0.004 A 
ATOM     20  C   UNL     1       4.079  12.746   6.034  0.00  0.00    +0.000 A 
ATOM     21  C   UNL     1       4.804  11.879   6.830  0.00  0.00    +0.004 A 
ATOM     22  C   UNL     1       4.298  10.630   7.134  0.00  0.00    +0.045 A 
ENDBRANCH  16  17
ENDBRANCH  15  16
ENDBRANCH  13  15
ENDBRANCH   8  10
ENDBRANCH   6   8
BRANCH   1  23
ATOM     23  C   UNL     1       2.808  -0.431   2.458  0.00  0.00    -0.024 C 
BRANCH  23  29
ATOM     24  C   UNL     1      -0.019   1.526   0.010  0.00  0.00    +0.005 C 
ATOM     25  C   UNL     1       0.002  -0.004   0.002  0.00  0.00    -0.031 C 
ATOM     26  C   UNL     1       0.721  -0.499  -1.257  0.00  0.00    +0.003 C 
ATOM     27  C   UNL     1       2.177  -0.027  -1.220  0.00  0.00    -0.031 C 
ATOM     28  C   UNL     1       2.839  -0.534   0.063  0.00  0.00    -0.075 C 
ATOM     29  N   UNL     1       2.123  -0.005   1.230  0.00  0.00    +0.384 N 
ATOM     30  C   UNL     1       0.744  -0.512   1.240  0.00  0.00    -0.075 C 
ATOM     31  C   UNL     1       2.924  -0.581  -2.434  0.00  0.00    +0.005 C 
ATOM     32  H   UNL     1       2.109   1.003   1.187  0.00  0.00    -0.081 HD
ENDBRANCH  23  29
ENDBRANCH   1  23
TORSDOF 7
