REMARK  Name = ZINC14536381
REMARK  10 active torsions:
REMARK  status: ('A' for Active; 'I' for Inactive)
REMARK    1  A    between atoms: C_1  and  C_2
REMARK    2  A    between atoms: C_2  and  N_3
REMARK    3  A    between atoms: C_11  and  C_12
REMARK    4  A    between atoms: C_11  and  N_64
REMARK    5  A    between atoms: C_21  and  O_22
REMARK    6  A    between atoms: N_23  and  C_26
REMARK    7  A    between atoms: C_26  and  C_27
REMARK    8  A    between atoms: C_27  and  C_28
REMARK    9  A    between atoms: C_28  and  C_29
REMARK   10  A    between atoms: C_28  and  C_30
REMARK                            x       y       z     vdW  Elec       q    Type
REMARK                         _______ _______ _______ _____ _____    ______ ____
ROOT
ATOM      1  N   UNL     1      -2.656   9.091   5.630  0.00  0.00    -0.224 N 
ATOM      2  C   UNL     1      -2.821   7.802   5.267  0.00  0.00    +0.247 C 
ATOM      3  O   UNL     1      -3.237   6.893   5.953  0.00  0.00    -0.273 OA
ATOM      4  C   UNL     1      -2.375   7.729   3.825  0.00  0.00    +0.112 C 
ATOM      5  C   UNL     1      -3.530   7.287   2.932  0.00  0.00    +0.017 C 
ATOM      6  C   UNL     1      -3.043   7.195   1.482  0.00  0.00    -0.076 C 
ATOM      7  C   UNL     1      -0.781   6.704   2.205  0.00  0.00    -0.076 C 
ATOM      8  C   UNL     1      -1.192   6.778   3.679  0.00  0.00    +0.017 C 
ATOM      9  N   UNL     1      -1.974   9.105   3.505  0.00  0.00    -0.271 N 
ATOM     10  C   UNL     1      -2.174   9.829   4.622  0.00  0.00    +0.312 C 
ATOM     11  O   UNL     1      -1.942  11.019   4.707  0.00  0.00    -0.252 OA
ATOM     12  N   UNL     1      -1.932   6.222   1.412  0.00  0.00    +0.383 N 
ATOM     13  H   UNL     1      -2.251   5.325   1.798  0.00  0.00    -0.081 HD
ENDROOT
BRANCH   1  15
ATOM     14  C   UNL     1      -4.420  10.094   6.994  0.00  0.00    +0.025 C 
ATOM     15  C   UNL     1      -2.967   9.618   6.961  0.00  0.00    +0.114 C 
ENDBRANCH   1  15
BRANCH  12  16
ATOM     16  C   UNL     1      -1.526   6.021   0.005  0.00  0.00    -0.039 C 
BRANCH  16  17
ATOM     17  C   UNL     1      -0.233   5.248  -0.030  0.00  0.00    -0.015 A 
ATOM     18  C   UNL     1      -0.250   3.844  -0.053  0.00  0.00    -0.013 A 
ATOM     19  C   UNL     1      -1.461   3.129  -0.045  0.00  0.00    +0.009 A 
ATOM     20  C   UNL     1      -1.440   1.769  -0.074  0.00  0.00    +0.001 A 
ATOM     21  C   UNL     1      -0.234   1.070  -0.102  0.00  0.00    +0.001 A 
ATOM     22  C   UNL     1       0.957   1.728  -0.111  0.00  0.00    +0.008 A 
ATOM     23  C   UNL     1       0.976   3.133  -0.087  0.00  0.00    -0.017 A 
ATOM     24  C   UNL     1       2.188   3.846  -0.096  0.00  0.00    +0.012 A 
ATOM     25  C   UNL     1       2.171   5.206  -0.072  0.00  0.00    +0.046 A 
ATOM     26  C   UNL     1       0.962   5.909  -0.039  0.00  0.00    +0.119 A 
BRANCH  26  27
ATOM     27  O   UNL     1       0.977   7.268  -0.017  0.00  0.00    -0.507 OA
ATOM     28  H   UNL     1       0.997   7.646   0.873  0.00  0.00    +0.292 HD
ENDBRANCH  26  27
ENDBRANCH  16  17
ENDBRANCH  12  16
BRANCH   9  29
ATOM     29  C   UNL     1      -1.458   9.592   2.223  0.00  0.00    +0.110 C 
BRANCH  29  30
ATOM     30  C   UNL     1      -2.469  10.558   1.601  0.00  0.00    +0.022 C 
BRANCH  30  31
ATOM     31  C   UNL     1      -1.991  10.967   0.206  0.00  0.00    -0.016 C 
ATOM     32  C   UNL     1      -3.059  11.832  -0.466  0.00  0.00    +0.007 C 
ATOM     33  C   UNL     1      -0.691  11.765   0.327  0.00  0.00    +0.007 C 
ENDBRANCH  30  31
ENDBRANCH  29  30
ENDBRANCH   9  29
TORSDOF 7
