REMARK  Name = ZINC14550722
REMARK  3 active torsions:
REMARK  status: ('A' for Active; 'I' for Inactive)
REMARK    1  A    between atoms: C_3  and  N_26
REMARK    2  A    between atoms: C_6  and  C_7
REMARK    3  A    between atoms: C_18  and  C_23
REMARK                            x       y       z     vdW  Elec       q    Type
REMARK                         _______ _______ _______ _____ _____    ______ ____
ROOT
ATOM      1  C   UNL     1      -0.359   3.066   1.473  0.00  0.00    +0.105 C 
ATOM      2  C   UNL     1      -0.432   1.559   1.210  0.00  0.00    +0.029 C 
ATOM      3  C   UNL     1       0.605   1.234   0.094  0.00  0.00    +0.033 C 
ATOM      4  C   UNL     1      -0.128   1.590  -1.185  0.00  0.00    -0.030 C 
ATOM      5  C   UNL     1      -1.424   1.580  -0.989  0.00  0.00    -0.023 C 
ATOM      6  C   UNL     1      -1.733   1.222   0.445  0.00  0.00    +0.049 C 
ATOM      7  C   UNL     1      -2.909   1.991   0.959  0.00  0.00    -0.019 A 
ATOM      8  C   UNL     1      -4.176   1.617   0.547  0.00  0.00    +0.019 A 
ATOM      9  C   UNL     1      -5.300   2.305   1.003  0.00  0.00    +0.037 A 
ATOM     10  C   UNL     1      -5.150   3.381   1.883  0.00  0.00    +0.015 A 
ATOM     11  C   UNL     1      -3.916   3.736   2.292  0.00  0.00    +0.024 A 
ATOM     12  C   UNL     1      -2.790   3.056   1.835  0.00  0.00    +0.031 A 
ATOM     13  N   UNL     1      -1.529   3.468   2.260  0.00  0.00    -0.336 N 
ATOM     14  H   UNL     1      -1.427   4.008   3.059  0.00  0.00    +0.147 HD
ENDROOT
BRANCH   1  20
ATOM     15  C   UNL     1       0.844   4.101  -0.462  0.00  0.00    +0.008 A 
ATOM     16  C   UNL     1       0.848   4.779  -1.667  0.00  0.00    +0.033 A 
ATOM     17  C   UNL     1      -0.345   5.169  -2.244  0.00  0.00    +0.126 A 
ATOM     18  C   UNL     1      -1.543   4.880  -1.618  0.00  0.00    +0.033 A 
ATOM     19  C   UNL     1      -1.548   4.200  -0.415  0.00  0.00    +0.008 A 
ATOM     20  C   UNL     1      -0.354   3.808   0.162  0.00  0.00    -0.027 A 
BRANCH  17  21
ATOM     21  N   UNL     1      -0.340   5.898  -3.533  0.00  0.00    +0.056 N 
ATOM     22  O   UNL     1      -1.392   6.243  -4.042  0.00  0.00    -0.126 OA
ATOM     23  O   UNL     1       0.716   6.152  -4.085  0.00  0.00    -0.126 OA
ENDBRANCH  17  21
ENDBRANCH   1  20
BRANCH   9  24
ATOM     24  C   UNL     1      -6.646   1.898   0.557  0.00  0.00    +0.242 C 
ATOM     25  O   UNL     1      -6.775   0.963  -0.209  0.00  0.00    -0.270 OA
ATOM     26  N   UNL     1      -7.732   2.564   0.998  0.00  0.00    -0.325 N 
ATOM     27  H   UNL     1      -7.628   3.310   1.609  0.00  0.00    +0.145 HD
ATOM     28  H   UNL     1      -8.617   2.296   0.704  0.00  0.00    +0.145 HD
ENDBRANCH   9  24
TORSDOF 3
