REMARK  Name = ZINC18061722
REMARK  6 active torsions:
REMARK  status: ('A' for Active; 'I' for Inactive)
REMARK    1  A    between atoms: C_1  and  C_2
REMARK    2  A    between atoms: C_2  and  C_3
REMARK    3  A    between atoms: C_3  and  C_16
REMARK    4  A    between atoms: C_12  and  C_13
REMARK    5  A    between atoms: C_12  and  C_14
REMARK    6  A    between atoms: C_14  and  C_15
REMARK                            x       y       z     vdW  Elec       q    Type
REMARK                         _______ _______ _______ _____ _____    ______ ____
ROOT
ATOM      1  C   UNL     1       0.718  -0.497  -1.257  0.00  0.00    +0.116 C 
ATOM      2  N   UNL     1      -0.040  -0.120  -2.459  0.00  0.00    -0.303 N 
ATOM      3  C   UNL     1      -0.391  -1.254  -3.089  0.00  0.00    +0.153 C 
ATOM      4  S   UNL     1      -1.291  -1.303  -4.545  0.00  0.00    -0.017 S 
ATOM      5  N   UNL     1       0.047  -2.342  -2.441  0.00  0.00    -0.204 N 
ATOM      6  N   UNL     1       0.750  -1.969  -1.286  0.00  0.00    -0.204 N 
ATOM      7  C   UNL     1       1.189  -3.057  -0.638  0.00  0.00    +0.153 C 
ATOM      8  S   UNL     1       2.089  -3.009   0.818  0.00  0.00    -0.017 S 
ATOM      9  N   UNL     1       0.837  -4.191  -1.268  0.00  0.00    -0.303 N 
ATOM     10  C   UNL     1       0.079  -3.814  -2.470  0.00  0.00    +0.116 C 
ATOM     11  C   UNL     1      -1.341  -4.380  -2.406  0.00  0.00    +0.055 C 
ATOM     12  C   UNL     1       2.138   0.069  -1.318  0.00  0.00    +0.055 C 
ATOM     13  H   UNL     1      -0.248   0.782  -2.745  0.00  0.00    +0.150 HD
ATOM     14  H   UNL     1       1.046  -5.094  -0.982  0.00  0.00    +0.150 HD
ENDROOT
BRANCH   1  16
ATOM     15  C   UNL     1      -0.019   1.526   0.010  0.00  0.00    +0.008 C 
ATOM     16  C   UNL     1       0.002  -0.004   0.002  0.00  0.00    +0.044 C 
ENDBRANCH   1  16
BRANCH  10  17
ATOM     17  C   UNL     1       0.795  -4.308  -3.729  0.00  0.00    +0.044 C 
ATOM     18  C   UNL     1       0.707  -5.834  -3.801  0.00  0.00    +0.008 C 
ENDBRANCH  10  17
TORSDOF 2
