REMARK  Name = ZINC40444666
REMARK  3 active torsions:
REMARK  status: ('A' for Active; 'I' for Inactive)
REMARK    1  A    between atoms: C_5  and  C_8
REMARK    2  A    between atoms: N_10  and  C_11
REMARK    3  A    between atoms: C_11  and  C_16
REMARK                            x       y       z     vdW  Elec       q    Type
REMARK                         _______ _______ _______ _____ _____    ______ ____
ROOT
ATOM      1  C   UNL     1       1.267  -2.145  -0.022  0.00  0.00    +0.265 C 
ATOM      2  O   UNL     1       0.231  -2.779  -0.016  0.00  0.00    -0.268 OA
ATOM      3  N   UNL     1       2.451  -2.789  -0.038  0.00  0.00    -0.291 N 
ATOM      4  H   UNL     1       3.279  -2.283  -0.043  0.00  0.00    +0.151 HD
ENDROOT
BRANCH   1   9
ATOM      5  C   UNL     1      -0.017   1.384   0.010  0.00  0.00    +0.025 A 
ATOM      6  C   UNL     1       1.191   2.061   0.002  0.00  0.00    +0.041 A 
ATOM      7  C   UNL     1       2.376   1.339  -0.013  0.00  0.00    +0.130 A 
ATOM      8  N   UNL     1       2.366   0.023  -0.021  0.00  0.00    -0.229 NA
ATOM      9  C   UNL     1       1.230  -0.664  -0.014  0.00  0.00    +0.145 A 
ATOM     10  C   UNL     1       0.002  -0.004   0.002  0.00  0.00    +0.072 A 
ATOM     11 CL   UNL     1      -1.482  -0.905   0.012  0.00  0.00    -0.081 Cl
ATOM     12 CL   UNL     1       3.893   2.183  -0.023  0.00  0.00    -0.062 Cl
ENDBRANCH   1   9
BRANCH   3  13
ATOM     13  C   UNL     1       2.488  -4.253  -0.046  0.00  0.00    +0.131 C 
ATOM     14  C   UNL     1       3.942  -4.707   0.073  0.00  0.00    +0.052 C 
ATOM     15  C   UNL     1       4.134  -6.089  -0.612  0.00  0.00    +0.072 C 
ATOM     16  S   UNL     1       3.058  -5.850  -2.094  0.00  0.00    -0.157 S 
ATOM     17  C   UNL     1       1.791  -4.757  -1.325  0.00  0.00    +0.110 C 
BRANCH  13  18
ATOM     18  C   UNL     1       1.745  -4.750   1.123  0.00  0.00    +0.089 C 
ATOM     19  N   UNL     1       1.171  -5.132   2.026  0.00  0.00    -0.194 NA
ENDBRANCH  13  18
ENDBRANCH   3  13
TORSDOF 3
