REMARK  Name = ZINC32968975
REMARK  6 active torsions:
REMARK  status: ('A' for Active; 'I' for Inactive)
REMARK    1  A    between atoms: C_1  and  C_2
REMARK    2  A    between atoms: C_2  and  C_3
REMARK    3  A    between atoms: C_2  and  C_4
REMARK    4  A    between atoms: C_2  and  O_5
REMARK    5  A    between atoms: O_5  and  C_6
REMARK    6  A    between atoms: C_12  and  C_14
REMARK                            x       y       z     vdW  Elec       q    Type
REMARK                         _______ _______ _______ _____ _____    ______ ____
ROOT
ATOM      1  C   UNL     1       3.556   0.663   0.662  0.00  0.00    +0.404 C 
ATOM      2  O   UNL     1       4.264   1.598   0.343  0.00  0.00    -0.226 OA
ATOM      3  N   UNL     1       2.219   0.751   0.520  0.00  0.00    -0.256 N 
ATOM      4  C   UNL     1       1.247  -0.302   0.866  0.00  0.00    +0.112 C 
ATOM      5  C   UNL     1       0.007  -0.003  -0.014  0.00  0.00    +0.021 C 
ATOM      6  C   UNL     1      -0.012   1.549  -0.006  0.00  0.00    +0.033 C 
ATOM      7  C   UNL     1       1.487   1.914  -0.004  0.00  0.00    +0.165 C 
ENDROOT
BRANCH   7   8
ATOM      8  C   UNL     1       1.723   3.109   0.882  0.00  0.00    +0.236 C 
ATOM      9  O   UNL     1       2.066   2.952   2.035  0.00  0.00    -0.274 OA
ATOM     10  N   UNL     1       1.552   4.354   0.394  0.00  0.00    -0.300 N 
ATOM     11  C   UNL     1       1.886   5.526   1.216  0.00  0.00    +0.108 C 
ATOM     12  C   UNL     1       3.402   5.583   1.401  0.00  0.00    +0.019 C 
ATOM     13  C   UNL     1       4.059   6.013   0.078  0.00  0.00    +0.002 C 
ATOM     14  C   UNL     1       4.101   4.825  -0.876  0.00  0.00    +0.000 C 
ATOM     15  C   UNL     1       3.192   5.071  -2.094  0.00  0.00    +0.002 C 
ATOM     16  C   UNL     1       1.855   5.651  -1.631  0.00  0.00    +0.019 C 
ATOM     17  C   UNL     1       1.031   4.552  -0.948  0.00  0.00    +0.108 C 
ENDBRANCH   7   8
BRANCH   1  18
ATOM     18  O   UNL     1       4.108  -0.461   1.157  0.00  0.00    -0.445 OA
BRANCH  18  20
ATOM     19  C   UNL     1       6.005   0.639   2.216  0.00  0.00    +0.055 C 
ATOM     20  C   UNL     1       5.554  -0.486   1.281  0.00  0.00    +0.107 C 
ATOM     21  C   UNL     1       5.994  -1.834   1.857  0.00  0.00    +0.055 C 
ATOM     22  C   UNL     1       6.189  -0.288  -0.097  0.00  0.00    +0.055 C 
ENDBRANCH  18  20
ENDBRANCH   1  18
TORSDOF 3
