REMARK  Name = ZINC05118924
REMARK  5 active torsions:
REMARK  status: ('A' for Active; 'I' for Inactive)
REMARK    1  A    between atoms: C_1  and  C_2
REMARK    2  A    between atoms: C_2  and  C_3
REMARK    3  A    between atoms: N_9  and  C_12
REMARK    4  A    between atoms: N_18  and  C_19
REMARK    5  A    between atoms: C_25  and  N_53
REMARK                            x       y       z     vdW  Elec       q    Type
REMARK                         _______ _______ _______ _____ _____    ______ ____
ROOT
ATOM      1  C   UNL     1      -2.059   1.896   1.153  0.00  0.00    +0.205 C 
ATOM      2  C   UNL     1      -2.789   2.487   2.288  0.00  0.00    +0.238 C 
ATOM      3  O   UNL     1      -2.229   2.707   3.345  0.00  0.00    -0.274 OA
ATOM      4  N   UNL     1      -4.096   2.778   2.123  0.00  0.00    -0.239 N 
ATOM      5  C   UNL     1      -4.726   2.541   0.964  0.00  0.00    +0.315 C 
ATOM      6  O   UNL     1      -5.904   2.827   0.881  0.00  0.00    -0.252 OA
ATOM      7  N   UNL     1      -4.125   2.007  -0.108  0.00  0.00    -0.222 N 
ATOM      8  C   UNL     1      -2.818   1.671  -0.090  0.00  0.00    +0.241 C 
ATOM      9  O   UNL     1      -2.283   1.191  -1.071  0.00  0.00    -0.274 OA
ATOM     10  H   UNL     1      -4.591   3.168   2.861  0.00  0.00    +0.159 HD
ENDROOT
BRANCH   7  11
ATOM     11  C   UNL     1      -4.903   1.789  -1.330  0.00  0.00    +0.086 C 
ATOM     12  C   UNL     1      -5.454   3.126  -1.830  0.00  0.00    +0.023 C 
ATOM     13  C   UNL     1      -6.266   2.897  -3.106  0.00  0.00    +0.002 C 
ATOM     14  C   UNL     1      -7.427   1.947  -2.808  0.00  0.00    +0.000 C 
ATOM     15  C   UNL     1      -6.876   0.610  -2.308  0.00  0.00    +0.002 C 
ATOM     16  C   UNL     1      -6.064   0.838  -1.032  0.00  0.00    +0.023 C 
ENDBRANCH   7  11
BRANCH   1  18
ATOM     17  C   UNL     1       0.035   1.115   0.025  0.00  0.00    +0.061 C 
ATOM     18  C   UNL     1      -0.718   1.572   1.248  0.00  0.00    +0.031 C 
ATOM     19  N   UNL     1      -0.085   1.664   2.434  0.00  0.00    -0.290 NA
BRANCH  19  20
ATOM     20  C   UNL     1       1.362   1.448   2.511  0.00  0.00    +0.091 C 
ATOM     21  C   UNL     1       1.648  -0.050   2.641  0.00  0.00    +0.025 C 
ATOM     22  C   UNL     1       0.984  -0.587   3.910  0.00  0.00    +0.002 C 
ATOM     23  C   UNL     1       1.546   0.146   5.129  0.00  0.00    -0.001 C 
ATOM     24  C   UNL     1       1.260   1.644   5.000  0.00  0.00    -0.014 C 
ATOM     25  C   UNL     1       1.924   2.182   3.730  0.00  0.00    -0.050 C 
BRANCH  25  28
ATOM     26  H   UNL     1       2.011   4.127   4.400  0.00  0.00    -0.090 HD
ATOM     27  H   UNL     1       2.022   3.986   2.743  0.00  0.00    -0.090 HD
ATOM     28  N   UNL     1       1.624   3.619   3.606  0.00  0.00    +0.381 N 
ATOM     29  H   UNL     1       0.606   3.751   3.587  0.00  0.00    -0.090 HD
ENDBRANCH  25  28
ENDBRANCH  19  20
ENDBRANCH   1  18
TORSDOF 4
