REMARK  Name = ZINC12806350
REMARK  9 active torsions:
REMARK  status: ('A' for Active; 'I' for Inactive)
REMARK    1  A    between atoms: C_1  and  C_2
REMARK    2  A    between atoms: C_8  and  C_14
REMARK    3  A    between atoms: C_11  and  C_13
REMARK    4  A    between atoms: N_19  and  S_22
REMARK    5  A    between atoms: S_22  and  C_25
REMARK    6  A    between atoms: C_28  and  O_33
REMARK    7  A    between atoms: C_29  and  O_31
REMARK    8  A    between atoms: O_31  and  C_32
REMARK    9  A    between atoms: O_33  and  C_34
REMARK                            x       y       z     vdW  Elec       q    Type
REMARK                         _______ _______ _______ _____ _____    ______ ____
ROOT
ATOM      1  C   UNL     1       2.844   1.961   1.996  0.00  0.00    +0.250 C 
ATOM      2  O   UNL     1       3.372   1.371   2.919  0.00  0.00    -0.270 OA
ATOM      3  N   UNL     1       2.200   1.270   1.035  0.00  0.00    -0.295 N 
ATOM      4  C   UNL     1       1.450   1.972  -0.016  0.00  0.00    +0.125 C 
ATOM      5  C   UNL     1       0.009   1.447  -0.024  0.00  0.00    +0.128 C 
ATOM      6  N   UNL     1       0.045  -0.022  -0.040  0.00  0.00    -0.174 NA
ATOM      7  C   UNL     1       0.795  -0.724   1.011  0.00  0.00    +0.128 C 
ATOM      8  C   UNL     1       2.236  -0.199   1.018  0.00  0.00    +0.125 C 
ENDROOT
BRANCH   1  15
ATOM      9  C   UNL     1       3.172   6.614   5.139  0.00  0.00    +0.016 C 
ATOM     10  C   UNL     1       2.025   6.150   4.240  0.00  0.00    +0.060 C 
ATOM     11  C   UNL     1       2.553   5.591   2.933  0.00  0.00    +0.001 A 
ATOM     12  C   UNL     1       3.033   6.199   1.794  0.00  0.00    +0.007 A 
ATOM     13  C   UNL     1       3.450   5.436   0.716  0.00  0.00    +0.001 A 
ATOM     14  C   UNL     1       3.393   4.061   0.782  0.00  0.00    +0.017 A 
ATOM     15  C   UNL     1       2.907   3.434   1.930  0.00  0.00    +0.079 A 
ATOM     16  C   UNL     1       2.484   4.207   3.026  0.00  0.00    +0.137 A 
ATOM     17  O   UNL     1       1.997   3.817   4.233  0.00  0.00    -0.487 OA
ATOM     18  C   UNL     1       1.309   4.920   4.846  0.00  0.00    +0.178 C 
ATOM     19  C   UNL     1      -0.174   4.910   4.470  0.00  0.00    +0.052 C 
ENDBRANCH   1  15
BRANCH   6  20
ATOM     20  S   UNL     1      -0.746  -0.871  -1.222  0.00  0.00    +0.061 S 
ATOM     21  O   UNL     1      -1.006  -2.162  -0.689  0.00  0.00    -0.153 OA
ATOM     22  O   UNL     1      -1.780  -0.025  -1.707  0.00  0.00    -0.153 OA
BRANCH  20  23
ATOM     23  C   UNL     1       0.388  -1.094  -2.551  0.00  0.00    +0.109 A 
ATOM     24  C   UNL     1       0.456  -0.156  -3.565  0.00  0.00    +0.032 A 
ATOM     25  C   UNL     1       1.348  -0.324  -4.607  0.00  0.00    +0.051 A 
ATOM     26  C   UNL     1       2.168  -1.439  -4.644  0.00  0.00    +0.162 A 
ATOM     27  C   UNL     1       2.096  -2.386  -3.627  0.00  0.00    +0.163 A 
ATOM     28  C   UNL     1       1.204  -2.209  -2.582  0.00  0.00    +0.078 A 
BRANCH  27  29
ATOM     29  O   UNL     1       2.900  -3.483  -3.659  0.00  0.00    -0.491 OA
ATOM     30  C   UNL     1       2.772  -4.413  -2.581  0.00  0.00    +0.277 C 
ENDBRANCH  27  29
BRANCH  26  31
ATOM     31  O   UNL     1       3.043  -1.608  -5.672  0.00  0.00    -0.491 OA
ATOM     32  C   UNL     1       3.063  -0.596  -6.680  0.00  0.00    +0.277 C 
ENDBRANCH  26  31
ENDBRANCH  20  23
ENDBRANCH   6  20
TORSDOF 5
