REMARK  Name = ZINC60162045
REMARK  10 active torsions:
REMARK  status: ('A' for Active; 'I' for Inactive)
REMARK    1  A    between atoms: C_1  and  C_2
REMARK    2  A    between atoms: C_5  and  C_8
REMARK    3  A    between atoms: C_8  and  C_10
REMARK    4  A    between atoms: C_8  and  N_24
REMARK    5  A    between atoms: C_10  and  N_11
REMARK    6  A    between atoms: C_12  and  C_14
REMARK    7  A    between atoms: C_14  and  N_15
REMARK    8  A    between atoms: C_16  and  C_18
REMARK    9  A    between atoms: N_24  and  C_25
REMARK   10  A    between atoms: N_24  and  C_26
REMARK                            x       y       z     vdW  Elec       q    Type
REMARK                         _______ _______ _______ _____ _____    ______ ____
ROOT
ATOM      1  N   UNL     1      -2.128  -4.352  -1.064  0.00  0.00    -0.315 N 
ATOM      2  C   UNL     1      -3.437  -4.662  -1.141  0.00  0.00    +0.230 C 
ATOM      3  O   UNL     1      -3.944  -5.370  -0.297  0.00  0.00    -0.274 OA
ATOM      4  H   UNL     1      -1.723  -3.786  -1.740  0.00  0.00    +0.149 HD
ENDROOT
BRANCH   1   5
ATOM      5  C   UNL     1      -1.317  -4.870   0.041  0.00  0.00    +0.093 C 
BRANCH   5   6
ATOM      6  C   UNL     1       0.088  -4.267  -0.032  0.00  0.00    -0.021 C 
BRANCH   6  11
ATOM      7  C   UNL     1      -0.218   1.437   0.840  0.00  0.00    +0.044 C 
ATOM      8  C   UNL     1      -0.138  -0.051   0.613  0.00  0.00    -0.050 A 
ATOM      9  C   UNL     1      -0.028  -0.548  -0.672  0.00  0.00    +0.003 A 
ATOM     10  C   UNL     1       0.046  -1.913  -0.881  0.00  0.00    +0.002 A 
ATOM     11  C   UNL     1       0.009  -2.780   0.195  0.00  0.00    -0.059 A 
ATOM     12  C   UNL     1      -0.101  -2.282   1.480  0.00  0.00    +0.002 A 
ATOM     13  C   UNL     1      -0.170  -0.917   1.689  0.00  0.00    +0.003 A 
ENDBRANCH   6  11
BRANCH   6  14
ATOM     14  N   UNL     1       0.936  -4.876   1.001  0.00  0.00    +0.382 N 
ATOM     15  C   UNL     1       1.028  -6.324   0.769  0.00  0.00    -0.096 C 
ATOM     16  C   UNL     1       2.280  -4.285   0.942  0.00  0.00    -0.096 C 
ATOM     17  H   UNL     1       0.533  -4.706   1.910  0.00  0.00    -0.082 HD
ENDBRANCH   6  14
ENDBRANCH   5   6
ENDBRANCH   1   5
BRANCH   2  18
ATOM     18  C   UNL     1      -4.272  -4.130  -2.278  0.00  0.00    +0.200 C 
BRANCH  18  19
ATOM     19  N   UNL     1      -5.650  -4.607  -2.136  0.00  0.00    -0.300 N 
ATOM     20  C   UNL     1      -6.581  -4.254  -3.045  0.00  0.00    +0.280 C 
ATOM     21  O   UNL     1      -6.277  -3.541  -3.982  0.00  0.00    -0.267 OA
ATOM     22  H   UNL     1      -5.892  -5.176  -1.389  0.00  0.00    +0.150 HD
BRANCH  20  23
ATOM     23  C   UNL     1      -7.960  -4.731  -2.903  0.00  0.00    +0.191 A 
ATOM     24  C   UNL     1      -8.995  -4.455  -3.751  0.00  0.00    +0.056 A 
ATOM     25  C   UNL     1     -10.124  -5.111  -3.236  0.00  0.00    +0.058 A 
ATOM     26  C   UNL     1      -9.733  -5.751  -2.110  0.00  0.00    +0.171 A 
ATOM     27  O   UNL     1      -8.427  -5.524  -1.916  0.00  0.00    -0.444 OA
ATOM     28 BR   UNL     1     -10.846  -6.799  -0.997  0.00  0.00    -0.008 Br
ENDBRANCH  20  23
ENDBRANCH  18  19
ENDBRANCH   2  18
TORSDOF 7
