REMARK  Name = ZINC66603393
REMARK  6 active torsions:
REMARK  status: ('A' for Active; 'I' for Inactive)
REMARK    1  A    between atoms: C_1  and  C_2
REMARK    2  A    between atoms: C_2  and  C_23
REMARK    3  A    between atoms: C_3  and  C_4
REMARK    4  A    between atoms: C_9  and  N_12
REMARK    5  A    between atoms: C_28  and  O_29
REMARK    6  A    between atoms: O_29  and  C_30
REMARK                            x       y       z     vdW  Elec       q    Type
REMARK                         _______ _______ _______ _____ _____    ______ ____
ROOT
ATOM      1  C   UNL     1       0.127   0.036   2.435  0.00  0.00    +0.240 C 
ATOM      2  O   UNL     1      -0.087   1.234   2.456  0.00  0.00    -0.271 OA
ATOM      3  N   UNL     1       0.349  -0.629   3.585  0.00  0.00    -0.298 N 
ATOM      4  C   UNL     1       0.489  -2.092   3.589  0.00  0.00    +0.110 C 
ATOM      5  C   UNL     1      -0.499  -2.679   4.603  0.00  0.00    +0.044 C 
ATOM      6  C   UNL     1      -0.274  -2.023   5.967  0.00  0.00    +0.095 C 
ATOM      7  C   UNL     1      -0.529  -0.518   5.859  0.00  0.00    +0.044 C 
ATOM      8  C   UNL     1       0.464   0.094   4.859  0.00  0.00    +0.110 C 
ENDROOT
BRANCH   6   9
ATOM      9  N   UNL     1      -1.194  -2.605   6.946  0.00  0.00    -0.289 N 
ATOM     10  C   UNL     1      -0.827  -3.271   8.114  0.00  0.00    +0.070 A 
ATOM     11  C   UNL     1       0.396  -3.580   8.689  0.00  0.00    +0.028 A 
ATOM     12  C   UNL     1       0.439  -4.269   9.885  0.00  0.00    +0.002 A 
ATOM     13  C   UNL     1      -0.735  -4.653  10.512  0.00  0.00    +0.002 A 
ATOM     14  C   UNL     1      -1.958  -4.351   9.946  0.00  0.00    +0.028 A 
ATOM     15  C   UNL     1      -2.011  -3.659   8.746  0.00  0.00    +0.067 A 
ATOM     16  N   UNL     1      -3.059  -3.216   7.943  0.00  0.00    -0.306 N 
ATOM     17  H   UNL     1      -4.004  -3.338   8.125  0.00  0.00    +0.170 HD
ATOM     18  C   UNL     1      -2.538  -2.583   6.875  0.00  0.00    +0.328 A 
ATOM     19  O   UNL     1      -3.184  -2.071   5.979  0.00  0.00    -0.247 OA
ENDBRANCH   6   9
BRANCH   1  22
ATOM     20  C   UNL     1      -0.794   1.345   0.087  0.00  0.00    +0.044 C 
ATOM     21  C   UNL     1      -0.213  -0.045   0.024  0.00  0.00    -0.035 C 
ATOM     22  C   UNL     1       0.142  -0.681   1.160  0.00  0.00    +0.071 C 
BRANCH  21  23
ATOM     23  C   UNL     1      -0.033  -0.707  -1.276  0.00  0.00    +0.020 A 
ATOM     24  C   UNL     1      -0.906  -1.724  -1.675  0.00  0.00    +0.012 A 
ATOM     25  C   UNL     1      -0.732  -2.340  -2.894  0.00  0.00    +0.001 A 
ATOM     26  C   UNL     1       0.306  -1.957  -3.729  0.00  0.00    +0.004 A 
ATOM     27  C   UNL     1       1.176  -0.954  -3.349  0.00  0.00    +0.046 A 
ATOM     28  C   UNL     1       1.014  -0.319  -2.127  0.00  0.00    +0.127 A 
BRANCH  28  29
ATOM     29  O   UNL     1       1.865   0.670  -1.755  0.00  0.00    -0.495 OA
ATOM     30  C   UNL     1       2.905   1.011  -2.673  0.00  0.00    +0.277 C 
ENDBRANCH  28  29
ENDBRANCH  21  23
ENDBRANCH   1  22
TORSDOF 4
