REMARK  Name = ZINC50964132
REMARK  3 active torsions:
REMARK  status: ('A' for Active; 'I' for Inactive)
REMARK    1  A    between atoms: C_3  and  O_22
REMARK    2  A    between atoms: C_6  and  C_7
REMARK    3  A    between atoms: C_13  and  C_15
REMARK                            x       y       z     vdW  Elec       q    Type
REMARK                         _______ _______ _______ _____ _____    ______ ____
ROOT
ATOM      1  C   UNL     1      -1.293  -0.774   0.011  0.00  0.00    +0.022 C 
ATOM      2  C   UNL     1      -1.376  -1.647  -1.244  0.00  0.00    +0.027 C 
ATOM      3  C   UNL     1      -2.709  -2.401  -1.249  0.00  0.00    +0.108 C 
ATOM      4  N   UNL     1      -2.837  -3.144   0.013  0.00  0.00    -0.299 N 
ATOM      5  C   UNL     1      -2.684  -2.416   1.280  0.00  0.00    +0.108 C 
ATOM      6  C   UNL     1      -1.351  -1.661   1.256  0.00  0.00    +0.027 C 
ATOM      7  C   UNL     1      -3.091  -4.468   0.007  0.00  0.00    +0.244 C 
ATOM      8  O   UNL     1      -3.216  -5.057  -1.045  0.00  0.00    -0.273 OA
ENDROOT
BRANCH   1  14
ATOM      9  C   UNL     1      -0.017   1.378   0.010  0.00  0.00    +0.007 A 
ATOM     10  C   UNL     1       1.169   2.087   0.002  0.00  0.00    +0.045 A 
ATOM     11  C   UNL     1       2.380   1.409  -0.013  0.00  0.00    +0.117 A 
ATOM     12  C   UNL     1       2.396   0.022  -0.021  0.00  0.00    +0.045 A 
ATOM     13  C   UNL     1       1.207  -0.681  -0.013  0.00  0.00    +0.007 A 
ATOM     14  C   UNL     1       0.002  -0.004   0.002  0.00  0.00    -0.044 A 
BRANCH  11  15
ATOM     15  O   UNL     1       3.548   2.104  -0.021  0.00  0.00    -0.507 OA
ATOM     16  H   UNL     1       3.895   2.300   0.860  0.00  0.00    +0.292 HD
ENDBRANCH  11  15
ENDBRANCH   1  14
BRANCH   7  17
ATOM     17  C   UNL     1      -3.219  -5.215   1.309  0.00  0.00    +0.204 C 
ATOM     18  C   UNL     1      -4.445  -4.706   2.072  0.00  0.00    +0.041 C 
ATOM     19  C   UNL     1      -4.603  -5.512   3.365  0.00  0.00    +0.005 C 
ATOM     20  C   UNL     1      -4.712  -7.000   3.017  0.00  0.00    +0.028 C 
ATOM     21  C   UNL     1      -3.475  -7.420   2.218  0.00  0.00    +0.161 C 
ATOM     22  O   UNL     1      -3.370  -6.612   1.044  0.00  0.00    -0.367 OA
ENDBRANCH   7  17
TORSDOF 3
