REMARK  Name = ZINC09405854
REMARK  7 active torsions:
REMARK  status: ('A' for Active; 'I' for Inactive)
REMARK    1  A    between atoms: C_1  and  C_2
REMARK    2  A    between atoms: C_2  and  O_3
REMARK    3  A    between atoms: O_3  and  C_4
REMARK    4  A    between atoms: C_9  and  C_10
REMARK    5  A    between atoms: C_10  and  N_11
REMARK    6  A    between atoms: C_12  and  C_14
REMARK    7  A    between atoms: C_24  and  C_34
REMARK                            x       y       z     vdW  Elec       q    Type
REMARK                         _______ _______ _______ _____ _____    ______ ____
ROOT
ATOM      1  C   UNL     1       4.727   3.771   1.856  0.00  0.00    +0.078 C 
ATOM      2  C   UNL     1       5.965   2.872   1.915  0.00  0.00    +0.032 C 
ATOM      3  C   UNL     1       6.056   2.051   0.624  0.00  0.00    +0.110 C 
ATOM      4  N   UNL     1       4.792   1.326   0.435  0.00  0.00    -0.285 N 
ATOM      5  C   UNL     1       3.534   2.085   0.447  0.00  0.00    +0.110 C 
ATOM      6  C   UNL     1       3.470   2.905   1.745  0.00  0.00    +0.032 C 
ATOM      7  C   UNL     1       4.787  -0.009   0.247  0.00  0.00    +0.309 C 
ATOM      8  O   UNL     1       5.753  -0.672   0.571  0.00  0.00    -0.252 OA
ATOM      9  N   UNL     1       3.710  -0.608  -0.299  0.00  0.00    -0.248 N 
ATOM     10  C   UNL     1       2.603   0.181  -0.866  0.00  0.00    +0.159 C 
ATOM     11  C   UNL     1       2.179  -0.491  -2.179  0.00  0.00    +0.188 C 
ATOM     12  O   UNL     1       1.795  -1.840  -1.904  0.00  0.00    -0.486 OA
ATOM     13  C   UNL     1       2.643  -2.601  -1.163  0.00  0.00    +0.142 A 
ATOM     14  C   UNL     1       3.605  -2.009  -0.348  0.00  0.00    +0.081 A 
ATOM     15  C   UNL     1       4.457  -2.797   0.409  0.00  0.00    +0.047 A 
ATOM     16  C   UNL     1       4.353  -4.176   0.353  0.00  0.00    +0.043 A 
ATOM     17  C   UNL     1       3.400  -4.766  -0.458  0.00  0.00    +0.024 A 
ATOM     18  C   UNL     1       2.547  -3.983  -1.214  0.00  0.00    +0.049 A 
ATOM     19 CL   UNL     1       5.419  -5.165   1.301  0.00  0.00    -0.083 Cl
ATOM     20  C   UNL     1       0.995   0.266  -2.784  0.00  0.00    +0.053 C 
ENDROOT
BRANCH   1  22
ATOM     21  N   UNL     1       3.639   5.476   3.280  0.00  0.00    -0.311 N 
ATOM     22  C   UNL     1       4.653   4.604   3.110  0.00  0.00    +0.216 C 
ATOM     23  O   UNL     1       5.505   4.490   3.965  0.00  0.00    -0.276 OA
ATOM     24  H   UNL     1       2.958   5.567   2.596  0.00  0.00    +0.149 HD
BRANCH  21  25
ATOM     25  C   UNL     1       3.567   6.286   4.498  0.00  0.00    +0.143 C 
BRANCH  25  31
ATOM     26  C   UNL     1       1.100   6.655   4.752  0.00  0.00    +0.125 A 
ATOM     27  C   UNL     1      -0.020   7.473   4.699  0.00  0.00    +0.046 A 
ATOM     28  C   UNL     1       0.112   8.799   4.337  0.00  0.00    +0.004 A 
ATOM     29  C   UNL     1       1.358   9.312   4.027  0.00  0.00    +0.001 A 
ATOM     30  C   UNL     1       2.476   8.500   4.084  0.00  0.00    +0.009 A 
ATOM     31  C   UNL     1       2.349   7.172   4.441  0.00  0.00    +0.011 A 
BRANCH  26  32
ATOM     32  O   UNL     1       0.973   5.350   5.109  0.00  0.00    -0.492 OA
BRANCH  32  34
ATOM     33  C   UNL     1      -0.287   3.404   5.794  0.00  0.00    +0.048 C 
ATOM     34  C   UNL     1      -0.343   4.886   5.417  0.00  0.00    +0.225 C 
ENDBRANCH  32  34
ENDBRANCH  26  32
ENDBRANCH  25  31
ENDBRANCH  21  25
ENDBRANCH   1  22
TORSDOF 5
