REMARK  Name = ZINC13124833
REMARK  2 active torsions:
REMARK  status: ('A' for Active; 'I' for Inactive)
REMARK    1  A    between atoms: C_3  and  C_6
REMARK    2  A    between atoms: C_9  and  C_16
REMARK                            x       y       z     vdW  Elec       q    Type
REMARK                         _______ _______ _______ _____ _____    ______ ____
ROOT
ATOM      1  C   UNL     1       3.599   0.625  -0.029  0.00  0.00    +0.182 C 
ATOM      2  C   UNL     1       4.088  -0.117  -1.279  0.00  0.00    +0.091 C 
ATOM      3  C   UNL     1       3.942  -1.604  -1.116  0.00  0.00    +0.055 C 
ATOM      4  N   UNL     1       4.088  -2.204   0.035  0.00  0.00    -0.215 NA
ATOM      5  C   UNL     1       4.309  -1.447   1.143  0.00  0.00    +0.249 A 
ATOM      6  N   UNL     1       4.088  -0.095   1.146  0.00  0.00    -0.219 N 
ATOM      7  N   UNL     1       4.414   0.360   2.419  0.00  0.00    -0.156 NA
ATOM      8  C   UNL     1       4.783  -0.691   3.114  0.00  0.00    +0.247 A 
ATOM      9  N   UNL     1       4.713  -1.781   2.343  0.00  0.00    -0.198 NA
ENDROOT
BRANCH   3  10
ATOM     10  C   UNL     1       3.621  -2.416  -2.300  0.00  0.00    -0.003 A 
ATOM     11  C   UNL     1       3.463  -1.806  -3.549  0.00  0.00    +0.011 A 
ATOM     12  C   UNL     1       3.162  -2.573  -4.654  0.00  0.00    +0.016 A 
ATOM     13  C   UNL     1       3.017  -3.945  -4.530  0.00  0.00    +0.018 A 
ATOM     14  C   UNL     1       3.171  -4.556  -3.297  0.00  0.00    +0.016 A 
ATOM     15  C   UNL     1       3.478  -3.803  -2.184  0.00  0.00    +0.011 A 
ATOM     16 BR   UNL     1       2.604  -4.989  -6.052  0.00  0.00    -0.050 Br
ENDBRANCH   3  10
BRANCH   1  19
ATOM     17  C   UNL     1      -0.016   1.341   0.009  0.00  0.00    +0.041 A 
ATOM     18  C   UNL     1       1.331   1.769  -0.001  0.00  0.00    +0.047 A 
ATOM     19  C   UNL     1       2.092   0.660  -0.014  0.00  0.00    +0.130 A 
ATOM     20  O   UNL     1       1.282  -0.411  -0.012  0.00  0.00    -0.466 OA
ATOM     21  C   UNL     1       0.002  -0.004   0.002  0.00  0.00    +0.195 A 
ENDBRANCH   1  19
TORSDOF 2
