REMARK  Name = ZINC22452909
REMARK  5 active torsions:
REMARK  status: ('A' for Active; 'I' for Inactive)
REMARK    1  A    between atoms: C_1  and  C_2
REMARK    2  A    between atoms: C_2  and  C_3
REMARK    3  A    between atoms: C_15  and  C_19
REMARK    4  A    between atoms: C_16  and  C_18
REMARK    5  A    between atoms: C_19  and  C_20
REMARK                            x       y       z     vdW  Elec       q    Type
REMARK                         _______ _______ _______ _____ _____    ______ ____
ROOT
ATOM      1  C   UNL     1      -2.969  -2.417   5.147  0.00  0.00    +0.076 C 
ATOM      2  C   UNL     1      -3.412  -2.965   6.505  0.00  0.00    +0.022 C 
ATOM      3  C   UNL     1      -3.131  -1.920   7.589  0.00  0.00    +0.003 C 
ATOM      4  C   UNL     1      -1.639  -1.575   7.578  0.00  0.00    +0.019 C 
ATOM      5  C   UNL     1      -1.247  -1.067   6.189  0.00  0.00    +0.108 C 
ATOM      6  N   UNL     1      -1.535  -2.103   5.188  0.00  0.00    -0.298 N 
ATOM      7  C   UNL     1      -1.079  -1.731   3.952  0.00  0.00    +0.199 A 
ATOM      8  N   UNL     1       0.260  -1.722   3.710  0.00  0.00    -0.295 N 
ATOM      9  H   UNL     1       0.965  -2.011   4.503  0.00  0.00    +0.172 HD
ATOM     10  C   UNL     1       0.718  -1.357   2.493  0.00  0.00    +0.256 A 
ATOM     11  O   UNL     1       1.915  -1.342   2.258  0.00  0.00    -0.267 OA
ATOM     12  C   UNL     1      -0.211  -0.994   1.502  0.00  0.00    +0.042 A 
ATOM     13  C   UNL     1      -1.541  -1.017   1.805  0.00  0.00    +0.050 A 
ATOM     14  N   UNL     1      -1.943  -1.390   3.018  0.00  0.00    -0.221 NA
ATOM     15  C   UNL     1      -2.557  -0.626   0.763  0.00  0.00    +0.066 C 
ENDROOT
BRANCH   1  17
ATOM     16  C   UNL     1      -4.737  -3.686   3.920  0.00  0.00    +0.006 C 
ATOM     17  C   UNL     1      -3.230  -3.466   4.064  0.00  0.00    +0.019 C 
ENDBRANCH   1  17
BRANCH  12  18
ATOM     18  C   UNL     1       0.255  -0.580   0.130  0.00  0.00    +0.079 C 
BRANCH  18  19
ATOM     19  C   UNL     1       0.441  -1.804  -0.728  0.00  0.00    -0.025 A 
ATOM     20  C   UNL     1      -0.641  -2.358  -1.387  0.00  0.00    +0.005 A 
ATOM     21  C   UNL     1      -0.470  -3.481  -2.175  0.00  0.00    +0.000 A 
ATOM     22  C   UNL     1       0.782  -4.052  -2.304  0.00  0.00    +0.001 A 
ATOM     23  C   UNL     1       1.865  -3.500  -1.645  0.00  0.00    +0.020 A 
ATOM     24  C   UNL     1       1.696  -2.372  -0.861  0.00  0.00    +0.044 A 
ATOM     25 CL   UNL     1       3.056  -1.673  -0.040  0.00  0.00    -0.083 Cl
ENDBRANCH  18  19
ENDBRANCH  12  18
TORSDOF 3
