REMARK  Name = ZINC13609391
REMARK  6 active torsions:
REMARK  status: ('A' for Active; 'I' for Inactive)
REMARK    1  A    between atoms: C_1  and  C_2
REMARK    2  A    between atoms: C_2  and  C_30
REMARK    3  A    between atoms: N_11  and  C_22
REMARK    4  A    between atoms: N_14  and  C_15
REMARK    5  A    between atoms: C_15  and  C_16
REMARK    6  A    between atoms: C_16  and  N_60
REMARK                            x       y       z     vdW  Elec       q    Type
REMARK                         _______ _______ _______ _____ _____    ______ ____
ROOT
ATOM      1  C   UNL     1       2.562   1.698  -0.474  0.00  0.00    +0.041 C 
ATOM      2  C   UNL     1       1.248   2.126   0.184  0.00  0.00    +0.069 C 
ATOM      3  C   UNL     1       1.359   1.964   1.710  0.00  0.00    +0.077 C 
ATOM      4  C   UNL     1       1.288   0.500   2.018  0.00  0.00    +0.001 A 
ATOM      5  C   UNL     1       0.882  -0.482   1.157  0.00  0.00    +0.013 A 
ATOM      6  C   UNL     1       0.889  -1.789   1.634  0.00  0.00    +0.071 A 
ATOM      7  C   UNL     1       1.316  -1.956   2.962  0.00  0.00    +0.101 A 
ATOM      8  S   UNL     1       1.685  -0.313   3.484  0.00  0.00    -0.086 S 
ATOM      9  C   UNL     1       1.385  -3.197   3.601  0.00  0.00    +0.275 A 
ATOM     10  O   UNL     1       1.759  -3.313   4.754  0.00  0.00    -0.266 OA
ATOM     11  N   UNL     1       1.007  -4.269   2.851  0.00  0.00    -0.228 N 
ATOM     12  C   UNL     1       0.598  -4.128   1.582  0.00  0.00    +0.337 A 
ATOM     13  O   UNL     1       0.277  -5.132   0.977  0.00  0.00    -0.246 OA
ATOM     14  N   UNL     1       0.516  -2.950   0.930  0.00  0.00    -0.294 N 
ATOM     15  C   UNL     1       0.450  -0.105  -0.259  0.00  0.00    +0.198 C 
ATOM     16  O   UNL     1       0.183   1.298  -0.290  0.00  0.00    -0.369 OA
ATOM     17  C   UNL     1       0.953   3.588  -0.156  0.00  0.00    +0.041 C 
ENDROOT
BRANCH  11  18
ATOM     18  C   UNL     1       1.048  -5.549   3.418  0.00  0.00    +0.054 A 
ATOM     19  C   UNL     1      -0.063  -6.051   4.083  0.00  0.00    +0.026 A 
ATOM     20  C   UNL     1      -0.021  -7.316   4.636  0.00  0.00    +0.002 A 
ATOM     21  C   UNL     1       1.129  -8.078   4.538  0.00  0.00    +0.000 A 
ATOM     22  C   UNL     1       2.239  -7.578   3.882  0.00  0.00    +0.002 A 
ATOM     23  C   UNL     1       2.201  -6.316   3.322  0.00  0.00    +0.026 A 
ENDBRANCH  11  18
BRANCH  14  24
ATOM     24  C   UNL     1       0.057  -2.881  -0.460  0.00  0.00    +0.108 C 
BRANCH  24  25
ATOM     25  C   UNL     1      -1.462  -2.698  -0.487  0.00  0.00    -0.057 C 
BRANCH  25  31
ATOM     26  C   UNL     1      -1.409  -1.425  -2.545  0.00  0.00    -0.079 C 
ATOM     27  C   UNL     1      -1.785  -1.459  -4.028  0.00  0.00    -0.019 C 
ATOM     28  C   UNL     1      -3.309  -1.528  -4.161  0.00  0.00    -0.004 C 
ATOM     29  C   UNL     1      -3.823  -2.765  -3.419  0.00  0.00    -0.019 C 
ATOM     30  C   UNL     1      -3.388  -2.692  -1.954  0.00  0.00    -0.079 C 
ATOM     31  N   UNL     1      -1.911  -2.653  -1.894  0.00  0.00    +0.381 N 
ATOM     32  H   UNL     1      -1.536  -3.470  -2.389  0.00  0.00    -0.082 HD
ENDBRANCH  25  31
ENDBRANCH  24  25
ENDBRANCH  14  24
TORSDOF 4
