REMARK  Name = ZINC10921171
REMARK  7 active torsions:
REMARK  status: ('A' for Active; 'I' for Inactive)
REMARK    1  A    between atoms: C_1  and  C_2
REMARK    2  A    between atoms: C_4  and  N_7
REMARK    3  A    between atoms: C_8  and  C_10
REMARK    4  A    between atoms: C_10  and  C_12
REMARK    5  A    between atoms: C_10  and  S_13
REMARK    6  A    between atoms: S_13  and  C_14
REMARK    7  A    between atoms: N_27  and  C_28
REMARK                            x       y       z     vdW  Elec       q    Type
REMARK                         _______ _______ _______ _____ _____    ______ ____
ROOT
ATOM      1  C   UNL     1       0.972   3.718   1.413  0.00  0.00    +0.174 A 
ATOM      2  N   UNL     1       1.822   2.713   1.478  0.00  0.00    -0.216 NA
ATOM      3  C   UNL     1       3.128   2.932   1.577  0.00  0.00    +0.117 A 
ATOM      4  C   UNL     1       3.666   4.229   1.628  0.00  0.00    +0.076 A 
ATOM      5  C   UNL     1       5.124   4.312   1.744  0.00  0.00    -0.023 A 
ATOM      6  C   UNL     1       5.801   3.147   1.788  0.00  0.00    -0.004 A 
ATOM      7  S   UNL     1       4.559   1.887   1.682  0.00  0.00    -0.073 S 
ATOM      8  C   UNL     1       7.284   2.963   1.903  0.00  0.00    +0.043 C 
ATOM      9  C   UNL     1       7.964   4.304   1.592  0.00  0.00    +0.005 C 
ATOM     10  C   UNL     1       7.259   5.408   2.385  0.00  0.00    +0.005 C 
ATOM     11  C   UNL     1       5.861   5.646   1.813  0.00  0.00    +0.037 C 
ATOM     12  C   UNL     1       2.720   5.300   1.561  0.00  0.00    +0.263 A 
ATOM     13  O   UNL     1       3.095   6.459   1.597  0.00  0.00    -0.267 OA
ATOM     14  N   UNL     1       1.410   5.010   1.456  0.00  0.00    -0.284 N 
ENDROOT
BRANCH  14  15
ATOM     15  C   UNL     1       0.436   6.101   1.387  0.00  0.00    +0.093 C 
ATOM     16  C   UNL     1       0.752   7.016   0.186  0.00  0.00    +0.025 C 
ATOM     17  C   UNL     1       0.425   8.442   0.699  0.00  0.00    +0.002 C 
ATOM     18  C   UNL     1       0.910   8.396   2.169  0.00  0.00    +0.002 C 
ATOM     19  C   UNL     1       0.536   6.978   2.647  0.00  0.00    +0.025 C 
ENDBRANCH  14  15
BRANCH   1  20
ATOM     20  S   UNL     1      -0.753   3.389   1.277  0.00  0.00    -0.075 S 
BRANCH  20  21
ATOM     21  C   UNL     1      -0.729   1.579   1.267  0.00  0.00    +0.137 C 
ATOM     22  C   UNL     1      -0.013   1.086   0.008  0.00  0.00    +0.029 C 
BRANCH  21  24
ATOM     23  N   UNL     1      -2.404  -0.171   1.767  0.00  0.00    -0.253 N 
ATOM     24  C   UNL     1      -2.143   1.058   1.278  0.00  0.00    +0.233 C 
ATOM     25  O   UNL     1      -3.045   1.743   0.846  0.00  0.00    -0.274 OA
ATOM     26  H   UNL     1      -1.682  -0.719   2.112  0.00  0.00    +0.158 HD
BRANCH  23  30
ATOM     27  C   UNL     1      -6.499  -2.944   2.343  0.00  0.00    +0.069 C 
ATOM     28  C   UNL     1      -5.520  -1.846   2.017  0.00  0.00    +0.082 A 
ATOM     29  C   UNL     1      -4.127  -1.865   2.236  0.00  0.00    +0.092 A 
ATOM     30  C   UNL     1      -3.705  -0.651   1.777  0.00  0.00    +0.224 A 
ATOM     31  O   UNL     1      -4.803  -0.012   1.342  0.00  0.00    -0.339 OA
ATOM     32  N   UNL     1      -5.794  -0.691   1.479  0.00  0.00    -0.081 NA
ENDBRANCH  23  30
ENDBRANCH  21  24
ENDBRANCH  20  21
ENDBRANCH   1  20
TORSDOF 5
