REMARK  Name = ZINC06833309
REMARK  4 active torsions:
REMARK  status: ('A' for Active; 'I' for Inactive)
REMARK    1  A    between atoms: C_1  and  C_2
REMARK    2  A    between atoms: C_2  and  C_3
REMARK    3  A    between atoms: C_2  and  C_4
REMARK    4  A    between atoms: C_7  and  C_17
REMARK                            x       y       z     vdW  Elec       q    Type
REMARK                         _______ _______ _______ _____ _____    ______ ____
ROOT
ATOM      1  C   UNL     1      -0.857   1.923   0.119  0.00  0.00    +0.221 C 
ATOM      2  O   UNL     1      -0.131   2.817   0.500  0.00  0.00    -0.275 OA
ATOM      3  N   UNL     1      -1.946   1.586   0.838  0.00  0.00    -0.259 N 
ATOM      4  C   UNL     1      -2.897   0.489   0.552  0.00  0.00    +0.190 C 
ATOM      5  C   UNL     1      -3.555   0.240   1.935  0.00  0.00    +0.194 C 
ATOM      6  O   UNL     1      -3.638   1.578   2.480  0.00  0.00    -0.354 OA
ATOM      7  C   UNL     1      -2.434   2.239   2.062  0.00  0.00    +0.139 C 
ATOM      8  C   UNL     1      -2.729   3.712   1.777  0.00  0.00    +0.055 C 
ATOM      9  C   UNL     1      -1.444   4.413   1.332  0.00  0.00    +0.004 C 
ATOM     10  C   UNL     1      -0.393   4.302   2.439  0.00  0.00    +0.000 C 
ATOM     11  C   UNL     1      -0.095   2.826   2.714  0.00  0.00    +0.004 C 
ATOM     12  C   UNL     1      -1.378   2.123   3.162  0.00  0.00    +0.055 C 
ENDROOT
BRANCH   4  13
ATOM     13  C   UNL     1      -2.167  -0.742   0.080  0.00  0.00    +0.239 C 
ATOM     14  O   UNL     1      -1.054  -0.984   0.497  0.00  0.00    -0.273 OA
ATOM     15  N   UNL     1      -2.750  -1.573  -0.807  0.00  0.00    -0.296 N 
ATOM     16  C   UNL     1      -4.101  -1.303  -1.323  0.00  0.00    +0.136 C 
ATOM     17  C   UNL     1      -4.055  -1.389  -2.857  0.00  0.00    +0.179 C 
ATOM     18  O   UNL     1      -3.467  -2.636  -3.238  0.00  0.00    -0.377 OA
ATOM     19  C   UNL     1      -2.112  -2.798  -2.814  0.00  0.00    +0.179 C 
ATOM     20  C   UNL     1      -2.057  -2.780  -1.282  0.00  0.00    +0.136 C 
ENDBRANCH   4  13
BRANCH   1  22
ATOM     21  C   UNL     1       0.859   1.578  -1.638  0.00  0.00    +0.017 C 
ATOM     22  C   UNL     1      -0.540   1.188  -1.158  0.00  0.00    +0.069 C 
ATOM     23  C   UNL     1      -1.569   1.558  -2.228  0.00  0.00    +0.017 C 
ENDBRANCH   1  22
TORSDOF 2
