REMARK  Name = ZINC44913913
REMARK  2 active torsions:
REMARK  status: ('A' for Active; 'I' for Inactive)
REMARK    1  A    between atoms: C_1  and  N_2
REMARK    2  A    between atoms: C_7  and  N_12
REMARK                            x       y       z     vdW  Elec       q    Type
REMARK                         _______ _______ _______ _____ _____    ______ ____
ROOT
ATOM      1  N   UNL     1       1.018  -4.256  -1.118  0.00  0.00    -0.322 N 
ATOM      2  C   UNL     1       0.649  -5.181  -0.158  0.00  0.00    +0.131 A 
ATOM      3  C   UNL     1       1.587  -6.139   0.318  0.00  0.00    +0.047 A 
ATOM      4  C   UNL     1       2.977  -6.340  -0.051  0.00  0.00    +0.021 A 
ATOM      5  C   UNL     1       3.676  -7.320   0.540  0.00  0.00    +0.048 A 
ATOM      6  S   UNL     1       2.496  -8.059   1.654  0.00  0.00    -0.077 S 
ATOM      7  C   UNL     1       1.097  -7.031   1.296  0.00  0.00    +0.113 A 
ATOM      8  N   UNL     1      -0.148  -6.964   1.726  0.00  0.00    -0.228 NA
ATOM      9  C   UNL     1      -0.972  -6.052   1.246  0.00  0.00    +0.224 A 
ATOM     10  N   UNL     1      -0.580  -5.182   0.332  0.00  0.00    -0.220 NA
ATOM     11  H   UNL     1       1.921  -4.261  -1.474  0.00  0.00    +0.148 HD
ENDROOT
BRANCH   1  18
ATOM     12  C   UNL     1      -0.018   1.461   0.010  0.00  0.00    +0.172 C 
ATOM     13  N   UNL     1       0.002  -0.004   0.002  0.00  0.00    -0.271 N 
ATOM     14  C   UNL     1       0.008  -0.789  -1.088  0.00  0.00    +0.044 A 
ATOM     15  C   UNL     1       0.030  -2.081  -0.670  0.00  0.00    +0.013 A 
ATOM     16  C   UNL     1       0.036  -2.082   0.723  0.00  0.00    +0.140 A 
ATOM     17  N   UNL     1       0.025  -0.837   1.131  0.00  0.00    -0.179 NA
ATOM     18  C   UNL     1       0.047  -3.270  -1.598  0.00  0.00    +0.105 C 
ATOM     19  C   UNL     1       0.448  -2.786  -2.997  0.00  0.00    +0.027 C 
ATOM     20  C   UNL     1      -0.411  -1.580  -3.387  0.00  0.00    +0.008 C 
ATOM     21  C   UNL     1      -0.009  -0.369  -2.536  0.00  0.00    +0.055 C 
ENDBRANCH   1  18
TORSDOF 1
