REMARK  Name = ZINC65009110
REMARK  5 active torsions:
REMARK  status: ('A' for Active; 'I' for Inactive)
REMARK    1  A    between atoms: C_1  and  C_2
REMARK    2  A    between atoms: C_2  and  C_19
REMARK    3  A    between atoms: C_7  and  O_9
REMARK    4  A    between atoms: O_9  and  C_10
REMARK    5  A    between atoms: C_10  and  C_12
REMARK                            x       y       z     vdW  Elec       q    Type
REMARK                         _______ _______ _______ _____ _____    ______ ____
ROOT
ATOM      1  O   UNL     1       1.230   0.523   2.053  0.00  0.00    -0.446 OA
ENDROOT
BRANCH   1   8
ATOM      2  C   UNL     1      -0.019   1.526   0.010  0.00  0.00    +0.018 C 
ATOM      3  C   UNL     1       0.002  -0.004   0.002  0.00  0.00    +0.047 C 
ATOM      4  C   UNL     1      -1.425  -0.575   0.189  0.00  0.00    +0.242 C 
ATOM      5  O   UNL     1      -1.231  -1.715   1.053  0.00  0.00    -0.461 OA
ATOM      6  C   UNL     1      -0.325  -1.337   1.987  0.00  0.00    +0.349 C 
ATOM      7  O   UNL     1      -0.360  -1.577   3.171  0.00  0.00    -0.247 OA
ATOM      8  C   UNL     1       0.745  -0.551   1.245  0.00  0.00    +0.293 C 
ATOM      9  C   UNL     1       0.638  -0.530  -1.286  0.00  0.00    +0.018 C 
ENDBRANCH   1   8
BRANCH   1  10
ATOM     10  C   UNL     1       2.353   0.297   2.762  0.00  0.00    +0.340 C 
ATOM     11  O   UNL     1       2.905  -0.783   2.696  0.00  0.00    -0.245 OA
BRANCH  10  12
ATOM     12  C   UNL     1       2.912   1.361   3.619  0.00  0.00    +0.059 A 
ATOM     13  C   UNL     1       2.276   2.602   3.702  0.00  0.00    +0.016 A 
ATOM     14  C   UNL     1       2.803   3.591   4.504  0.00  0.00    +0.021 A 
ATOM     15  C   UNL     1       3.961   3.357   5.227  0.00  0.00    +0.041 A 
ATOM     16  C   UNL     1       4.597   2.129   5.149  0.00  0.00    +0.021 A 
ATOM     17  C   UNL     1       4.076   1.129   4.355  0.00  0.00    +0.016 A 
ATOM     18 CL   UNL     1       4.620   4.609   6.234  0.00  0.00    -0.084 Cl
ENDBRANCH  10  12
ENDBRANCH   1  10
TORSDOF 3
