REMARK  Name = ZINC13789649
REMARK  6 active torsions:
REMARK  status: ('A' for Active; 'I' for Inactive)
REMARK    1  A    between atoms: C_1  and  S_2
REMARK    2  A    between atoms: S_2  and  N_5
REMARK    3  A    between atoms: C_8  and  C_11
REMARK    4  A    between atoms: C_11  and  N_13
REMARK    5  A    between atoms: N_15  and  C_24
REMARK    6  A    between atoms: C_24  and  C_25
REMARK                            x       y       z     vdW  Elec       q    Type
REMARK                         _______ _______ _______ _____ _____    ______ ____
ROOT
ATOM      1  N   UNL     1      -0.656  -3.823   0.004  0.00  0.00    -0.156 NA
ATOM      2  C   UNL     1      -0.682  -2.998  -1.040  0.00  0.00    +0.167 A 
ATOM      3  N   UNL     1       0.085  -3.032  -2.161  0.00  0.00    -0.310 N 
ATOM      4  C   UNL     1      -0.087  -2.080  -3.149  0.00  0.00    +0.059 A 
ATOM      5  C   UNL     1       0.602  -1.952  -4.365  0.00  0.00    +0.028 A 
ATOM      6  C   UNL     1       0.301  -0.936  -5.240  0.00  0.00    +0.022 A 
ATOM      7  C   UNL     1      -0.689  -0.010  -4.953  0.00  0.00    +0.042 A 
ATOM      8  C   UNL     1      -1.385  -0.113  -3.760  0.00  0.00    +0.037 A 
ATOM      9  C   UNL     1      -1.083  -1.128  -2.884  0.00  0.00    +0.040 A 
ATOM     10  S   UNL     1      -1.704  -1.620  -1.295  0.00  0.00    -0.052 S 
ATOM     11 CL   UNL     1      -1.053   1.264  -6.075  0.00  0.00    -0.084 Cl
ENDROOT
BRANCH   1  12
ATOM     12  C   UNL     1       0.311  -4.728   0.112  0.00  0.00    +0.242 C 
ATOM     13  O   UNL     1       1.462  -4.371   0.280  0.00  0.00    -0.273 OA
BRANCH  12  17
ATOM     14  N   UNL     1      -0.114  -8.839   1.028  0.00  0.00    -0.181 NA
ATOM     15  C   UNL     1       0.934  -8.506   0.054  0.00  0.00    +0.110 C 
ATOM     16  C   UNL     1       1.267  -7.016   0.177  0.00  0.00    +0.030 C 
ATOM     17  C   UNL     1      -0.017  -6.196   0.025  0.00  0.00    +0.080 C 
ATOM     18  C   UNL     1      -0.996  -6.567   1.141  0.00  0.00    +0.030 C 
ATOM     19  C   UNL     1      -1.354  -8.052   1.028  0.00  0.00    +0.110 C 
BRANCH  14  21
ATOM     20  C   UNL     1       0.870  -9.307   3.556  0.00  0.00    +0.215 C 
ATOM     21  S   UNL     1       0.100 -10.078   2.106  0.00  0.00    +0.029 S 
ATOM     22  O   UNL     1      -1.216 -10.512   2.424  0.00  0.00    -0.158 OA
ATOM     23  O   UNL     1       1.019 -10.956   1.472  0.00  0.00    -0.158 OA
ENDBRANCH  14  21
ENDBRANCH  12  17
ENDBRANCH   1  12
BRANCH   3  24
ATOM     24  C   UNL     1       1.097  -4.079  -2.323  0.00  0.00    +0.212 C 
BRANCH  24  25
ATOM     25  C   UNL     1       2.400  -3.579  -1.856  0.00  0.00    -0.084 C 
ATOM     26  C   UNL     1       3.439  -3.180  -1.483  0.00  0.00    +0.005 C 
ENDBRANCH  24  25
ENDBRANCH   3  24
TORSDOF 5
