REMARK  Name = ZINC44765221
REMARK  4 active torsions:
REMARK  status: ('A' for Active; 'I' for Inactive)
REMARK    1  A    between atoms: C_1  and  C_2
REMARK    2  A    between atoms: C_7  and  N_8
REMARK    3  A    between atoms: C_9  and  C_11
REMARK    4  A    between atoms: C_11  and  C_17
REMARK                            x       y       z     vdW  Elec       q    Type
REMARK                         _______ _______ _______ _____ _____    ______ ____
ROOT
ATOM      1  N   UNL     1       0.025  -0.014   2.417  0.00  0.00    -0.284 N 
ATOM      2  C   UNL     1      -0.056  -0.693   3.578  0.00  0.00    +0.237 C 
ATOM      3  O   UNL     1      -0.040  -1.906   3.574  0.00  0.00    -0.274 OA
ATOM      4  H   UNL     1       0.078   0.955   2.424  0.00  0.00    +0.155 HD
ENDROOT
BRANCH   1  11
ATOM      5  C   UNL     1      -1.264   1.183   0.181  0.00  0.00    +0.045 C 
ATOM      6  C   UNL     1      -0.584  -0.158   0.084  0.00  0.00    -0.029 A 
ATOM      7  C   UNL     1      -0.569  -0.840  -1.117  0.00  0.00    +0.006 A 
ATOM      8  C   UNL     1       0.054  -2.070  -1.207  0.00  0.00    +0.020 A 
ATOM      9  C   UNL     1       0.667  -2.622  -0.095  0.00  0.00    +0.043 A 
ATOM     10  C   UNL     1       0.655  -1.944   1.109  0.00  0.00    +0.043 A 
ATOM     11  C   UNL     1       0.034  -0.706   1.201  0.00  0.00    +0.038 A 
ATOM     12 CL   UNL     1       1.449  -4.168  -0.213  0.00  0.00    -0.083 Cl
ENDBRANCH   1  11
BRANCH   2  13
ATOM     13  C   UNL     1      -0.168   0.054   4.882  0.00  0.00    +0.137 C 
ATOM     14  C   UNL     1      -1.438   0.910   4.875  0.00  0.00    +0.059 C 
ATOM     15  C   UNL     1      -1.584   1.603   6.232  0.00  0.00    +0.162 C 
ATOM     16  O   UNL     1      -1.619   0.619   7.268  0.00  0.00    -0.380 OA
ATOM     17  C   UNL     1      -0.437  -0.180   7.352  0.00  0.00    +0.162 C 
ATOM     18  C   UNL     1      -0.245  -0.946   6.040  0.00  0.00    +0.059 C 
BRANCH  13  19
ATOM     19  C   UNL     1       1.010   0.919   5.056  0.00  0.00    +0.079 C 
ATOM     20  N   UNL     1       1.919   1.587   5.190  0.00  0.00    -0.195 NA
ENDBRANCH  13  19
ENDBRANCH   2  13
TORSDOF 3
