REMARK  Name = ZINC02493556
REMARK  6 active torsions:
REMARK  status: ('A' for Active; 'I' for Inactive)
REMARK    1  A    between atoms: C_1  and  C_2
REMARK    2  A    between atoms: C_9  and  N_13
REMARK    3  A    between atoms: C_10  and  C_11
REMARK    4  A    between atoms: C_14  and  C_16
REMARK    5  A    between atoms: C_22  and  C_29
REMARK    6  A    between atoms: C_24  and  C_25
REMARK                            x       y       z     vdW  Elec       q    Type
REMARK                         _______ _______ _______ _____ _____    ______ ____
ROOT
ATOM      1  C   UNL     1       3.095  -3.846  -0.049  0.00  0.00    +0.101 A 
ATOM      2  C   UNL     1       2.157  -4.895  -0.046  0.00  0.00    +0.150 A 
ATOM      3  N   UNL     1       2.799  -6.033  -0.058  0.00  0.00    -0.172 NA
ATOM      4  N   UNL     1       4.178  -5.793  -0.070  0.00  0.00    -0.209 N 
ATOM      5  C   UNL     1       4.373  -4.440  -0.071  0.00  0.00    +0.169 A 
ATOM      6  N   UNL     1       5.601  -3.926  -0.075  0.00  0.00    -0.224 NA
ATOM      7  C   UNL     1       6.667  -4.716  -0.089  0.00  0.00    +0.110 A 
ATOM      8  C   UNL     1       6.502  -6.120  -0.095  0.00  0.00    +0.064 A 
ATOM      9  C   UNL     1       5.252  -6.638  -0.085  0.00  0.00    +0.149 A 
ENDROOT
BRANCH   7  10
ATOM     10  C   UNL     1       8.019  -4.132  -0.100  0.00  0.00    +0.153 A 
ATOM     11  C   UNL     1       8.316  -2.801  -0.101  0.00  0.00    +0.051 A 
ATOM     12  C   UNL     1       9.719  -2.700  -0.109  0.00  0.00    +0.042 A 
ATOM     13  C   UNL     1      10.207  -3.958  -0.121  0.00  0.00    +0.196 A 
ATOM     14  O   UNL     1       9.178  -4.819  -0.115  0.00  0.00    -0.461 OA
ENDBRANCH   7  10
BRANCH   1  16
ATOM     15  N   UNL     1       1.520  -1.987  -0.024  0.00  0.00    -0.275 N 
ATOM     16  C   UNL     1       2.799  -2.412  -0.039  0.00  0.00    +0.254 C 
ATOM     17  O   UNL     1       3.709  -1.603  -0.044  0.00  0.00    -0.270 OA
ATOM     18  H   UNL     1       0.795  -2.632  -0.020  0.00  0.00    +0.156 HD
BRANCH  15  26
ATOM     19  C   UNL     1       0.369   5.749   0.125  0.00  0.00    +0.008 C 
ATOM     20  C   UNL     1       0.202   4.253   0.402  0.00  0.00    -0.009 C 
ATOM     21  C   UNL     1      -0.962   3.702  -0.427  0.00  0.00    +0.008 C 
ATOM     22  C   UNL     1      -1.295   2.279   0.021  0.00  0.00    +0.037 C 
ATOM     23  C   UNL     1      -0.018   1.448   0.010  0.00  0.00    -0.018 A 
ATOM     24  C   UNL     1       1.197   2.040   0.002  0.00  0.00    -0.004 A 
ATOM     25  S   UNL     1       2.353   0.699  -0.018  0.00  0.00    -0.077 S 
ATOM     26  C   UNL     1       1.240  -0.629  -0.014  0.00  0.00    +0.090 A 
ATOM     27  C   UNL     1       0.002  -0.004   0.002  0.00  0.00    +0.084 A 
ATOM     28  C   UNL     1       1.486   3.510   0.008  0.00  0.00    +0.046 C 
BRANCH  27  29
ATOM     29  C   UNL     1      -1.212  -0.763   0.010  0.00  0.00    +0.102 C 
ATOM     30  N   UNL     1      -2.176  -1.365   0.016  0.00  0.00    -0.191 NA
ENDBRANCH  27  29
ENDBRANCH  15  26
ENDBRANCH   1  16
BRANCH   9  31
ATOM     31  C   UNL     1       5.047  -8.130  -0.091  0.00  0.00    +0.434 C 
ATOM     32  F   UNL     1       4.970  -8.586  -1.411  0.00  0.00    -0.164 F 
ATOM     33  F   UNL     1       6.122  -8.751   0.555  0.00  0.00    -0.164 F 
ATOM     34  F   UNL     1       3.859  -8.440   0.580  0.00  0.00    -0.164 F 
ENDBRANCH   9  31
TORSDOF 5
