REMARK  Name = ZINC09815109
REMARK  9 active torsions:
REMARK  status: ('A' for Active; 'I' for Inactive)
REMARK    1  A    between atoms: C_1  and  C_2
REMARK    2  A    between atoms: C_5  and  C_9
REMARK    3  A    between atoms: C_6  and  C_8
REMARK    4  A    between atoms: C_9  and  C_10
REMARK    5  A    between atoms: C_16  and  C_18
REMARK    6  A    between atoms: C_22  and  S_24
REMARK    7  A    between atoms: S_24  and  C_27
REMARK    8  A    between atoms: C_27  and  C_28
REMARK    9  A    between atoms: C_27  and  C_29
REMARK                            x       y       z     vdW  Elec       q    Type
REMARK                         _______ _______ _______ _____ _____    ______ ____
ROOT
ATOM      1  C   UNL     1      -5.993  -6.001   3.936  0.00  0.00    +0.225 C 
ATOM      2  O   UNL     1      -4.860  -6.169   4.332  0.00  0.00    -0.275 OA
ATOM      3  N   UNL     1      -6.316  -4.870   3.279  0.00  0.00    -0.238 N 
ATOM      4  C   UNL     1      -5.353  -3.898   3.057  0.00  0.00    +0.314 A 
ATOM      5  N   UNL     1      -4.098  -3.951   3.430  0.00  0.00    -0.092 NA
ATOM      6  N   UNL     1      -3.494  -2.877   3.058  0.00  0.00    -0.106 NA
ATOM      7  C   UNL     1      -4.341  -2.097   2.432  0.00  0.00    +0.250 A 
ATOM      8  O   UNL     1      -5.537  -2.724   2.424  0.00  0.00    -0.405 OA
ATOM      9  H   UNL     1      -7.223  -4.735   2.961  0.00  0.00    +0.159 HD
ENDROOT
BRANCH   7  10
ATOM     10  C   UNL     1      -4.044  -0.772   1.849  0.00  0.00    +0.040 A 
ATOM     11  C   UNL     1      -5.050  -0.047   1.208  0.00  0.00    +0.013 A 
ATOM     12  C   UNL     1      -4.766   1.190   0.666  0.00  0.00    +0.003 A 
ATOM     13  C   UNL     1      -3.489   1.714   0.762  0.00  0.00    +0.027 A 
ATOM     14  C   UNL     1      -2.486   0.998   1.391  0.00  0.00    +0.089 A 
ATOM     15  C   UNL     1      -2.757  -0.240   1.937  0.00  0.00    +0.040 A 
BRANCH  14  16
ATOM     16  S   UNL     1      -0.862   1.671   1.500  0.00  0.00    -0.001 S 
ATOM     17  O   UNL     1      -0.296   1.065   2.655  0.00  0.00    -0.169 OA
ATOM     18  O   UNL     1      -1.048   3.078   1.438  0.00  0.00    -0.169 OA
BRANCH  16  19
ATOM     19  C   UNL     1      -0.013   1.086   0.008  0.00  0.00    +0.130 C 
ATOM     20  C   UNL     1       1.423   1.615  -0.003  0.00  0.00    +0.032 C 
ATOM     21  C   UNL     1      -0.753   1.593  -1.232  0.00  0.00    +0.032 C 
ENDBRANCH  16  19
ENDBRANCH  14  16
ENDBRANCH   7  10
BRANCH   1  22
ATOM     22  C   UNL     1      -7.040  -7.058   4.177  0.00  0.00    +0.131 C 
BRANCH  22  27
ATOM     23  C   UNL     1      -4.683 -11.484   7.048  0.00  0.00    +0.044 C 
ATOM     24  C   UNL     1      -5.298 -10.330   6.299  0.00  0.00    -0.050 A 
ATOM     25  C   UNL     1      -5.387 -10.369   4.920  0.00  0.00    +0.003 A 
ATOM     26  C   UNL     1      -5.951  -9.310   4.233  0.00  0.00    +0.004 A 
ATOM     27  C   UNL     1      -6.426  -8.212   4.926  0.00  0.00    -0.036 A 
ATOM     28  C   UNL     1      -6.333  -8.171   6.304  0.00  0.00    -0.047 A 
ATOM     29  C   UNL     1      -5.773  -9.232   6.991  0.00  0.00    +0.007 A 
ATOM     30  C   UNL     1      -6.845  -6.971   7.058  0.00  0.00    +0.044 C 
ENDBRANCH  22  27
ENDBRANCH   1  22
TORSDOF 5
