REMARK  Name = ZINC37929644
REMARK  5 active torsions:
REMARK  status: ('A' for Active; 'I' for Inactive)
REMARK    1  A    between atoms: C_1  and  C_2
REMARK    2  A    between atoms: C_2  and  C_3
REMARK    3  A    between atoms: N_6  and  S_10
REMARK    4  A    between atoms: S_10  and  C_13
REMARK    5  A    between atoms: C_18  and  N_19
REMARK                            x       y       z     vdW  Elec       q    Type
REMARK                         _______ _______ _______ _____ _____    ______ ____
ROOT
ATOM      1  S   UNL     1      -3.393  -3.477  -0.405  0.00  0.00    +0.063 S 
ATOM      2  O   UNL     1      -4.776  -3.404  -0.086  0.00  0.00    -0.153 OA
ATOM      3  O   UNL     1      -2.869  -2.999  -1.637  0.00  0.00    -0.153 OA
ENDROOT
BRANCH   1   4
ATOM      4  C   UNL     1      -2.938  -5.175  -0.289  0.00  0.00    +0.127 A 
ATOM      5  C   UNL     1      -3.885  -6.123   0.047  0.00  0.00    +0.050 A 
ATOM      6  C   UNL     1      -3.528  -7.457   0.138  0.00  0.00    +0.043 A 
ATOM      7  C   UNL     1      -2.222  -7.844  -0.106  0.00  0.00    +0.022 A 
ATOM      8  C   UNL     1      -1.271  -6.901  -0.441  0.00  0.00    +0.026 A 
ATOM      9  C   UNL     1      -1.628  -5.562  -0.539  0.00  0.00    +0.051 A 
ATOM     10 CL   UNL     1      -4.720  -8.646   0.559  0.00  0.00    -0.083 Cl
BRANCH   9  11
ATOM     11  N   UNL     1      -0.669  -4.605  -0.884  0.00  0.00    -0.356 N 
ATOM     12  H   UNL     1      -0.939  -3.690  -1.061  0.00  0.00    +0.142 HD
ATOM     13  H   UNL     1       0.266  -4.856  -0.947  0.00  0.00    +0.142 HD
ENDBRANCH   9  11
ENDBRANCH   1   4
BRANCH   1  16
ATOM     14  C   UNL     1      -1.417  -0.550   1.069  0.00  0.00    +0.134 C 
ATOM     15  C   UNL     1      -1.317  -1.980   0.525  0.00  0.00    +0.141 C 
ATOM     16  N   UNL     1      -2.588  -2.670   0.796  0.00  0.00    -0.172 NA
ATOM     17  C   UNL     1      -3.122  -2.623   2.167  0.00  0.00    +0.137 C 
ATOM     18  C   UNL     1      -3.134  -1.162   2.631  0.00  0.00    +0.177 C 
ATOM     19  O   UNL     1      -1.837  -0.594   2.435  0.00  0.00    -0.374 OA
BRANCH  14  21
ATOM     20  C   UNL     1      -0.177   1.592   1.404  0.00  0.00    +0.006 C 
ATOM     21  C   UNL     1      -0.050   0.129   0.976  0.00  0.00    +0.029 C 
ENDBRANCH  14  21
ENDBRANCH   1  16
TORSDOF 4
