REMARK  Name = ZINC61608241
REMARK  5 active torsions:
REMARK  status: ('A' for Active; 'I' for Inactive)
REMARK    1  A    between atoms: C_1  and  C_2
REMARK    2  A    between atoms: C_2  and  N_3
REMARK    3  A    between atoms: C_9  and  S_10
REMARK    4  A    between atoms: S_10  and  C_11
REMARK    5  A    between atoms: C_11  and  C_12
REMARK                            x       y       z     vdW  Elec       q    Type
REMARK                         _______ _______ _______ _____ _____    ______ ____
ROOT
ATOM      1  C   UNL     1      -3.098  -1.041   5.011  0.00  0.00    +0.143 A 
ATOM      2  N   UNL     1      -3.530   0.087   5.545  0.00  0.00    -0.216 NA
ATOM      3  C   UNL     1      -4.773   0.231   5.978  0.00  0.00    +0.128 A 
ATOM      4  C   UNL     1      -5.676  -0.862   5.867  0.00  0.00    +0.047 A 
ATOM      5  C   UNL     1      -7.071  -0.958   6.261  0.00  0.00    +0.021 A 
ATOM      6  C   UNL     1      -7.732  -2.106   6.055  0.00  0.00    +0.048 A 
ATOM      7  S   UNL     1      -6.508  -3.163   5.304  0.00  0.00    -0.077 S 
ATOM      8  C   UNL     1      -5.141  -2.033   5.286  0.00  0.00    +0.114 A 
ATOM      9  N   UNL     1      -3.889  -2.087   4.877  0.00  0.00    -0.224 NA
ATOM     10  N   UNL     1      -5.187   1.429   6.532  0.00  0.00    -0.343 N 
ATOM     11  H   UNL     1      -4.566   2.170   6.605  0.00  0.00    +0.144 HD
ATOM     12  H   UNL     1      -6.099   1.528   6.847  0.00  0.00    +0.144 HD
ENDROOT
BRANCH   1  13
ATOM     13  C   UNL     1      -1.669  -1.132   4.540  0.00  0.00    +0.153 C 
BRANCH  13  14
ATOM     14  S   UNL     1      -1.570  -0.611   2.805  0.00  0.00    -0.078 S 
BRANCH  14  21
ATOM     15  N   UNL     1       0.711  -0.489   1.189  0.00  0.00    -0.271 N 
ATOM     16  C   UNL     1       2.034  -0.729   1.274  0.00  0.00    +0.345 A 
ATOM     17  O   UNL     1       2.852  -0.582   0.383  0.00  0.00    -0.245 OA
ATOM     18  N   UNL     1       2.290  -1.162   2.526  0.00  0.00    -0.226 N 
ATOM     19  H   UNL     1       3.157  -1.413   2.882  0.00  0.00    +0.194 HD
ATOM     20  N   UNL     1       1.071  -1.183   3.220  0.00  0.00    -0.145 NA
ATOM     21  C   UNL     1       0.139  -0.772   2.409  0.00  0.00    +0.192 A 
BRANCH  15  23
ATOM     22  C   UNL     1      -0.019   1.526   0.010  0.00  0.00    +0.027 C 
ATOM     23  C   UNL     1       0.002  -0.004   0.002  0.00  0.00    +0.125 C 
ENDBRANCH  15  23
ENDBRANCH  14  21
ENDBRANCH  13  14
ENDBRANCH   1  13
TORSDOF 4
