REMARK  Name = ZINC08533060
REMARK  8 active torsions:
REMARK  status: ('A' for Active; 'I' for Inactive)
REMARK    1  A    between atoms: C_1  and  C_2
REMARK    2  A    between atoms: C_2  and  C_4
REMARK    3  A    between atoms: C_2  and  N_55
REMARK    4  A    between atoms: N_9  and  C_10
REMARK    5  A    between atoms: C_10  and  C_11
REMARK    6  A    between atoms: C_10  and  C_12
REMARK    7  A    between atoms: C_10  and  C_13
REMARK    8  A    between atoms: C_16  and  C_19
REMARK                            x       y       z     vdW  Elec       q    Type
REMARK                         _______ _______ _______ _____ _____    ______ ____
ROOT
ATOM      1  C   UNL     1       2.673  -3.722  -0.820  0.00  0.00    -0.077 C 
ATOM      2  C   UNL     1       2.805  -2.219  -0.563  0.00  0.00    -0.009 C 
ATOM      3  C   UNL     1       2.216  -1.888   0.811  0.00  0.00    +0.041 C 
ATOM      4  C   UNL     1       2.940  -2.710   1.881  0.00  0.00    -0.009 C 
ATOM      5  C   UNL     1       2.805  -4.198   1.552  0.00  0.00    -0.077 C 
ATOM      6  N   UNL     1       3.412  -4.456   0.229  0.00  0.00    +0.387 N 
ATOM      7  H   UNL     1       4.386  -4.129   0.240  0.00  0.00    -0.081 HD
ENDROOT
BRANCH   3   8
ATOM      8  C   UNL     1       2.397  -0.419   1.096  0.00  0.00    +0.082 A 
ATOM      9  N   UNL     1       1.481   0.479   1.327  0.00  0.00    -0.244 NA
ATOM     10  C   UNL     1       1.779   1.772   1.570  0.00  0.00    +0.078 A 
ATOM     11  C   UNL     1       0.908   2.851   1.841  0.00  0.00    +0.029 A 
ATOM     12  C   UNL     1       1.398   4.101   2.061  0.00  0.00    +0.002 A 
ATOM     13  C   UNL     1       2.761   4.363   2.039  0.00  0.00    +0.001 A 
ATOM     14  C   UNL     1       3.647   3.333   1.783  0.00  0.00    +0.017 A 
ATOM     15  C   UNL     1       3.161   2.068   1.554  0.00  0.00    +0.039 A 
ATOM     16  S   UNL     1       3.877   0.484   1.197  0.00  0.00    -0.072 S 
ENDBRANCH   3   8
BRANCH   6  18
ATOM     17  C   UNL     1       1.985  -6.360  -0.441  0.00  0.00    -0.004 C 
ATOM     18  C   UNL     1       3.395  -5.904  -0.061  0.00  0.00    +0.017 C 
BRANCH  18  19
ATOM     19  C   UNL     1       4.337  -6.179  -1.205  0.00  0.00    +0.207 C 
ATOM     20  O   UNL     1       4.749  -5.263  -1.884  0.00  0.00    -0.277 OA
ATOM     21  N   UNL     1       4.720  -7.442  -1.474  0.00  0.00    -0.242 N 
ATOM     22  C   UNL     1       5.562  -7.688  -2.498  0.00  0.00    +0.306 C 
ATOM     23  O   UNL     1       5.976  -6.769  -3.178  0.00  0.00    -0.252 OA
ATOM     24  N   UNL     1       5.945  -8.952  -2.767  0.00  0.00    -0.294 N 
ATOM     25  H   UNL     1       4.390  -8.175  -0.931  0.00  0.00    +0.159 HD
ATOM     26  H   UNL     1       5.615  -9.684  -2.224  0.00  0.00    +0.151 HD
BRANCH  24  27
ATOM     27  C   UNL     1       6.861  -9.218  -3.879  0.00  0.00    +0.028 C 
ATOM     28  C   UNL     1       8.177  -8.474  -3.646  0.00  0.00    +0.031 C 
ATOM     29  C   UNL     1       7.133 -10.721  -3.966  0.00  0.00    +0.031 C 
ATOM     30  C   UNL     1       6.228  -8.738  -5.187  0.00  0.00    +0.031 C 
ENDBRANCH  24  27
ENDBRANCH  18  19
ENDBRANCH   6  18
TORSDOF 4
