REMARK  Name = ZINC16996144
REMARK  7 active torsions:
REMARK  status: ('A' for Active; 'I' for Inactive)
REMARK    1  A    between atoms: C_1  and  C_2
REMARK    2  A    between atoms: C_2  and  C_3
REMARK    3  A    between atoms: C_3  and  C_4
REMARK    4  A    between atoms: C_4  and  N_5
REMARK    5  A    between atoms: C_7  and  C_13
REMARK    6  A    between atoms: C_19  and  O_25
REMARK    7  A    between atoms: O_25  and  C_26
REMARK                            x       y       z     vdW  Elec       q    Type
REMARK                         _______ _______ _______ _____ _____    ______ ____
ROOT
ATOM      1  C   UNL     1      -0.013   1.086   0.008  0.00  0.00    +0.018 C 
ATOM      2  C   UNL     1      -0.751   1.590  -1.209  0.00  0.00    +0.011 A 
ATOM      3  C   UNL     1      -2.023   2.059  -1.153  0.00  0.00    -0.022 A 
ATOM      4  C   UNL     1      -2.392   2.449  -2.496  0.00  0.00    +0.006 A 
ATOM      5  C   UNL     1      -3.560   2.993  -3.040  0.00  0.00    +0.056 A 
ATOM      6  C   UNL     1      -3.555   3.246  -4.404  0.00  0.00    +0.121 A 
ATOM      7  C   UNL     1      -2.447   2.973  -5.196  0.00  0.00    +0.047 A 
ATOM      8  C   UNL     1      -1.284   2.435  -4.675  0.00  0.00    +0.030 A 
ATOM      9  C   UNL     1      -1.262   2.171  -3.307  0.00  0.00    +0.047 A 
ATOM     10  N   UNL     1      -0.293   1.652  -2.493  0.00  0.00    -0.359 N 
ATOM     11  H   UNL     1       0.724   1.309  -2.731  0.00  0.00    +0.166 HD
ATOM     12  C   UNL     1      -2.832   2.127   0.118  0.00  0.00    +0.018 C 
ATOM     13  C   UNL     1      -2.143   1.243   1.167  0.00  0.00    -0.076 C 
ATOM     14  N   UNL     1      -0.710   1.564   1.213  0.00  0.00    +0.388 N 
ATOM     15  H   UNL     1      -0.273   1.087   2.103  0.00  0.00    -0.084 HD
ATOM     16  H   UNL     1      -0.599   2.656   1.291  0.00  0.00    -0.084 HD
ENDROOT
BRANCH   1  19
ATOM     17  N   UNL     1       3.732   1.256  -0.128  0.00  0.00    -0.288 N 
ATOM     18  C   UNL     1       2.455   0.756  -0.120  0.00  0.00    +0.260 A 
ATOM     19  C   UNL     1       1.400   1.611  -0.003  0.00  0.00    +0.073 A 
ATOM     20  C   UNL     1       1.647   2.992   0.102  0.00  0.00    +0.258 A 
ATOM     21  O   UNL     1       0.720   3.776   0.203  0.00  0.00    -0.267 OA
ATOM     22  N   UNL     1       2.918   3.441   0.095  0.00  0.00    -0.302 N 
ATOM     23  C   UNL     1       3.946   2.580  -0.021  0.00  0.00    +0.163 A 
ATOM     24  S   UNL     1       5.550   3.179  -0.034  0.00  0.00    -0.013 S 
ATOM     25  O   UNL     1       2.244  -0.573  -0.228  0.00  0.00    -0.267 OA
ATOM     26  H   UNL     1       3.112   4.520   0.185  0.00  0.00    +0.171 HD
BRANCH  17  27
ATOM     27  C   UNL     1       4.870   0.343  -0.254  0.00  0.00    +0.127 C 
BRANCH  27  28
ATOM     28  C   UNL     1       5.208   0.151  -1.733  0.00  0.00    +0.021 C 
BRANCH  28  30
ATOM     29  C   UNL     1       6.736  -0.996  -3.345  0.00  0.00    +0.004 C 
ATOM     30  C   UNL     1       6.398  -0.803  -1.865  0.00  0.00    -0.002 C 
ENDBRANCH  28  30
ENDBRANCH  27  28
ENDBRANCH  17  27
ENDBRANCH   1  19
BRANCH   6  31
ATOM     31  O   UNL     1      -4.667   3.775  -4.982  0.00  0.00    -0.495 OA
ATOM     32  C   UNL     1      -4.614   4.017  -6.389  0.00  0.00    +0.277 C 
ENDBRANCH   6  31
TORSDOF 5
