REMARK  Name = ZINC39353789
REMARK  5 active torsions:
REMARK  status: ('A' for Active; 'I' for Inactive)
REMARK    1  A    between atoms: C_1  and  C_2
REMARK    2  A    between atoms: C_2  and  C_3
REMARK    3  A    between atoms: C_2  and  C_4
REMARK    4  A    between atoms: C_6  and  C_10
REMARK    5  A    between atoms: C_21  and  C_24
REMARK                            x       y       z     vdW  Elec       q    Type
REMARK                         _______ _______ _______ _____ _____    ______ ____
ROOT
ATOM      1  C   UNL     1      -3.603  -3.012  -0.224  0.00  0.00    +0.246 C 
ATOM      2  O   UNL     1      -3.562  -3.459   0.903  0.00  0.00    -0.273 OA
ATOM      3  N   UNL     1      -3.865  -3.828  -1.264  0.00  0.00    -0.291 N 
ATOM      4  C   UNL     1      -3.907  -3.284  -2.625  0.00  0.00    +0.146 C 
ATOM      5  C   UNL     1      -5.355  -3.066  -3.018  0.00  0.00    +0.012 A 
ATOM      6  C   UNL     1      -5.841  -1.798  -3.242  0.00  0.00    +0.009 A 
ATOM      7  C   UNL     1      -7.158  -1.627  -3.634  0.00  0.00    +0.001 A 
ATOM      8  C   UNL     1      -7.977  -2.729  -3.803  0.00  0.00    +0.004 A 
ATOM      9  C   UNL     1      -7.493  -4.001  -3.566  0.00  0.00    +0.046 A 
ATOM     10  C   UNL     1      -6.178  -4.174  -3.153  0.00  0.00    +0.126 A 
ATOM     11  O   UNL     1      -5.723  -5.409  -2.824  0.00  0.00    -0.482 OA
ATOM     12  C   UNL     1      -5.519  -5.647  -1.426  0.00  0.00    +0.221 C 
ATOM     13  C   UNL     1      -4.099  -5.254  -1.028  0.00  0.00    +0.157 C 
ENDROOT
BRANCH  12  14
ATOM     14  C   UNL     1      -5.729  -7.110  -1.133  0.00  0.00    -0.006 A 
ATOM     15  C   UNL     1      -5.256  -8.066  -2.013  0.00  0.00    +0.007 A 
ATOM     16  C   UNL     1      -5.448  -9.408  -1.744  0.00  0.00    +0.000 A 
ATOM     17  C   UNL     1      -6.112  -9.794  -0.595  0.00  0.00    +0.000 A 
ATOM     18  C   UNL     1      -6.584  -8.839   0.285  0.00  0.00    +0.000 A 
ATOM     19  C   UNL     1      -6.388  -7.497   0.018  0.00  0.00    +0.007 A 
ENDBRANCH  12  14
BRANCH   1  22
ATOM     20  C   UNL     1      -1.412  -0.526   0.013  0.00  0.00    +0.064 C 
ATOM     21  C   UNL     1      -1.940  -1.303  -0.935  0.00  0.00    +0.036 C 
ATOM     22  C   UNL     1      -3.362  -1.543  -0.460  0.00  0.00    +0.238 C 
ATOM     23  N   UNL     1      -3.420  -0.792   0.805  0.00  0.00    -0.170 NA
ATOM     24  N   UNL     1      -2.315  -0.275   0.986  0.00  0.00    -0.158 NA
BRANCH  20  26
ATOM     25  C   UNL     1      -0.019   1.526   0.010  0.00  0.00    +0.014 C 
ATOM     26  C   UNL     1       0.002  -0.004   0.002  0.00  0.00    +0.033 C 
ATOM     27  C   UNL     1       0.742  -0.511   1.242  0.00  0.00    +0.014 C 
ENDBRANCH  20  26
ENDBRANCH   1  22
TORSDOF 3
