REMARK  Name = ZINC14532883
REMARK  10 active torsions:
REMARK  status: ('A' for Active; 'I' for Inactive)
REMARK    1  A    between atoms: C_1  and  C_2
REMARK    2  A    between atoms: C_3  and  C_8
REMARK    3  A    between atoms: C_4  and  C_7
REMARK    4  A    between atoms: C_8  and  O_9
REMARK    5  A    between atoms: O_9  and  C_10
REMARK    6  A    between atoms: N_17  and  C_19
REMARK    7  A    between atoms: C_19  and  C_20
REMARK    8  A    between atoms: C_20  and  C_21
REMARK    9  A    between atoms: C_20  and  C_22
REMARK   10  A    between atoms: C_23  and  C_25
REMARK                            x       y       z     vdW  Elec       q    Type
REMARK                         _______ _______ _______ _____ _____    ______ ____
ROOT
ATOM      1  C   UNL     1      -2.434   0.026   1.161  0.00  0.00    +0.153 C 
ATOM      2  C   UNL     1      -1.586   0.662   2.257  0.00  0.00    +0.141 C 
ATOM      3  N   UNL     1      -0.406   1.328   1.707  0.00  0.00    -0.285 N 
ATOM      4  C   UNL     1       0.616   0.554   0.995  0.00  0.00    +0.204 C 
ATOM      5  C   UNL     1       0.159   0.339  -0.432  0.00  0.00    +0.233 C 
ATOM      6  O   UNL     1       0.739   0.880  -1.349  0.00  0.00    -0.274 OA
ATOM      7  N   UNL     1      -0.895  -0.458  -0.672  0.00  0.00    -0.297 N 
ATOM      8  C   UNL     1      -1.635  -1.063   0.441  0.00  0.00    +0.141 C 
ATOM      9  C   UNL     1      -0.258   2.660   1.850  0.00  0.00    +0.265 C 
ATOM     10  O   UNL     1      -1.151   3.322   2.344  0.00  0.00    -0.268 OA
ENDROOT
BRANCH   9  11
ATOM     11  C   UNL     1       0.985   3.314   1.409  0.00  0.00    +0.124 A 
ATOM     12  C   UNL     1       1.616   4.376   2.006  0.00  0.00    +0.005 A 
ATOM     13  C   UNL     1       2.750   4.635   1.225  0.00  0.00    +0.067 A 
ATOM     14  N   UNL     1       2.760   3.780   0.244  0.00  0.00    -0.178 NA
ATOM     15  N   UNL     1       1.744   2.991   0.316  0.00  0.00    -0.272 N 
ATOM     16  H   UNL     1       1.542   2.253  -0.328  0.00  0.00    +0.189 HD
ATOM     17  C   UNL     1       3.732   5.739   1.534  0.00  0.00    +0.057 C 
ATOM     18  C   UNL     1       3.067   6.709   2.518  0.00  0.00    +0.007 C 
ATOM     19  C   UNL     1       2.486   5.933   3.702  0.00  0.00    +0.005 C 
ATOM     20  C   UNL     1       1.251   5.143   3.247  0.00  0.00    +0.039 C 
ENDBRANCH   9  11
BRANCH   1  21
ATOM     21  O   UNL     1      -3.603  -0.552   1.746  0.00  0.00    -0.369 OA
BRANCH  21  22
ATOM     22  C   UNL     1      -4.712   0.345   1.836  0.00  0.00    +0.200 C 
BRANCH  22  25
ATOM     23  C   UNL     1      -5.458   0.156   4.988  0.00  0.00    +0.069 C 
ATOM     24  C   UNL     1      -6.214  -0.453   3.836  0.00  0.00    +0.086 A 
ATOM     25  C   UNL     1      -5.882  -0.366   2.465  0.00  0.00    +0.042 A 
ATOM     26  C   UNL     1      -6.864  -1.065   1.845  0.00  0.00    +0.140 A 
ATOM     27  O   UNL     1      -7.677  -1.514   2.812  0.00  0.00    -0.359 OA
ATOM     28  N   UNL     1      -7.303  -1.163   3.906  0.00  0.00    -0.083 NA
ATOM     29  C   UNL     1      -7.010  -1.295   0.363  0.00  0.00    +0.089 C 
ENDBRANCH  22  25
ENDBRANCH  21  22
ENDBRANCH   1  21
BRANCH   7  30
ATOM     30  C   UNL     1      -1.308  -0.724  -2.052  0.00  0.00    +0.111 C 
BRANCH  30  31
ATOM     31  C   UNL     1      -0.576  -1.962  -2.573  0.00  0.00    +0.000 C 
ATOM     32  C   UNL     1      -1.018  -3.190  -1.775  0.00  0.00    +0.009 C 
ATOM     33  C   UNL     1      -0.911  -2.168  -4.052  0.00  0.00    +0.009 C 
ENDBRANCH  30  31
ENDBRANCH   7  30
TORSDOF 6
