REMARK  Name = ZINC28754402
REMARK  3 active torsions:
REMARK  status: ('A' for Active; 'I' for Inactive)
REMARK    1  A    between atoms: C_1  and  C_2
REMARK    2  A    between atoms: N_5  and  C_9
REMARK    3  A    between atoms: C_9  and  N_10
REMARK                            x       y       z     vdW  Elec       q    Type
REMARK                         _______ _______ _______ _____ _____    ______ ____
ROOT
ATOM      1  N   UNL     1      -2.345   0.871  -3.549  0.00  0.00    -0.315 N 
ATOM      2  C   UNL     1      -1.311   1.448  -4.266  0.00  0.00    +0.059 A 
ATOM      3  C   UNL     1      -0.670   2.672  -4.016  0.00  0.00    +0.047 A 
ATOM      4  C   UNL     1       0.351   3.114  -4.825  0.00  0.00    +0.043 A 
ATOM      5  C   UNL     1       0.781   2.367  -5.910  0.00  0.00    +0.021 A 
ATOM      6  C   UNL     1       0.173   1.152  -6.175  0.00  0.00    +0.018 A 
ATOM      7  C   UNL     1      -0.849   0.714  -5.369  0.00  0.00    +0.038 A 
ATOM      8  S   UNL     1      -1.885  -0.729  -5.357  0.00  0.00    -0.062 S 
ATOM      9  C   UNL     1      -2.861  -0.317  -3.920  0.00  0.00    +0.128 A 
ATOM     10  S   UNL     1      -4.133  -1.206  -3.196  0.00  0.00    -0.025 S 
ATOM     11 CL   UNL     1       1.116   4.633  -4.479  0.00  0.00    -0.083 Cl
ENDROOT
BRANCH   1  12
ATOM     12  C   UNL     1      -2.888   1.563  -2.377  0.00  0.00    +0.211 C 
BRANCH  12  16
ATOM     13  C   UNL     1      -2.682   1.702   2.538  0.00  0.00    +0.039 C 
ATOM     14  C   UNL     1      -2.049   1.128   1.269  0.00  0.00    +0.129 C 
ATOM     15  C   UNL     1      -2.812   1.636   0.042  0.00  0.00    +0.117 C 
ATOM     16  N   UNL     1      -2.154   1.144  -1.177  0.00  0.00    -0.280 NA
ATOM     17  C   UNL     1      -0.755   1.594  -1.231  0.00  0.00    +0.114 C 
ATOM     18  C   UNL     1      -0.013   1.086   0.008  0.00  0.00    +0.175 C 
ATOM     19  O   UNL     1      -0.684   1.548   1.183  0.00  0.00    -0.374 OA
ENDBRANCH  12  16
ENDBRANCH   1  12
TORSDOF 2
