REMARK  Name = ZINC32935467
REMARK  8 active torsions:
REMARK  status: ('A' for Active; 'I' for Inactive)
REMARK    1  A    between atoms: C_1  and  C_2
REMARK    2  A    between atoms: C_2  and  N_3
REMARK    3  A    between atoms: N_3  and  C_4
REMARK    4  A    between atoms: N_3  and  C_21
REMARK    5  A    between atoms: C_4  and  N_5
REMARK    6  A    between atoms: N_8  and  C_20
REMARK    7  A    between atoms: C_9  and  C_11
REMARK    8  A    between atoms: C_11  and  C_12
REMARK                            x       y       z     vdW  Elec       q    Type
REMARK                         _______ _______ _______ _____ _____    ______ ____
ROOT
ATOM      1  C   UNL     1      -1.266   4.113   3.968  0.00  0.00    +0.072 C 
ENDROOT
BRANCH   1   2
ATOM      2  N   UNL     1      -1.283   2.660   3.781  0.00  0.00    -0.258 N 
ATOM      3  C   UNL     1      -1.994   1.770   4.503  0.00  0.00    +0.176 A 
ATOM      4  S   UNL     1      -3.042   2.129   5.808  0.00  0.00    -0.011 S 
ATOM      5  N   UNL     1      -1.726   0.544   4.009  0.00  0.00    -0.310 N 
ATOM      6  C   UNL     1      -0.840   0.682   2.969  0.00  0.00    +0.132 A 
ATOM      7  N   UNL     1      -0.560   1.937   2.822  0.00  0.00    -0.158 NA
ATOM      8  C   UNL     1      -2.286  -0.719   4.496  0.00  0.00    +0.152 C 
BRANCH   6   9
ATOM      9  C   UNL     1      -0.280  -0.444   2.139  0.00  0.00    +0.081 C 
BRANCH   9  10
ATOM     10  C   UNL     1       0.937  -1.044   2.848  0.00  0.00    +0.019 C 
ATOM     11  C   UNL     1       1.441  -2.269   2.067  0.00  0.00    +0.028 C 
ATOM     12  C   UNL     1       2.839  -2.685   2.584  0.00  0.00    +0.166 C 
ATOM     13  S   UNL     1       3.533  -1.095   3.197  0.00  0.00    -0.031 S 
ATOM     14  O   UNL     1       3.755  -1.197   4.596  0.00  0.00    -0.174 OA
ATOM     15  O   UNL     1       4.599  -0.698   2.346  0.00  0.00    -0.174 OA
ATOM     16  C   UNL     1       2.085   0.005   2.898  0.00  0.00    +0.170 C 
ENDBRANCH   9  10
ENDBRANCH   6   9
ENDBRANCH   1   2
BRANCH   1  17
ATOM     17  N   UNL     1      -0.202   4.473   4.915  0.00  0.00    +0.395 N 
ATOM     18  H   UNL     1       0.750   4.100   4.512  0.00  0.00    -0.079 HD
BRANCH  17  19
ATOM     19  C   UNL     1      -0.093   5.931   5.056  0.00  0.00    -0.060 C 
ATOM     20  C   UNL     1      -0.413   6.598   3.717  0.00  0.00    -0.024 C 
ATOM     21  C   UNL     1       0.577   6.112   2.656  0.00  0.00    +0.005 C 
ATOM     22  C   UNL     1       2.000   6.479   3.081  0.00  0.00    -0.010 C 
ATOM     23  C   UNL     1       2.114   7.997   3.227  0.00  0.00    +0.007 C 
ATOM     24  C   UNL     1       1.124   8.483   4.288  0.00  0.00    -0.010 C 
ATOM     25  C   UNL     1      -0.300   8.117   3.863  0.00  0.00    +0.005 C 
ATOM     26  C   UNL     1       1.444   7.816   5.627  0.00  0.00    +0.005 C 
ATOM     27  C   UNL     1       1.330   6.297   5.481  0.00  0.00    -0.024 C 
ATOM     28  C   UNL     1       2.320   5.812   4.420  0.00  0.00    +0.005 C 
ENDBRANCH  17  19
BRANCH  17  30
ATOM     29  C   UNL     1       0.866   3.901   7.044  0.00  0.00    -0.017 C 
ATOM     30  C   UNL     1      -0.421   3.833   6.220  0.00  0.00    -0.079 C 
ENDBRANCH  17  30
ENDBRANCH   1  17
TORSDOF 6
