REMARK  Name = ZINC03527955
REMARK  6 active torsions:
REMARK  status: ('A' for Active; 'I' for Inactive)
REMARK    1  A    between atoms: C_1  and  C_2
REMARK    2  A    between atoms: C_4  and  C_24
REMARK    3  A    between atoms: C_6  and  S_10
REMARK    4  A    between atoms: C_7  and  C_8
REMARK    5  A    between atoms: S_10  and  C_11
REMARK    6  A    between atoms: C_11  and  C_12
REMARK                            x       y       z     vdW  Elec       q    Type
REMARK                         _______ _______ _______ _____ _____    ______ ____
ROOT
ATOM      1  C   UNL     1      -4.856   3.867   0.068  0.00  0.00    +0.131 C 
ENDROOT
BRANCH   1   2
ATOM      2  C   UNL     1      -3.559   3.099   0.051  0.00  0.00    +0.059 A 
ATOM      3  C   UNL     1      -3.574   1.718   0.045  0.00  0.00    +0.094 A 
ATOM      4  C   UNL     1      -2.357   1.028   0.030  0.00  0.00    +0.259 A 
ATOM      5  O   UNL     1      -2.336  -0.193   0.024  0.00  0.00    -0.267 OA
ATOM      6  N   UNL     1      -1.206   1.733   0.017  0.00  0.00    -0.267 N 
ATOM      7  C   UNL     1      -0.013   1.076   0.008  0.00  0.00    +0.111 A 
ATOM      8  C   UNL     1       1.154   1.761   0.001  0.00  0.00    +0.035 A 
ATOM      9  C   UNL     1       1.147   3.163   0.008  0.00  0.00    +0.020 A 
ATOM     10  C   UNL     1      -0.041   3.830   0.022  0.00  0.00    +0.048 A 
ATOM     11  C   UNL     1      -1.244   3.099   0.030  0.00  0.00    +0.141 A 
ATOM     12  N   UNL     1      -2.406   3.750   0.044  0.00  0.00    -0.233 NA
ATOM     13 BR   UNL     1       2.797   0.825  -0.019  0.00  0.00    -0.049 Br
ENDBRANCH   1   2
BRANCH   1  14
ATOM     14  S   UNL     1      -5.135   4.545   1.722  0.00  0.00    -0.098 S 
BRANCH  14  20
ATOM     15  C   UNL     1      -9.204   7.454   3.393  0.00  0.00    +0.045 C 
ATOM     16  C   UNL     1      -8.506   6.701   2.289  0.00  0.00    -0.029 A 
ATOM     17  C   UNL     1      -9.056   6.630   1.021  0.00  0.00    +0.027 A 
ATOM     18  C   UNL     1      -8.393   5.932   0.028  0.00  0.00    +0.040 A 
ATOM     19  N   UNL     1      -7.243   5.331   0.267  0.00  0.00    -0.244 NA
ATOM     20  C   UNL     1      -6.672   5.367   1.461  0.00  0.00    +0.115 A 
ATOM     21  C   UNL     1      -7.288   6.053   2.523  0.00  0.00    +0.086 A 
ATOM     22  C   UNL     1      -8.995   5.857  -1.351  0.00  0.00    +0.065 C 
BRANCH  21  23
ATOM     23  C   UNL     1      -6.679   6.090   3.818  0.00  0.00    +0.102 C 
ATOM     24  N   UNL     1      -6.195   6.120   4.846  0.00  0.00    -0.191 NA
ENDBRANCH  21  23
ENDBRANCH  14  20
ENDBRANCH   1  14
TORSDOF 4
