REMARK  Name = ZINC63177641
REMARK  5 active torsions:
REMARK  status: ('A' for Active; 'I' for Inactive)
REMARK    1  A    between atoms: C_1  and  C_2
REMARK    2  A    between atoms: C_6  and  N_14
REMARK    3  A    between atoms: C_7  and  N_11
REMARK    4  A    between atoms: N_14  and  C_15
REMARK    5  A    between atoms: C_20  and  N_22
REMARK                            x       y       z     vdW  Elec       q    Type
REMARK                         _______ _______ _______ _____ _____    ______ ____
ROOT
ATOM      1  C   UNL     1      -0.019   1.490   0.346  0.00  0.00    +0.073 C 
ATOM      2  C   UNL     1      -0.002  -0.015   0.272  0.00  0.00    +0.076 A 
ATOM      3  N   UNL     1      -0.998  -0.812   0.012  0.00  0.00    -0.244 NA
ATOM      4  C   UNL     1      -0.853  -2.153  -0.026  0.00  0.00    +0.080 A 
ATOM      5  C   UNL     1      -1.809  -3.157  -0.287  0.00  0.00    +0.054 A 
ATOM      6  C   UNL     1      -1.446  -4.485  -0.275  0.00  0.00    +0.060 A 
ATOM      7  C   UNL     1      -0.134  -4.874  -0.007  0.00  0.00    +0.148 A 
ATOM      8  C   UNL     1       0.821  -3.911   0.251  0.00  0.00    +0.051 A 
ATOM      9  C   UNL     1       0.466  -2.584   0.241  0.00  0.00    +0.041 A 
ATOM     10  S   UNL     1       1.310  -1.044   0.498  0.00  0.00    -0.072 S 
ENDROOT
BRANCH   7  11
ATOM     11  N   UNL     1       0.232  -6.309   0.000  0.00  0.00    +0.058 N 
ATOM     12  O   UNL     1      -0.540  -7.127   0.443  0.00  0.00    -0.126 OA
ATOM     13  O   UNL     1       1.303  -6.662  -0.436  0.00  0.00    -0.126 OA
ENDBRANCH   7  11
BRANCH   6  14
ATOM     14  N   UNL     1      -2.412  -5.463  -0.537  0.00  0.00    -0.341 N 
ATOM     15  H   UNL     1      -2.151  -6.395  -0.612  0.00  0.00    +0.146 HD
BRANCH  14  16
ATOM     16  C   UNL     1      -3.817  -5.081  -0.698  0.00  0.00    +0.056 C 
ATOM     17  C   UNL     1      -4.515  -5.045   0.677  0.00  0.00    +0.020 C 
ATOM     18  C   UNL     1      -5.939  -5.586   0.393  0.00  0.00    +0.000 C 
ATOM     19  C   UNL     1      -5.679  -6.703  -0.648  0.00  0.00    -0.014 C 
ATOM     20  C   UNL     1      -4.556  -6.134  -1.541  0.00  0.00    -0.055 C 
BRANCH  20  21
ATOM     21  N   UNL     1      -3.631  -7.207  -1.931  0.00  0.00    +0.381 N 
ATOM     22  H   UNL     1      -3.258  -7.647  -1.103  0.00  0.00    -0.090 HD
ATOM     23  H   UNL     1      -4.125  -7.892  -2.483  0.00  0.00    -0.090 HD
ATOM     24  H   UNL     1      -2.875  -6.818  -2.475  0.00  0.00    -0.090 HD
ENDBRANCH  20  21
ENDBRANCH  14  16
ENDBRANCH   6  14
TORSDOF 4
