REMARK  Name = ZINC07786022
REMARK  4 active torsions:
REMARK  status: ('A' for Active; 'I' for Inactive)
REMARK    1  A    between atoms: C_1  and  C_2
REMARK    2  A    between atoms: C_2  and  C_4
REMARK    3  A    between atoms: C_2  and  N_12
REMARK    4  A    between atoms: C_13  and  C_15
REMARK                            x       y       z     vdW  Elec       q    Type
REMARK                         _______ _______ _______ _____ _____    ______ ____
ROOT
ATOM      1  N   UNL     1      -0.011   0.967   0.018  0.00  0.00    -0.305 N 
ATOM      2  C   UNL     1       1.147   1.655   0.000  0.00  0.00    +0.248 C 
ATOM      3  O   UNL     1       1.132   2.869  -0.094  0.00  0.00    -0.270 OA
ATOM      4  H   UNL     1       0.001  -0.003   0.018  0.00  0.00    +0.150 HD
ENDROOT
BRANCH   2   5
ATOM      5  C   UNL     1       2.427   0.942   0.095  0.00  0.00    +0.078 C 
ATOM      6  C   UNL     1       2.462  -0.444   0.088  0.00  0.00    +0.018 C 
ATOM      7  C   UNL     1       3.698  -1.087   0.176  0.00  0.00    +0.016 C 
ATOM      8  C   UNL     1       4.843  -0.379   0.253  0.00  0.00    +0.077 C 
ATOM      9  N   UNL     1       4.871   0.988   0.246  0.00  0.00    -0.288 N 
ATOM     10  C   UNL     1       3.700   1.692   0.193  0.00  0.00    +0.159 C 
ATOM     11  N   UNL     1       3.592   2.995   0.249  0.00  0.00    -0.117 NA
ATOM     12  S   UNL     1       4.915   3.983   0.369  0.00  0.00    +0.073 S 
ATOM     13  O   UNL     1       4.536   4.999   1.287  0.00  0.00    -0.151 OA
ATOM     14  O   UNL     1       5.263   4.302  -0.972  0.00  0.00    -0.151 OA
ATOM     15  C   UNL     1       6.173   2.895   1.109  0.00  0.00    +0.212 C 
ATOM     16  C   UNL     1       6.199   1.607   0.280  0.00  0.00    +0.136 C 
ENDBRANCH   2   5
BRANCH   1  18
ATOM     17  C   UNL     1      -1.687   2.040  -1.404  0.00  0.00    +0.033 C 
ATOM     18  C   UNL     1      -1.290   1.683   0.029  0.00  0.00    +0.100 C 
BRANCH  18  19
ATOM     19  C   UNL     1      -2.351   0.805   0.641  0.00  0.00    -0.026 A 
ATOM     20  C   UNL     1      -3.293   1.352   1.493  0.00  0.00    +0.007 A 
ATOM     21  C   UNL     1      -4.267   0.549   2.055  0.00  0.00    +0.022 A 
ATOM     22  C   UNL     1      -4.300  -0.804   1.764  0.00  0.00    +0.059 A 
ATOM     23  C   UNL     1      -3.358  -1.351   0.911  0.00  0.00    +0.060 A 
ATOM     24  C   UNL     1      -2.387  -0.544   0.345  0.00  0.00    +0.027 A 
ATOM     25 CL   UNL     1      -3.399  -3.048   0.545  0.00  0.00    -0.082 Cl
ATOM     26 CL   UNL     1      -5.524  -1.813   2.470  0.00  0.00    -0.082 Cl
ENDBRANCH  18  19
ENDBRANCH   1  18
TORSDOF 3
