REMARK  Name = ZINC14471717
REMARK  4 active torsions:
REMARK  status: ('A' for Active; 'I' for Inactive)
REMARK    1  A    between atoms: C_3  and  C_10
REMARK    2  A    between atoms: C_5  and  N_7
REMARK    3  A    between atoms: C_21  and  S_26
REMARK    4  A    between atoms: S_26  and  N_29
REMARK                            x       y       z     vdW  Elec       q    Type
REMARK                         _______ _______ _______ _____ _____    ______ ____
ROOT
ATOM      1  C   UNL     1      -0.018   1.462   0.010  0.00  0.00    +0.105 C 
ATOM      2  C   UNL     1       1.275   2.260   0.203  0.00  0.00    +0.029 C 
ATOM      3  C   UNL     1       0.921   3.767   0.032  0.00  0.00    +0.033 C 
ATOM      4  C   UNL     1       0.928   3.960  -1.473  0.00  0.00    -0.030 C 
ATOM      5  C   UNL     1       1.638   3.023  -2.052  0.00  0.00    -0.023 C 
ATOM      6  C   UNL     1       2.196   2.074  -1.018  0.00  0.00    +0.049 C 
ATOM      7  C   UNL     1       2.217   0.666  -1.524  0.00  0.00    -0.018 A 
ATOM      8  C   UNL     1       3.186   0.307  -2.452  0.00  0.00    +0.034 A 
ATOM      9  C   UNL     1       3.243  -0.982  -2.942  0.00  0.00    +0.106 A 
ATOM     10  C   UNL     1       2.334  -1.933  -2.513  0.00  0.00    +0.030 A 
ATOM     11  C   UNL     1       1.367  -1.587  -1.591  0.00  0.00    +0.025 A 
ATOM     12  C   UNL     1       1.308  -0.289  -1.098  0.00  0.00    +0.031 A 
ATOM     13  N   UNL     1       0.320   0.046  -0.166  0.00  0.00    -0.336 N 
ATOM     14  H   UNL     1      -0.131  -0.641   0.350  0.00  0.00    +0.147 HD
ENDROOT
BRANCH   1  17
ATOM     15  C   UNL     1      -2.338   3.439  -2.217  0.00  0.00    +0.003 A 
ATOM     16  C   UNL     1      -1.677   2.976  -1.095  0.00  0.00    +0.005 A 
ATOM     17  C   UNL     1      -0.743   1.964  -1.212  0.00  0.00    -0.025 A 
ATOM     18  C   UNL     1      -0.477   1.408  -2.450  0.00  0.00    +0.038 A 
ATOM     19  C   UNL     1      -1.142   1.868  -3.571  0.00  0.00    +0.127 A 
ATOM     20  C   UNL     1      -2.073   2.884  -3.455  0.00  0.00    +0.033 A 
BRANCH  19  21
ATOM     21  N   UNL     1      -0.857   1.274  -4.896  0.00  0.00    +0.056 N 
ATOM     22  O   UNL     1      -0.037   0.379  -4.999  0.00  0.00    -0.126 OA
ATOM     23  O   UNL     1      -1.443   1.679  -5.884  0.00  0.00    -0.126 OA
ENDBRANCH  19  21
ENDBRANCH   1  17
BRANCH   9  24
ATOM     24  S   UNL     1       4.479  -1.418  -4.120  0.00  0.00    +0.061 S 
ATOM     25  O   UNL     1       3.982  -2.542  -4.833  0.00  0.00    -0.153 OA
ATOM     26  O   UNL     1       4.864  -0.214  -4.768  0.00  0.00    -0.153 OA
BRANCH  24  27
ATOM     27  N   UNL     1       5.801  -1.943  -3.271  0.00  0.00    -0.177 NA
ATOM     28  C   UNL     1       6.849  -0.999  -2.860  0.00  0.00    +0.109 C 
ATOM     29  C   UNL     1       7.065  -1.138  -1.345  0.00  0.00    +0.017 C 
ATOM     30  C   UNL     1       7.369  -2.600  -1.011  0.00  0.00    +0.003 C 
ATOM     31  C   UNL     1       6.178  -3.475  -1.409  0.00  0.00    +0.017 C 
ATOM     32  C   UNL     1       5.950  -3.362  -2.920  0.00  0.00    +0.109 C 
ENDBRANCH  24  27
ENDBRANCH   9  24
TORSDOF 4
