REMARK  Name = ZINC28288971
REMARK  7 active torsions:
REMARK  status: ('A' for Active; 'I' for Inactive)
REMARK    1  A    between atoms: C_1  and  C_2
REMARK    2  A    between atoms: C_2  and  C_3
REMARK    3  A    between atoms: C_12  and  C_14
REMARK    4  A    between atoms: N_16  and  C_17
REMARK    5  A    between atoms: C_17  and  C_18
REMARK    6  A    between atoms: C_18  and  C_20
REMARK    7  A    between atoms: C_18  and  N_25
REMARK                            x       y       z     vdW  Elec       q    Type
REMARK                         _______ _______ _______ _____ _____    ______ ____
ROOT
ATOM      1  C   UNL     1      -2.493  -2.348  -0.601  0.00  0.00    +0.279 C 
ATOM      2  O   UNL     1      -2.463  -3.552  -0.759  0.00  0.00    -0.267 OA
ATOM      3  N   UNL     1      -3.647  -1.742  -0.259  0.00  0.00    -0.310 N 
ATOM      4  H   UNL     1      -3.674  -0.651  -0.116  0.00  0.00    +0.149 HD
ENDROOT
BRANCH   1  14
ATOM      5  C   UNL     1       1.949   2.258  -1.049  0.00  0.00    -0.047 A 
ATOM      6  C   UNL     1       0.714   2.786  -0.698  0.00  0.00    +0.007 A 
ATOM      7  C   UNL     1      -0.385   1.968  -0.547  0.00  0.00    +0.047 A 
ATOM      8  C   UNL     1      -0.260   0.597  -0.748  0.00  0.00    +0.139 A 
ATOM      9  C   UNL     1       0.993   0.070  -1.103  0.00  0.00    +0.064 A 
ATOM     10  C   UNL     1       2.094   0.914  -1.251  0.00  0.00    +0.019 A 
ATOM     11  C   UNL     1       1.109  -1.386  -1.312  0.00  0.00    +0.193 A 
ATOM     12  O   UNL     1       2.167  -1.905  -1.621  0.00  0.00    -0.287 OA
ATOM     13  C   UNL     1      -0.115  -2.181  -1.129  0.00  0.00    +0.103 A 
ATOM     14  C   UNL     1      -1.260  -1.545  -0.785  0.00  0.00    +0.193 A 
ATOM     15  O   UNL     1      -1.323  -0.218  -0.604  0.00  0.00    -0.450 OA
BRANCH   5  17
ATOM     16  C   UNL     1       3.217   3.657  -2.656  0.00  0.00    +0.009 C 
ATOM     17  C   UNL     1       3.137   3.172  -1.207  0.00  0.00    +0.032 C 
ENDBRANCH   5  17
ENDBRANCH   1  14
BRANCH   3  18
ATOM     18  C   UNL     1      -4.865  -2.535  -0.077  0.00  0.00    +0.094 C 
BRANCH  18  19
ATOM     19  C   UNL     1      -6.049  -1.600   0.177  0.00  0.00    -0.013 C 
BRANCH  19  20
ATOM     20  N   UNL     1      -5.737  -0.709   1.302  0.00  0.00    +0.386 N 
ATOM     21  C   UNL     1      -5.423  -1.479   2.513  0.00  0.00    -0.078 C 
ATOM     22  C   UNL     1      -4.963  -0.527   3.619  0.00  0.00    -0.019 C 
ATOM     23  C   UNL     1      -6.074   0.486   3.909  0.00  0.00    -0.004 C 
ATOM     24  C   UNL     1      -6.414   1.241   2.621  0.00  0.00    -0.019 C 
ATOM     25  C   UNL     1      -6.833   0.238   1.544  0.00  0.00    -0.078 C 
ATOM     26  H   UNL     1      -4.843  -0.126   1.035  0.00  0.00    -0.081 HD
ENDBRANCH  19  20
BRANCH  19  27
ATOM     27  C   UNL     1      -6.314  -0.778  -1.057  0.00  0.00    -0.022 A 
ATOM     28  C   UNL     1      -7.253  -0.958  -2.018  0.00  0.00    +0.009 A 
ATOM     29  C   UNL     1      -7.312  -0.067  -3.073  0.00  0.00    +0.008 A 
ATOM     30  C   UNL     1      -6.430   0.961  -3.116  0.00  0.00    +0.045 A 
ATOM     31  S   UNL     1      -5.477   0.692  -1.630  0.00  0.00    -0.103 S 
ENDBRANCH  19  27
ENDBRANCH  18  19
ENDBRANCH   3  18
TORSDOF 6
