REMARK  Name = ZINC32654994
REMARK  10 active torsions:
REMARK  status: ('A' for Active; 'I' for Inactive)
REMARK    1  A    between atoms: C_1  and  C_2
REMARK    2  A    between atoms: C_2  and  C_4
REMARK    3  A    between atoms: C_6  and  C_18
REMARK    4  A    between atoms: C_12  and  C_13
REMARK    5  A    between atoms: C_12  and  O_17
REMARK    6  A    between atoms: C_21  and  O_32
REMARK    7  A    between atoms: C_22  and  O_24
REMARK    8  A    between atoms: O_24  and  C_25
REMARK    9  A    between atoms: C_25  and  C_26
REMARK   10  A    between atoms: O_32  and  C_33
REMARK                            x       y       z     vdW  Elec       q    Type
REMARK                         _______ _______ _______ _____ _____    ______ ____
ROOT
ATOM      1  C   UNL     1      -1.284   3.171   0.556  0.00  0.00    +0.139 C 
ATOM      2  C   UNL     1      -1.798   1.879  -0.093  0.00  0.00    +0.120 C 
ATOM      3  N   UNL     1      -0.813   0.817   0.113  0.00  0.00    -0.292 N 
ATOM      4  C   UNL     1       0.495   1.090   0.224  0.00  0.00    +0.302 C 
ATOM      5  O   UNL     1       1.273   0.169   0.380  0.00  0.00    -0.253 OA
ATOM      6  N   UNL     1       0.980   2.340   0.170  0.00  0.00    -0.264 N 
ATOM      7  C   UNL     1       0.097   3.491  -0.027  0.00  0.00    +0.243 C 
ATOM      8  H   UNL     1      -1.141  -0.232   0.180  0.00  0.00    +0.151 HD
ATOM      9  H   UNL     1       2.064   2.491   0.278  0.00  0.00    +0.153 HD
ENDROOT
BRANCH   2  10
ATOM     10  C   UNL     1      -3.106   1.484   0.542  0.00  0.00    -0.023 A 
ATOM     11  C   UNL     1      -3.110   0.742   1.709  0.00  0.00    +0.009 A 
ATOM     12  C   UNL     1      -4.307   0.377   2.295  0.00  0.00    +0.050 A 
ATOM     13  C   UNL     1      -5.507   0.754   1.714  0.00  0.00    +0.162 A 
ATOM     14  C   UNL     1      -5.503   1.501   0.539  0.00  0.00    +0.163 A 
ATOM     15  C   UNL     1      -4.300   1.868  -0.041  0.00  0.00    +0.055 A 
BRANCH  13  16
ATOM     16  O   UNL     1      -6.686   0.396   2.290  0.00  0.00    -0.491 OA
ATOM     17  C   UNL     1      -6.613  -0.370   3.494  0.00  0.00    +0.277 C 
ENDBRANCH  13  16
BRANCH  14  18
ATOM     18  O   UNL     1      -6.678   1.873  -0.035  0.00  0.00    -0.484 OA
BRANCH  18  19
ATOM     19  C   UNL     1      -6.598   2.639  -1.239  0.00  0.00    +0.264 C 
BRANCH  19  20
ATOM     20  C   UNL     1      -7.988   2.957  -1.726  0.00  0.00    -0.010 A 
ATOM     21  C   UNL     1      -8.630   2.095  -2.596  0.00  0.00    +0.007 A 
ATOM     22  C   UNL     1      -9.907   2.385  -3.039  0.00  0.00    +0.000 A 
ATOM     23  C   UNL     1     -10.538   3.541  -2.620  0.00  0.00    +0.000 A 
ATOM     24  C   UNL     1      -9.895   4.405  -1.754  0.00  0.00    +0.000 A 
ATOM     25  C   UNL     1      -8.619   4.113  -1.307  0.00  0.00    +0.007 A 
ENDBRANCH  19  20
ENDBRANCH  18  19
ENDBRANCH  14  18
ENDBRANCH   2  10
BRANCH   7  26
ATOM     26  C   UNL     1       0.682   4.712   0.684  0.00  0.00    +0.436 C 
ATOM     27  F   UNL     1       1.885   5.078   0.069  0.00  0.00    -0.166 F 
ATOM     28  F   UNL     1      -0.223   5.776   0.606  0.00  0.00    -0.166 F 
ATOM     29  F   UNL     1       0.921   4.400   2.026  0.00  0.00    -0.166 F 
ENDBRANCH   7  26
BRANCH   1  31
ATOM     30  C   UNL     1      -2.224   3.567   2.959  0.00  0.00    +0.086 C 
ATOM     31  C   UNL     1      -1.172   2.988   2.048  0.00  0.00    +0.140 C 
ATOM     32  O   UNL     1      -0.240   2.376   2.513  0.00  0.00    -0.297 OA
ENDBRANCH   1  31
BRANCH   7  33
ATOM     33  O   UNL     1      -0.027   3.763  -1.424  0.00  0.00    -0.364 OA
ATOM     34  H   UNL     1       0.865   4.014  -2.017  0.00  0.00    +0.212 HD
ENDBRANCH   7  33
TORSDOF 8
