REMARK  Name = ZINC19911603
REMARK  6 active torsions:
REMARK  status: ('A' for Active; 'I' for Inactive)
REMARK    1  A    between atoms: C_1  and  C_2
REMARK    2  A    between atoms: C_3  and  C_19
REMARK    3  A    between atoms: C_12  and  C_13
REMARK    4  A    between atoms: C_13  and  N_14
REMARK    5  A    between atoms: N_14  and  C_15
REMARK    6  A    between atoms: N_14  and  C_16
REMARK                            x       y       z     vdW  Elec       q    Type
REMARK                         _______ _______ _______ _____ _____    ______ ____
ROOT
ATOM      1  C   UNL     1       0.002  -0.004   0.002  0.00  0.00    +0.045 C 
ATOM      2  C   UNL     1      -0.018   1.503   0.010  0.00  0.00    -0.030 A 
ATOM      3  C   UNL     1      -1.193   2.184   0.019  0.00  0.00    +0.037 A 
ATOM      4  C   UNL     1      -1.186   3.595   0.032  0.00  0.00    +0.340 A 
ATOM      5  O   UNL     1      -2.247   4.193   0.045  0.00  0.00    -0.245 OA
ATOM      6  O   UNL     1      -0.041   4.294   0.025  0.00  0.00    -0.422 OA
ATOM      7  C   UNL     1       1.161   3.678   0.011  0.00  0.00    +0.144 A 
ATOM      8  C   UNL     1       1.228   2.272   0.003  0.00  0.00    +0.023 A 
ATOM      9  C   UNL     1       2.471   1.629  -0.013  0.00  0.00    +0.035 A 
ATOM     10  C   UNL     1       3.618   2.371  -0.021  0.00  0.00    +0.089 A 
ATOM     11  C   UNL     1       3.558   3.764  -0.013  0.00  0.00    +0.202 A 
ATOM     12  C   UNL     1       2.335   4.415   0.003  0.00  0.00    +0.027 A 
ATOM     13  O   UNL     1       4.706   4.488  -0.021  0.00  0.00    -0.286 OA
ATOM     14 CL   UNL     1       5.160   1.575  -0.040  0.00  0.00    -0.080 Cl
ATOM     15  C   UNL     1      -2.501   1.436   0.021  0.00  0.00    +0.051 C 
ENDROOT
BRANCH  12  16
ATOM     16  C   UNL     1       2.281   5.921   0.012  0.00  0.00    -0.036 C 
BRANCH  16  17
ATOM     17  N   UNL     1       2.250   6.418  -1.370  0.00  0.00    +0.379 N 
ATOM     18  C   UNL     1       1.960   7.858  -1.406  0.00  0.00    -0.096 C 
ATOM     19  C   UNL     1       3.508   6.118  -2.066  0.00  0.00    -0.096 C 
ATOM     20  H   UNL     1       1.438   5.897  -1.899  0.00  0.00    -0.082 HD
ENDBRANCH  16  17
ENDBRANCH  12  16
TORSDOF 2
