REMARK  Name = ZINC38769556
REMARK  6 active torsions:
REMARK  status: ('A' for Active; 'I' for Inactive)
REMARK    1  A    between atoms: C_1  and  C_2
REMARK    2  A    between atoms: C_6  and  C_8
REMARK    3  A    between atoms: C_9  and  C_10
REMARK    4  A    between atoms: N_12  and  C_16
REMARK    5  A    between atoms: C_16  and  N_17
REMARK    6  A    between atoms: N_27  and  C_32
REMARK                            x       y       z     vdW  Elec       q    Type
REMARK                         _______ _______ _______ _____ _____    ______ ____
ROOT
ATOM      1  N   UNL     1       2.545  -7.617   4.984  0.00  0.00    +0.395 N 
ATOM      2  C   UNL     1       1.456  -7.487   4.008  0.00  0.00    -0.057 C 
ATOM      3  C   UNL     1       1.669  -8.492   2.870  0.00  0.00    +0.088 C 
ATOM      4  N   UNL     1       1.804  -9.835   3.454  0.00  0.00    -0.318 N 
ATOM      5  C   UNL     1       2.761 -10.020   4.556  0.00  0.00    +0.088 C 
ATOM      6  C   UNL     1       2.497  -8.943   5.614  0.00  0.00    -0.057 C 
ATOM      7  C   UNL     1       1.053 -10.894   2.981  0.00  0.00    +0.135 A 
ATOM      8  C   UNL     1       1.532 -11.708   1.936  0.00  0.00    +0.078 A 
ATOM      9  C   UNL     1       2.707 -11.732   1.155  0.00  0.00    +0.148 A 
ATOM     10  N   UNL     1       2.623 -12.723   0.314  0.00  0.00    -0.177 NA
ATOM     11  N   UNL     1       1.407 -13.392   0.493  0.00  0.00    -0.249 N 
ATOM     12  C   UNL     1       0.722 -12.773   1.496  0.00  0.00    +0.163 A 
ATOM     13  N   UNL     1      -0.459 -12.967   2.082  0.00  0.00    -0.216 NA
ATOM     14  C   UNL     1      -0.863 -12.180   3.055  0.00  0.00    +0.225 A 
ATOM     15  N   UNL     1      -0.135 -11.173   3.505  0.00  0.00    -0.220 NA
ATOM     16  C   UNL     1       0.948 -14.558  -0.267  0.00  0.00    +0.174 C 
ATOM     17  H   UNL     1       3.431  -7.502   4.514  0.00  0.00    -0.079 HD
ENDROOT
BRANCH   1  18
ATOM     18  C   UNL     1       2.401  -6.581   6.016  0.00  0.00    +0.072 C 
BRANCH  18  21
ATOM     19  C   UNL     1       2.146  -3.442   4.255  0.00  0.00    +0.153 A 
ATOM     20  N   UNL     1       1.631  -4.592   4.607  0.00  0.00    -0.153 NA
ATOM     21  N   UNL     1       2.569  -5.259   5.407  0.00  0.00    -0.257 N 
ATOM     22  C   UNL     1       3.652  -4.464   5.515  0.00  0.00    +0.174 A 
ATOM     23  S   UNL     1       5.081  -4.818   6.389  0.00  0.00    -0.012 S 
ATOM     24  N   UNL     1       3.411  -3.343   4.808  0.00  0.00    -0.318 N 
ATOM     25  H   UNL     1       4.019  -2.594   4.705  0.00  0.00    +0.169 HD
BRANCH  19  27
ATOM     26  C   UNL     1       0.254  -2.651   2.936  0.00  0.00    +0.049 C 
ATOM     27  C   UNL     1       1.496  -2.432   3.414  0.00  0.00    +0.051 C 
BRANCH  26  32
ATOM     28  C   UNL     1      -0.576   1.611   0.704  0.00  0.00    +0.052 C 
ATOM     29  C   UNL     1      -0.512   0.085   0.619  0.00  0.00    +0.174 C 
ATOM     30  C   UNL     1      -1.921  -0.536   0.771  0.00  0.00    +0.075 C 
ATOM     31  C   UNL     1      -1.625  -1.785   1.584  0.00  0.00    +0.022 C 
ATOM     32  C   UNL     1      -0.397  -1.640   2.094  0.00  0.00    +0.117 C 
ATOM     33  O   UNL     1       0.185  -0.464   1.753  0.00  0.00    -0.489 OA
ENDBRANCH  26  32
ENDBRANCH  19  27
ENDBRANCH  18  21
ENDBRANCH   1  18
TORSDOF 4
