REMARK  Name = ZINC57986562
REMARK  4 active torsions:
REMARK  status: ('A' for Active; 'I' for Inactive)
REMARK    1  A    between atoms: C_4  and  N_22
REMARK    2  A    between atoms: C_5  and  C_7
REMARK    3  A    between atoms: C_7  and  C_8
REMARK    4  A    between atoms: C_14  and  C_16
REMARK                            x       y       z     vdW  Elec       q    Type
REMARK                         _______ _______ _______ _____ _____    ______ ____
ROOT
ATOM      1  C   UNL     1       1.600  -2.674   1.393  0.00  0.00    +0.220 C 
ATOM      2  O   UNL     1       1.493  -1.899   2.320  0.00  0.00    -0.275 OA
ATOM      3  N   UNL     1       1.763  -3.990   1.630  0.00  0.00    -0.293 N 
ATOM      4  C   UNL     1       1.911  -5.037   0.601  0.00  0.00    +0.108 C 
ATOM      5  C   UNL     1       1.450  -6.343   1.295  0.00  0.00    +0.021 C 
ATOM      6  C   UNL     1       1.992  -6.139   2.734  0.00  0.00    +0.030 C 
ATOM      7  C   UNL     1       1.829  -4.621   2.956  0.00  0.00    +0.123 C 
ENDROOT
BRANCH   7   8
ATOM      8  C   UNL     1       3.010  -4.082   3.721  0.00  0.00    +0.037 A 
ATOM      9  C   UNL     1       4.199  -3.727   3.193  0.00  0.00    +0.024 A 
ATOM     10  C   UNL     1       5.013  -3.279   4.252  0.00  0.00    +0.019 A 
ATOM     11  C   UNL     1       4.292  -3.378   5.387  0.00  0.00    +0.083 A 
ATOM     12  N   UNL     1       3.059  -3.865   5.067  0.00  0.00    -0.363 N 
ATOM     13  H   UNL     1       2.337  -4.032   5.693  0.00  0.00    +0.165 HD
ENDBRANCH   7   8
BRANCH   1  14
ATOM     14  C   UNL     1       1.550  -2.163  -0.024  0.00  0.00    +0.133 C 
BRANCH  14  19
ATOM     15  C   UNL     1      -0.063   1.244  -0.226  0.00  0.00    +0.000 A 
ATOM     16  C   UNL     1       1.018   2.075   0.004  0.00  0.00    +0.002 A 
ATOM     17  C   UNL     1       2.271   1.534   0.224  0.00  0.00    +0.033 A 
ATOM     18  C   UNL     1       2.443   0.162   0.215  0.00  0.00    +0.130 A 
ATOM     19  C   UNL     1       1.362  -0.668  -0.014  0.00  0.00    -0.008 A 
ATOM     20  C   UNL     1       0.109  -0.127  -0.235  0.00  0.00    +0.006 A 
BRANCH  18  21
ATOM     21  N   UNL     1       3.785  -0.417   0.450  0.00  0.00    +0.057 N 
ATOM     22  O   UNL     1       4.747   0.308   0.546  0.00  0.00    -0.126 OA
ATOM     23  O   UNL     1       3.918  -1.615   0.546  0.00  0.00    -0.126 OA
ENDBRANCH  18  21
ENDBRANCH  14  19
ENDBRANCH   1  14
TORSDOF 4
