REMARK  Name = ZINC66667031
REMARK  10 active torsions:
REMARK  status: ('A' for Active; 'I' for Inactive)
REMARK    1  A    between atoms: C_1  and  C_2
REMARK    2  A    between atoms: C_7  and  N_8
REMARK    3  A    between atoms: C_14  and  C_17
REMARK    4  A    between atoms: C_14  and  N_18
REMARK    5  A    between atoms: N_18  and  C_19
REMARK    6  A    between atoms: C_20  and  O_22
REMARK    7  A    between atoms: O_22  and  C_23
REMARK    8  A    between atoms: C_23  and  C_24
REMARK    9  A    between atoms: C_23  and  C_25
REMARK   10  A    between atoms: C_23  and  C_26
REMARK                            x       y       z     vdW  Elec       q    Type
REMARK                         _______ _______ _______ _____ _____    ______ ____
ROOT
ATOM      1  N   UNL     1      -0.176   0.433   2.292  0.00  0.00    -0.269 N 
ATOM      2  C   UNL     1      -0.168  -0.343   3.394  0.00  0.00    +0.306 C 
ATOM      3  O   UNL     1      -0.100  -1.552   3.286  0.00  0.00    -0.252 OA
ATOM      4  N   UNL     1      -0.235   0.222   4.616  0.00  0.00    -0.285 N 
ATOM      5  C   UNL     1      -0.431   1.671   4.761  0.00  0.00    +0.111 C 
ATOM      6  C   UNL     1      -1.635   1.916   5.676  0.00  0.00    +0.045 C 
ATOM      7  C   UNL     1      -1.425   1.174   6.998  0.00  0.00    +0.040 C 
ATOM      8  C   UNL     1      -1.319  -0.329   6.731  0.00  0.00    +0.045 C 
ATOM      9  C   UNL     1      -0.118  -0.600   5.828  0.00  0.00    +0.111 C 
ATOM     10  C   UNL     1      -2.609   1.445   7.928  0.00  0.00    +0.032 C 
ATOM     11  H   UNL     1      -0.173   1.399   2.378  0.00  0.00    +0.156 HD
ENDROOT
BRANCH   1  18
ATOM     12  C   UNL     1      -0.677   2.101   0.042  0.00  0.00    +0.046 C 
ATOM     13  C   UNL     1      -0.430   0.622  -0.103  0.00  0.00    -0.028 A 
ATOM     14  C   UNL     1      -0.437   0.039  -1.356  0.00  0.00    +0.025 A 
ATOM     15  C   UNL     1      -0.211  -1.319  -1.490  0.00  0.00    +0.041 A 
ATOM     16  C   UNL     1       0.023  -2.098  -0.370  0.00  0.00    +0.022 A 
ATOM     17  C   UNL     1       0.031  -1.520   0.885  0.00  0.00    +0.025 A 
ATOM     18  C   UNL     1      -0.190  -0.156   1.021  0.00  0.00    +0.038 A 
ATOM     19 CL   UNL     1      -0.220  -2.048  -3.065  0.00  0.00    -0.084 Cl
ENDBRANCH   1  18
BRANCH   7  20
ATOM     20  N   UNL     1      -0.191   1.645   7.631  0.00  0.00    -0.265 N 
ATOM     21  C   UNL     1       0.789   0.679   8.136  0.00  0.00    +0.136 C 
ATOM     22  C   UNL     1       0.044   2.967   7.749  0.00  0.00    +0.404 C 
ATOM     23  O   UNL     1      -0.768   3.768   7.331  0.00  0.00    -0.226 OA
BRANCH  22  24
ATOM     24  O   UNL     1       1.179   3.400   8.331  0.00  0.00    -0.445 OA
BRANCH  24  25
ATOM     25  C   UNL     1       1.362   4.814   8.422  0.00  0.00    +0.107 C 
ATOM     26  C   UNL     1       0.222   5.425   9.240  0.00  0.00    +0.055 C 
ATOM     27  C   UNL     1       2.698   5.112   9.107  0.00  0.00    +0.055 C 
ATOM     28  C   UNL     1       1.363   5.420   7.018  0.00  0.00    +0.055 C 
ENDBRANCH  24  25
ENDBRANCH  22  24
ENDBRANCH   7  20
TORSDOF 4
