REMARK  Name = ZINC03593369
REMARK  8 active torsions:
REMARK  status: ('A' for Active; 'I' for Inactive)
REMARK    1  A    between atoms: C_1  and  C_2
REMARK    2  A    between atoms: C_2  and  N_3
REMARK    3  A    between atoms: N_5  and  C_29
REMARK    4  A    between atoms: C_13  and  C_14
REMARK    5  A    between atoms: C_13  and  N_68
REMARK    6  A    between atoms: C_14  and  C_16
REMARK    7  A    between atoms: C_14  and  C_22
REMARK    8  A    between atoms: C_16  and  C_17
REMARK                            x       y       z     vdW  Elec       q    Type
REMARK                         _______ _______ _______ _____ _____    ______ ____
ROOT
ATOM      1  N   UNL     1       1.806   4.365   1.376  0.00  0.00    -0.284 N 
ATOM      2  C   UNL     1       1.665   5.219   0.190  0.00  0.00    +0.217 C 
ATOM      3  N   UNL     1       0.418   4.788  -0.483  0.00  0.00    -0.300 N 
ATOM      4  C   UNL     1       0.285   3.375  -0.069  0.00  0.00    +0.109 C 
ATOM      5  C   UNL     1       1.019   3.276   1.246  0.00  0.00    +0.240 C 
ATOM      6  O   UNL     1       0.917   2.373   2.050  0.00  0.00    -0.273 OA
ATOM      7  C   UNL     1       0.928   2.461  -1.108  0.00  0.00    +0.017 C 
ATOM      8  C   UNL     1       0.742   1.002  -0.683  0.00  0.00    -0.076 C 
ATOM      9  C   UNL     1      -1.305   1.540   0.499  0.00  0.00    -0.076 C 
ATOM     10  C   UNL     1      -1.187   3.018   0.113  0.00  0.00    +0.017 C 
ATOM     11  N   UNL     1      -0.705   0.717  -0.572  0.00  0.00    +0.380 N 
ATOM     12  H   UNL     1      -1.158   0.948  -1.464  0.00  0.00    -0.082 HD
ENDROOT
BRANCH   3  13
ATOM     13  C   UNL     1       0.536   4.893  -1.871  0.00  0.00    +0.032 A 
ATOM     14  C   UNL     1       1.630   5.541  -2.429  0.00  0.00    +0.023 A 
ATOM     15  C   UNL     1       1.746   5.639  -3.802  0.00  0.00    +0.002 A 
ATOM     16  C   UNL     1       0.769   5.103  -4.620  0.00  0.00    +0.000 A 
ATOM     17  C   UNL     1      -0.324   4.461  -4.067  0.00  0.00    +0.002 A 
ATOM     18  C   UNL     1      -0.444   4.355  -2.696  0.00  0.00    +0.023 A 
ENDBRANCH   3  13
BRANCH   1  20
ATOM     19  C   UNL     1       4.053   4.041   2.287  0.00  0.00    +0.024 C 
ATOM     20  C   UNL     1       2.670   4.650   2.525  0.00  0.00    +0.106 C 
ENDBRANCH   1  20
BRANCH  11  21
ATOM     21  C   UNL     1      -0.916  -0.717  -0.284  0.00  0.00    -0.071 C 
BRANCH  21  22
ATOM     22  C   UNL     1      -2.410  -0.967  -0.069  0.00  0.00    +0.007 C 
BRANCH  22  23
ATOM     23  C   UNL     1      -3.167  -0.584  -1.315  0.00  0.00    -0.046 A 
ATOM     24  C   UNL     1      -2.887  -1.212  -2.514  0.00  0.00    +0.006 A 
ATOM     25  C   UNL     1      -3.584  -0.865  -3.656  0.00  0.00    +0.038 A 
ATOM     26  C   UNL     1      -4.556   0.120  -3.600  0.00  0.00    +0.123 A 
ATOM     27  C   UNL     1      -4.832   0.752  -2.399  0.00  0.00    +0.038 A 
ATOM     28  C   UNL     1      -4.138   0.399  -1.258  0.00  0.00    +0.006 A 
ATOM     29  F   UNL     1      -5.235   0.463  -4.716  0.00  0.00    -0.205 F 
ENDBRANCH  22  23
BRANCH  22  30
ATOM     30  C   UNL     1      -2.641  -2.449   0.232  0.00  0.00    +0.067 C 
BRANCH  30  31
ATOM     31  C   UNL     1      -2.024  -2.796   1.589  0.00  0.00    +0.251 C 
ATOM     32  O   UNL     1      -0.592  -2.695   1.508  0.00  0.00    -0.349 OA
ATOM     33  C   UNL     1      -0.098  -3.758   2.359  0.00  0.00    +0.191 C 
ATOM     34  C   UNL     1      -1.143  -4.874   2.107  0.00  0.00    +0.191 C 
ATOM     35  O   UNL     1      -2.373  -4.139   1.948  0.00  0.00    -0.349 OA
ENDBRANCH  30  31
ENDBRANCH  22  30
ENDBRANCH  21  22
ENDBRANCH  11  21
TORSDOF 7
