REMARK  Name = ZINC32978078
REMARK  5 active torsions:
REMARK  status: ('A' for Active; 'I' for Inactive)
REMARK    1  A    between atoms: C_1  and  C_2
REMARK    2  A    between atoms: C_5  and  N_9
REMARK    3  A    between atoms: N_9  and  N_10
REMARK    4  A    between atoms: C_11  and  C_13
REMARK    5  A    between atoms: N_17  and  C_18
REMARK                            x       y       z     vdW  Elec       q    Type
REMARK                         _______ _______ _______ _____ _____    ______ ____
ROOT
ATOM      1  N   UNL     1       2.224   1.662   1.678  0.00  0.00    -0.231 N 
ATOM      2  C   UNL     1       1.349   1.903   2.675  0.00  0.00    +0.277 C 
ATOM      3  O   UNL     1       1.754   2.107   3.804  0.00  0.00    -0.267 OA
ATOM      4  H   UNL     1       1.865   1.561   0.643  0.00  0.00    +0.173 HD
ENDROOT
BRANCH   2   5
ATOM      5  C   UNL     1      -0.090   1.919   2.398  0.00  0.00    +0.108 A 
ATOM      6  C   UNL     1      -0.693   1.611   1.196  0.00  0.00    +0.054 A 
ATOM      7  C   UNL     1      -2.071   1.755   1.378  0.00  0.00    +0.078 A 
ATOM      8  C   UNL     1      -2.284   2.135   2.663  0.00  0.00    +0.128 A 
ATOM      9  N   UNL     1      -1.087   2.244   3.292  0.00  0.00    -0.329 N 
ATOM     10  C   UNL     1      -0.888   2.634   4.690  0.00  0.00    +0.150 C 
ATOM     11 CL   UNL     1      -3.835   2.437   3.384  0.00  0.00    -0.062 Cl
ATOM     12 CL   UNL     1      -3.294   1.488   0.175  0.00  0.00    -0.080 Cl
ENDBRANCH   2   5
BRANCH   1  13
ATOM     13  N   UNL     1       3.591   1.541   1.960  0.00  0.00    -0.264 N 
ATOM     14  H   UNL     1       3.950   1.642   2.995  0.00  0.00    +0.170 HD
BRANCH  13  19
ATOM     15  C   UNL     1       7.271   0.529  -2.235  0.00  0.00    +0.045 C 
ATOM     16  C   UNL     1       6.293   0.797  -1.120  0.00  0.00    -0.032 A 
ATOM     17  C   UNL     1       4.944   0.917  -1.399  0.00  0.00    +0.006 A 
ATOM     18  C   UNL     1       4.045   1.158  -0.379  0.00  0.00    +0.025 A 
ATOM     19  C   UNL     1       4.498   1.292   0.927  0.00  0.00    +0.046 A 
ATOM     20  C   UNL     1       5.853   1.171   1.205  0.00  0.00    +0.044 A 
ATOM     21  C   UNL     1       6.747   0.924   0.181  0.00  0.00    +0.046 A 
ATOM     22 CL   UNL     1       8.442   0.773   0.526  0.00  0.00    -0.083 Cl
ENDBRANCH  13  19
ENDBRANCH   1  13
TORSDOF 3
