REMARK  Name = ZINC41430017
REMARK  4 active torsions:
REMARK  status: ('A' for Active; 'I' for Inactive)
REMARK    1  A    between atoms: C_1  and  C_2
REMARK    2  A    between atoms: C_3  and  O_14
REMARK    3  A    between atoms: O_14  and  C_15
REMARK    4  A    between atoms: C_15  and  C_17
REMARK                            x       y       z     vdW  Elec       q    Type
REMARK                         _______ _______ _______ _____ _____    ______ ____
ROOT
ATOM      1  C   UNL     1      -0.168   1.519  -0.005  0.00  0.00    +0.051 C 
ATOM      2  C   UNL     1      -0.072   0.015   0.001  0.00  0.00    +0.035 A 
ATOM      3  C   UNL     1       0.004  -0.682  -1.193  0.00  0.00    +0.138 A 
ATOM      4  C   UNL     1       0.093  -2.072  -1.198  0.00  0.00    +0.047 A 
ATOM      5  C   UNL     1       0.106  -2.768  -0.022  0.00  0.00    +0.019 A 
ATOM      6  C   UNL     1       0.031  -2.080   1.189  0.00  0.00    +0.066 A 
ATOM      7  C   UNL     1      -0.054  -0.677   1.204  0.00  0.00    +0.145 A 
ATOM      8  O   UNL     1      -0.121  -0.023   2.382  0.00  0.00    -0.461 OA
ATOM      9  C   UNL     1      -0.106  -0.662   3.557  0.00  0.00    +0.219 A 
ATOM     10  C   UNL     1      -0.023  -2.001   3.659  0.00  0.00    +0.123 A 
ATOM     11  C   UNL     1       0.043  -2.792   2.480  0.00  0.00    +0.211 A 
ATOM     12  O   UNL     1       0.119  -4.008   2.534  0.00  0.00    -0.285 OA
ATOM     13 CL   UNL     1      -0.008  -2.759   5.221  0.00  0.00    -0.076 Cl
ENDROOT
BRANCH   3  14
ATOM     14  O   UNL     1      -0.010  -0.004  -2.370  0.00  0.00    -0.424 OA
BRANCH  14  15
ATOM     15  C   UNL     1       1.149   0.509  -2.815  0.00  0.00    +0.342 C 
ATOM     16  O   UNL     1       2.178   0.276  -2.227  0.00  0.00    -0.247 OA
BRANCH  15  17
ATOM     17  C   UNL     1       1.164   1.376  -4.048  0.00  0.00    +0.227 C 
ATOM     18  C   UNL     1       0.406   2.701  -3.784  0.00  0.00    +0.045 C 
ATOM     19  C   UNL     1       1.069   3.634  -4.833  0.00  0.00    +0.031 C 
ATOM     20  C   UNL     1       2.521   3.111  -4.866  0.00  0.00    +0.161 C 
ATOM     21  O   UNL     1       2.510   1.768  -4.365  0.00  0.00    -0.365 OA
ENDBRANCH  15  17
ENDBRANCH  14  15
ENDBRANCH   3  14
TORSDOF 3
