REMARK  Name = ZINC12115353
REMARK  8 active torsions:
REMARK  status: ('A' for Active; 'I' for Inactive)
REMARK    1  A    between atoms: C_1  and  C_2
REMARK    2  A    between atoms: C_10  and  C_22
REMARK    3  A    between atoms: N_12  and  C_15
REMARK    4  A    between atoms: C_15  and  C_16
REMARK    5  A    between atoms: C_16  and  C_18
REMARK    6  A    between atoms: C_18  and  C_19
REMARK    7  A    between atoms: C_18  and  C_20
REMARK    8  A    between atoms: C_18  and  C_21
REMARK                            x       y       z     vdW  Elec       q    Type
REMARK                         _______ _______ _______ _____ _____    ______ ____
ROOT
ATOM      1  C   UNL     1      -3.934   4.745   7.692  0.00  0.00    +0.051 C 
ATOM      2  C   UNL     1      -3.666   3.771   6.574  0.00  0.00    -0.011 A 
ATOM      3  C   UNL     1      -2.767   3.864   5.574  0.00  0.00    +0.037 A 
ATOM      4  C   UNL     1      -2.668   2.841   4.618  0.00  0.00    +0.063 A 
ATOM      5  C   UNL     1      -3.547   1.764   4.786  0.00  0.00    +0.038 A 
ATOM      6  S   UNL     1      -4.461   2.208   6.242  0.00  0.00    -0.092 S 
ATOM      7  C   UNL     1      -3.339   0.837   3.776  0.00  0.00    +0.048 A 
ATOM      8  C   UNL     1      -2.334   1.325   2.975  0.00  0.00    +0.116 A 
ATOM      9  N   UNL     1      -1.921   2.546   3.482  0.00  0.00    -0.291 N 
ATOM     10  C   UNL     1      -0.911   3.241   2.847  0.00  0.00    +0.132 A 
ATOM     11  N   UNL     1      -0.335   2.779   1.790  0.00  0.00    -0.155 NA
ATOM     12  N   UNL     1      -0.698   1.558   1.213  0.00  0.00    -0.219 N 
ATOM     13  C   UNL     1      -1.678   0.810   1.770  0.00  0.00    +0.292 A 
ATOM     14  O   UNL     1      -2.004  -0.259   1.285  0.00  0.00    -0.264 OA
ATOM     15  C   UNL     1      -0.468   4.568   3.406  0.00  0.00    +0.088 C 
ENDROOT
BRANCH  12  16
ATOM     16  C   UNL     1      -0.013   1.086   0.008  0.00  0.00    +0.222 C 
BRANCH  16  17
ATOM     17  C   UNL     1      -0.742   1.585  -1.213  0.00  0.00    +0.160 C 
ATOM     18  O   UNL     1      -1.732   2.265  -1.089  0.00  0.00    -0.295 OA
BRANCH  17  19
ATOM     19  C   UNL     1      -0.235   1.235  -2.588  0.00  0.00    +0.022 C 
ATOM     20  C   UNL     1      -1.149   1.862  -3.643  0.00  0.00    +0.018 C 
ATOM     21  C   UNL     1       1.187   1.774  -2.760  0.00  0.00    +0.018 C 
ATOM     22  C   UNL     1      -0.228  -0.285  -2.758  0.00  0.00    +0.018 C 
ENDBRANCH  17  19
ENDBRANCH  16  17
ENDBRANCH  12  16
TORSDOF 3
