REMARK  Name = ZINC01372420
REMARK  11 active torsions:
REMARK  status: ('A' for Active; 'I' for Inactive)
REMARK    1  A    between atoms: C_1  and  O_2
REMARK    2  A    between atoms: O_2  and  C_3
REMARK    3  A    between atoms: C_8  and  C_9
REMARK    4  A    between atoms: C_9  and  N_10
REMARK    5  A    between atoms: N_10  and  C_11
REMARK    6  A    between atoms: C_11  and  C_13
REMARK    7  A    between atoms: C_11  and  C_19
REMARK    8  A    between atoms: N_21  and  C_22
REMARK    9  A    between atoms: C_22  and  C_23
REMARK   10  A    between atoms: C_30  and  C_32
REMARK   11  A    between atoms: C_32  and  N_33
REMARK                            x       y       z     vdW  Elec       q    Type
REMARK                         _______ _______ _______ _____ _____    ______ ____
ROOT
ATOM      1  N   UNL     1      -0.780  -2.625   1.884  0.00  0.00    -0.280 N 
ATOM      2  C   UNL     1      -0.149  -1.504   2.286  0.00  0.00    +0.238 C 
ATOM      3  O   UNL     1       0.753  -1.574   3.094  0.00  0.00    -0.274 OA
ENDROOT
BRANCH   1   4
ATOM      4  C   UNL     1      -1.766  -2.562   0.802  0.00  0.00    +0.147 C 
BRANCH   4  10
ATOM      5  C   UNL     1      -0.415  -2.957  -1.273  0.00  0.00    +0.125 A 
ATOM      6  C   UNL     1       0.193  -2.501  -2.434  0.00  0.00    +0.046 A 
ATOM      7  C   UNL     1       0.119  -1.164  -2.771  0.00  0.00    +0.004 A 
ATOM      8  C   UNL     1      -0.559  -0.280  -1.953  0.00  0.00    +0.001 A 
ATOM      9  C   UNL     1      -1.165  -0.731  -0.796  0.00  0.00    +0.009 A 
ATOM     10  C   UNL     1      -1.100  -2.069  -0.457  0.00  0.00    +0.012 A 
BRANCH   5  12
ATOM     11  C   UNL     1       0.283  -5.148  -1.879  0.00  0.00    +0.277 C 
ATOM     12  O   UNL     1      -0.345  -4.273  -0.940  0.00  0.00    -0.495 OA
ENDBRANCH   5  12
ENDBRANCH   4  10
ENDBRANCH   1   4
BRANCH   1  13
ATOM     13  C   UNL     1      -0.481  -3.906   2.528  0.00  0.00    +0.193 C 
BRANCH  13  14
ATOM     14  C   UNL     1      -1.704  -4.786   2.488  0.00  0.00    -0.018 A 
ATOM     15  C   UNL     1      -2.099  -5.366   1.296  0.00  0.00    +0.006 A 
ATOM     16  C   UNL     1      -3.221  -6.173   1.259  0.00  0.00    +0.000 A 
ATOM     17  C   UNL     1      -3.946  -6.402   2.413  0.00  0.00    +0.000 A 
ATOM     18  C   UNL     1      -3.550  -5.823   3.605  0.00  0.00    +0.000 A 
ATOM     19  C   UNL     1      -2.426  -5.019   3.643  0.00  0.00    +0.006 A 
ENDBRANCH  13  14
BRANCH  13  20
ATOM     20  C   UNL     1       0.650  -4.583   1.798  0.00  0.00    +0.238 C 
ATOM     21  O   UNL     1       1.156  -4.049   0.835  0.00  0.00    -0.273 OA
ATOM     22  N   UNL     1       1.099  -5.784   2.217  0.00  0.00    -0.309 N 
ATOM     23  H   UNL     1       0.694  -6.211   2.987  0.00  0.00    +0.149 HD
BRANCH  22  24
ATOM     24  C   UNL     1       2.199  -6.442   1.507  0.00  0.00    +0.139 C 
BRANCH  24  25
ATOM     25  C   UNL     1       2.506  -7.760   2.170  0.00  0.00    -0.030 A 
ATOM     26  C   UNL     1       3.432  -7.818   3.195  0.00  0.00    +0.008 A 
ATOM     27  C   UNL     1       3.715  -9.026   3.804  0.00  0.00    +0.038 A 
ATOM     28  C   UNL     1       3.070 -10.178   3.387  0.00  0.00    +0.123 A 
ATOM     29  C   UNL     1       2.143 -10.119   2.361  0.00  0.00    +0.038 A 
ATOM     30  C   UNL     1       1.858  -8.909   1.757  0.00  0.00    +0.008 A 
ATOM     31  F   UNL     1       3.346 -11.360   3.982  0.00  0.00    -0.205 F 
ENDBRANCH  24  25
ENDBRANCH  22  24
ENDBRANCH  13  20
ENDBRANCH   1  13
BRANCH   2  32
ATOM     32  C   UNL     1      -0.564  -0.166   1.733  0.00  0.00    +0.241 C 
BRANCH  32  33
ATOM     33  N   UNL     1      -0.152   0.894   2.657  0.00  0.00    -0.235 N 
ATOM     34  C   UNL     1      -0.885   1.402   3.704  0.00  0.00    +0.090 A 
ATOM     35  C   UNL     1      -2.148   1.134   4.220  0.00  0.00    +0.029 A 
ATOM     36  C   UNL     1      -2.603   1.834   5.302  0.00  0.00    +0.002 A 
ATOM     37  C   UNL     1      -1.814   2.814   5.892  0.00  0.00    +0.002 A 
ATOM     38  C   UNL     1      -0.572   3.096   5.404  0.00  0.00    +0.032 A 
ATOM     39  C   UNL     1      -0.082   2.392   4.296  0.00  0.00    +0.113 A 
ATOM     40  N   UNL     1       1.076   2.447   3.608  0.00  0.00    -0.129 NA
ATOM     41  N   UNL     1       1.068   1.585   2.653  0.00  0.00    -0.064 NA
ENDBRANCH  32  33
ENDBRANCH   2  32
TORSDOF 10
