REMARK  Name = ZINC44883527
REMARK  7 active torsions:
REMARK  status: ('A' for Active; 'I' for Inactive)
REMARK    1  A    between atoms: C_1  and  C_2
REMARK    2  A    between atoms: C_5  and  N_8
REMARK    3  A    between atoms: N_8  and  C_9
REMARK    4  A    between atoms: C_9  and  N_11
REMARK    5  A    between atoms: N_11  and  N_12
REMARK    6  A    between atoms: C_13  and  C_15
REMARK    7  A    between atoms: C_15  and  C_16
REMARK                            x       y       z     vdW  Elec       q    Type
REMARK                         _______ _______ _______ _____ _____    ______ ____
ROOT
ATOM      1  N   UNL     1       0.299  -6.880  -0.096  0.00  0.00    -0.235 N 
ATOM      2  C   UNL     1       0.419  -8.223  -0.111  0.00  0.00    +0.235 C 
ATOM      3  O   UNL     1       0.524  -8.834   0.932  0.00  0.00    -0.274 OA
ATOM      4  H   UNL     1       0.215  -6.392  -0.930  0.00  0.00    +0.173 HD
ENDROOT
BRANCH   1   5
ATOM      5  N   UNL     1       0.296  -6.191   1.123  0.00  0.00    -0.246 N 
ATOM      6  H   UNL     1       0.380  -6.679   1.957  0.00  0.00    +0.172 HD
BRANCH   5   7
ATOM      7  C   UNL     1       0.176  -4.848   1.138  0.00  0.00    +0.151 C 
ATOM      8  S   UNL     1       0.173  -4.005   2.628  0.00  0.00    -0.017 S 
BRANCH   7   9
ATOM      9  N   UNL     1       0.059  -4.169  -0.021  0.00  0.00    -0.296 N 
ATOM     10  H   UNL     1      -0.019  -4.651  -0.859  0.00  0.00    +0.154 HD
BRANCH   9  15
ATOM     11  C   UNL     1       0.030   1.503   0.005  0.00  0.00    +0.044 C 
ATOM     12  C   UNL     1       0.038  -0.004  -0.002  0.00  0.00    -0.050 A 
ATOM     13  C   UNL     1       0.925  -0.693   0.805  0.00  0.00    +0.005 A 
ATOM     14  C   UNL     1       0.934  -2.074   0.801  0.00  0.00    +0.023 A 
ATOM     15  C   UNL     1       0.052  -2.771  -0.014  0.00  0.00    +0.033 A 
ATOM     16  C   UNL     1      -0.837  -2.075  -0.824  0.00  0.00    +0.023 A 
ATOM     17  C   UNL     1      -0.845  -0.695  -0.811  0.00  0.00    +0.005 A 
ENDBRANCH   9  15
ENDBRANCH   7   9
ENDBRANCH   5   7
ENDBRANCH   1   5
BRANCH   2  18
ATOM     18  C   UNL     1       0.422  -8.965  -1.423  0.00  0.00    +0.153 C 
BRANCH  18  19
ATOM     19  C   UNL     1       0.567 -10.442  -1.164  0.00  0.00    +0.059 A 
ATOM     20  C   UNL     1      -0.325 -11.338  -1.653  0.00  0.00    +0.072 A 
ATOM     21  S   UNL     1       0.361 -12.864  -1.032  0.00  0.00    -0.060 S 
ATOM     22  C   UNL     1       1.688 -12.213  -0.228  0.00  0.00    +0.168 A 
ATOM     23  N   UNL     1       1.572 -10.923  -0.454  0.00  0.00    -0.229 NA
ATOM     24  N   UNL     1       2.672 -12.878   0.495  0.00  0.00    -0.233 N 
ATOM     25  C   UNL     1       2.744 -14.333   0.697  0.00  0.00    +0.136 C 
ATOM     26  C   UNL     1       4.009 -14.524   1.557  0.00  0.00    +0.125 C 
ATOM     27  N   UNL     1       4.515 -13.157   1.748  0.00  0.00    -0.297 N 
ATOM     28  C   UNL     1       3.707 -12.296   1.114  0.00  0.00    +0.308 C 
ATOM     29  O   UNL     1       3.895 -11.095   1.105  0.00  0.00    -0.252 OA
ATOM     30  H   UNL     1       5.309 -12.916   2.250  0.00  0.00    +0.150 HD
ENDBRANCH  18  19
ENDBRANCH   2  18
TORSDOF 6
