REMARK  Name = ZINC19852025
REMARK  10 active torsions:
REMARK  status: ('A' for Active; 'I' for Inactive)
REMARK    1  A    between atoms: C_1  and  C_2
REMARK    2  A    between atoms: C_2  and  C_3
REMARK    3  A    between atoms: C_3  and  N_4
REMARK    4  A    between atoms: C_11  and  C_23
REMARK    5  A    between atoms: C_13  and  C_19
REMARK    6  A    between atoms: C_13  and  C_21
REMARK    7  A    between atoms: C_14  and  N_18
REMARK    8  A    between atoms: C_15  and  C_16
REMARK    9  A    between atoms: C_25  and  O_30
REMARK   10  A    between atoms: O_30  and  C_31
REMARK                            x       y       z     vdW  Elec       q    Type
REMARK                         _______ _______ _______ _____ _____    ______ ____
ROOT
ATOM      1  N   UNL     1       0.981   6.063   0.771  0.00  0.00    -0.298 NA
ATOM      2  C   UNL     1       2.287   5.626   0.245  0.00  0.00    +0.112 C 
ATOM      3  C   UNL     1       2.285   4.118   0.217  0.00  0.00    -0.007 C 
ATOM      4  C   UNL     1       1.163   3.464  -0.021  0.00  0.00    -0.026 C 
ATOM      5  C   UNL     1      -0.136   4.154  -0.326  0.00  0.00    +0.044 C 
ATOM      6  C   UNL     1      -0.093   5.653  -0.137  0.00  0.00    +0.093 C 
ATOM      7  C   UNL     1      -1.231   3.497   0.515  0.00  0.00    +0.070 C 
ATOM      8  C   UNL     1      -1.369   2.034   0.087  0.00  0.00    +0.188 C 
ATOM      9  C   UNL     1      -0.044   1.333   0.075  0.00  0.00    +0.054 C 
ATOM     10  C   UNL     1       1.147   1.980   0.010  0.00  0.00    +0.074 C 
ENDROOT
BRANCH   7  11
ATOM     11  C   UNL     1      -2.538   4.214   0.290  0.00  0.00    -0.002 A 
ATOM     12  C   UNL     1      -3.002   4.418  -0.995  0.00  0.00    +0.052 A 
ATOM     13  C   UNL     1      -4.204   5.078  -1.201  0.00  0.00    +0.121 A 
ATOM     14  C   UNL     1      -4.939   5.533  -0.116  0.00  0.00    +0.048 A 
ATOM     15  C   UNL     1      -4.473   5.328   1.168  0.00  0.00    +0.042 A 
ATOM     16  C   UNL     1      -3.275   4.664   1.373  0.00  0.00    +0.127 A 
ATOM     17  F   UNL     1      -2.823   4.459   2.629  0.00  0.00    -0.205 F 
BRANCH  13  18
ATOM     18  O   UNL     1      -4.662   5.279  -2.465  0.00  0.00    -0.495 OA
ATOM     19  C   UNL     1      -5.907   5.966  -2.602  0.00  0.00    +0.277 C 
ENDBRANCH  13  18
ENDBRANCH   7  11
BRANCH   9  20
ATOM     20  N   UNL     1      -0.035  -0.033   0.127  0.00  0.00    -0.358 N 
ATOM     21  H   UNL     1       0.920  -0.578   0.120  0.00  0.00    +0.142 HD
ATOM     22  H   UNL     1      -0.984  -0.588   0.176  0.00  0.00    +0.142 HD
ENDBRANCH   9  20
BRANCH  10  23
ATOM     23  C   UNL     1       2.373   1.241  -0.029  0.00  0.00    +0.101 C 
ATOM     24  N   UNL     1       3.346   0.655  -0.060  0.00  0.00    -0.191 NA
ENDBRANCH  10  23
BRANCH   8  25
ATOM     25  C   UNL     1      -1.954   1.976  -1.263  0.00  0.00    +0.091 C 
ATOM     26  N   UNL     1      -2.405   1.932  -2.304  0.00  0.00    -0.194 NA
ENDBRANCH   8  25
BRANCH   8  27
ATOM     27  C   UNL     1      -2.268   1.344   1.026  0.00  0.00    +0.091 C 
ATOM     28  N   UNL     1      -2.962   0.812   1.752  0.00  0.00    -0.194 NA
ENDBRANCH   8  27
BRANCH   1  29
ATOM     29  C   UNL     1       0.961   7.516   0.988  0.00  0.00    +0.084 C 
BRANCH  29  31
ATOM     30  C   UNL     1       1.922   9.392   2.330  0.00  0.00    +0.005 C 
ATOM     31  C   UNL     1       1.943   7.879   2.104  0.00  0.00    +0.012 C 
ENDBRANCH  29  31
ENDBRANCH   1  29
TORSDOF 8
