REMARK  Name = ZINC00200178
REMARK  3 active torsions:
REMARK  status: ('A' for Active; 'I' for Inactive)
REMARK    1  A    between atoms: C_1  and  C_2
REMARK    2  A    between atoms: C_2  and  C_21
REMARK    3  A    between atoms: C_7  and  C_8
REMARK                            x       y       z     vdW  Elec       q    Type
REMARK                         _______ _______ _______ _____ _____    ______ ____
ROOT
ATOM      1  C   UNL     1       3.866   2.194   1.109  0.00  0.00    +0.110 C 
ATOM      2  C   UNL     1       3.513   2.052  -0.373  0.00  0.00    +0.283 C 
ATOM      3  O   UNL     1       3.367   3.375  -0.964  0.00  0.00    -0.414 OA
ATOM      4  C   UNL     1       4.508   4.117  -1.025  0.00  0.00    +0.349 C 
ATOM      5  O   UNL     1       4.542   5.287  -0.695  0.00  0.00    -0.245 OA
ATOM      6  C   UNL     1       5.706   3.394  -1.521  0.00  0.00    +0.143 C 
ATOM      7  C   UNL     1       6.683   4.004  -2.295  0.00  0.00    +0.032 C 
ATOM      8  C   UNL     1       5.773   1.966  -1.121  0.00  0.00    +0.349 C 
ATOM      9  O   UNL     1       6.824   1.409  -0.870  0.00  0.00    -0.245 OA
ATOM     10  O   UNL     1       4.573   1.325  -1.057  0.00  0.00    -0.414 OA
ENDROOT
BRANCH   7  11
ATOM     11  C   UNL     1       6.467   5.298  -2.812  0.00  0.00    +0.001 A 
ATOM     12  C   UNL     1       5.252   5.946  -2.953  0.00  0.00    +0.091 A 
ATOM     13  N   UNL     1       5.451   7.167  -3.483  0.00  0.00    -0.360 N 
ATOM     14  H   UNL     1       4.747   7.805  -3.675  0.00  0.00    +0.165 HD
ATOM     15  C   UNL     1       6.795   7.386  -3.717  0.00  0.00    +0.047 A 
ATOM     16  C   UNL     1       7.492   6.240  -3.307  0.00  0.00    +0.007 A 
ATOM     17  C   UNL     1       8.876   6.180  -3.434  0.00  0.00    +0.010 A 
ATOM     18  C   UNL     1       9.561   7.258  -3.956  0.00  0.00    +0.001 A 
ATOM     19  C   UNL     1       8.874   8.394  -4.357  0.00  0.00    +0.002 A 
ATOM     20  C   UNL     1       7.502   8.463  -4.240  0.00  0.00    +0.026 A 
ENDBRANCH   7  11
BRANCH   2  21
ATOM     21  C   UNL     1       2.217   1.296  -0.510  0.00  0.00    +0.036 A 
ATOM     22  C   UNL     1       1.016   1.980  -0.527  0.00  0.00    +0.011 A 
ATOM     23  C   UNL     1      -0.173   1.286  -0.652  0.00  0.00    +0.001 A 
ATOM     24  C   UNL     1      -0.161  -0.093  -0.760  0.00  0.00    +0.000 A 
ATOM     25  C   UNL     1       1.040  -0.777  -0.742  0.00  0.00    +0.001 A 
ATOM     26  C   UNL     1       2.229  -0.083  -0.617  0.00  0.00    +0.011 A 
ENDBRANCH   2  21
TORSDOF 2
