REMARK  Name = ZINC08721916
REMARK  10 active torsions:
REMARK  status: ('A' for Active; 'I' for Inactive)
REMARK    1  A    between atoms: C_1  and  C_2
REMARK    2  A    between atoms: C_2  and  O_3
REMARK    3  A    between atoms: O_3  and  C_4
REMARK    4  A    between atoms: C_6  and  C_20
REMARK    5  A    between atoms: C_9  and  O_10
REMARK    6  A    between atoms: O_10  and  C_11
REMARK    7  A    between atoms: C_11  and  C_12
REMARK    8  A    between atoms: C_17  and  C_18
REMARK    9  A    between atoms: C_30  and  C_32
REMARK   10  A    between atoms: C_35  and  C_38
REMARK                            x       y       z     vdW  Elec       q    Type
REMARK                         _______ _______ _______ _____ _____    ______ ____
ROOT
ATOM      1  C   UNL     1      -0.195  -4.957  -0.494  0.00  0.00    +0.024 C 
ATOM      2  C   UNL     1       0.440  -6.140  -0.799  0.00  0.00    +0.081 C 
ATOM      3  C   UNL     1      -0.040  -7.030  -1.893  0.00  0.00    +0.153 C 
ATOM      4  N   UNL     1      -0.602  -6.585  -2.986  0.00  0.00    -0.283 NA
ATOM      5  N   UNL     1       0.172  -8.401  -1.634  0.00  0.00    -0.152 N 
ATOM      6  C   UNL     1       1.170  -8.734  -0.743  0.00  0.00    +0.181 C 
ATOM      7  N   UNL     1       1.899  -7.920  -0.020  0.00  0.00    -0.152 NA
ATOM      8  C   UNL     1       1.644  -6.595  -0.059  0.00  0.00    +0.273 C 
ATOM      9  O   UNL     1       2.377  -5.795   0.500  0.00  0.00    -0.268 OA
ATOM     10  S   UNL     1       1.175 -10.505  -0.828  0.00  0.00    -0.033 S 
ATOM     11  C   UNL     1      -0.201 -10.691  -1.953  0.00  0.00    +0.130 C 
ATOM     12  N   UNL     1      -0.526  -9.445  -2.203  0.00  0.00    -0.164 NA
ATOM     13  H   UNL     1      -0.897  -7.208  -3.668  0.00  0.00    +0.188 HD
ENDROOT
BRANCH  11  14
ATOM     14  C   UNL     1      -0.817 -11.933  -2.470  0.00  0.00    +0.009 A 
ATOM     15  C   UNL     1      -1.893 -11.865  -3.355  0.00  0.00    +0.011 A 
ATOM     16  C   UNL     1      -2.463 -13.027  -3.835  0.00  0.00    +0.004 A 
ATOM     17  C   UNL     1      -1.969 -14.257  -3.439  0.00  0.00    -0.050 A 
ATOM     18  C   UNL     1      -0.902 -14.331  -2.562  0.00  0.00    +0.004 A 
ATOM     19  C   UNL     1      -0.320 -13.176  -2.080  0.00  0.00    +0.011 A 
ATOM     20  C   UNL     1      -2.596 -15.522  -3.965  0.00  0.00    +0.044 C 
ENDBRANCH  11  14
BRANCH   1  23
ATOM     21  C   UNL     1       0.572  -2.097   1.802  0.00  0.00    +0.162 A 
ATOM     22  C   UNL     1       0.205  -2.801   0.673  0.00  0.00    +0.057 A 
ATOM     23  C   UNL     1       0.195  -4.203   0.699  0.00  0.00    -0.021 A 
ATOM     24  C   UNL     1       0.558  -4.880   1.872  0.00  0.00    +0.012 A 
ATOM     25  C   UNL     1       0.923  -4.168   2.992  0.00  0.00    +0.050 A 
ATOM     26  C   UNL     1       0.938  -2.779   2.963  0.00  0.00    +0.162 A 
BRANCH  21  27
ATOM     27  O   UNL     1       0.583  -0.737   1.781  0.00  0.00    -0.489 OA
BRANCH  27  29
ATOM     28  C   UNL     1       0.271   1.415   0.727  0.00  0.00    +0.048 C 
ATOM     29  C   UNL     1       0.197  -0.104   0.559  0.00  0.00    +0.226 C 
ENDBRANCH  27  29
ENDBRANCH  21  27
BRANCH  26  30
ATOM     30  O   UNL     1       1.305  -2.083   4.069  0.00  0.00    -0.484 OA
BRANCH  30  31
ATOM     31  C   UNL     1       1.668  -2.844   5.223  0.00  0.00    +0.266 C 
BRANCH  31  32
ATOM     32  C   UNL     1       2.042  -1.908   6.344  0.00  0.00    +0.007 A 
ATOM     33  C   UNL     1       1.992  -0.543   6.151  0.00  0.00    +0.008 A 
ATOM     34  C   UNL     1       2.336   0.317   7.179  0.00  0.00    +0.000 A 
ATOM     35  C   UNL     1       2.732  -0.185   8.406  0.00  0.00    +0.001 A 
ATOM     36  C   UNL     1       2.787  -1.547   8.612  0.00  0.00    +0.019 A 
ATOM     37  C   UNL     1       2.435  -2.421   7.582  0.00  0.00    +0.058 A 
BRANCH  37  38
ATOM     38  C   UNL     1       2.484  -3.837   7.791  0.00  0.00    +0.100 C 
ATOM     39  N   UNL     1       2.523  -4.960   7.957  0.00  0.00    -0.191 NA
ENDBRANCH  37  38
ENDBRANCH  31  32
ENDBRANCH  30  31
ENDBRANCH  26  30
ENDBRANCH   1  23
TORSDOF 8
