REMARK  Name = ZINC20206631
REMARK  10 active torsions:
REMARK  status: ('A' for Active; 'I' for Inactive)
REMARK    1  A    between atoms: C_1  and  C_2
REMARK    2  A    between atoms: C_2  and  O_3
REMARK    3  A    between atoms: O_3  and  C_4
REMARK    4  A    between atoms: C_6  and  C_19
REMARK    5  A    between atoms: C_9  and  O_10
REMARK    6  A    between atoms: O_10  and  C_11
REMARK    7  A    between atoms: C_11  and  C_12
REMARK    8  A    between atoms: C_30  and  S_31
REMARK    9  A    between atoms: S_31  and  C_34
REMARK   10  A    between atoms: C_34  and  C_35
REMARK                            x       y       z     vdW  Elec       q    Type
REMARK                         _______ _______ _______ _____ _____    ______ ____
ROOT
ATOM      1  C   UNL     1       0.270  -1.873  -1.646  0.00  0.00    +0.162 A 
ATOM      2  C   UNL     1      -0.400  -2.664  -0.736  0.00  0.00    +0.057 A 
ATOM      3  C   UNL     1      -0.084  -4.026  -0.630  0.00  0.00    -0.021 A 
ATOM      4  C   UNL     1       0.912  -4.575  -1.451  0.00  0.00    +0.012 A 
ATOM      5  C   UNL     1       1.574  -3.777  -2.356  0.00  0.00    +0.050 A 
ATOM      6  C   UNL     1       1.256  -2.429  -2.463  0.00  0.00    +0.162 A 
ENDROOT
BRANCH   3   7
ATOM      7  C   UNL     1      -0.790  -4.872   0.334  0.00  0.00    +0.024 C 
ATOM      8  C   UNL     1      -1.196  -6.137  -0.027  0.00  0.00    +0.079 C 
ATOM      9  C   UNL     1      -1.749  -7.101   0.968  0.00  0.00    +0.138 C 
ATOM     10  N   UNL     1      -2.448  -6.738   2.009  0.00  0.00    -0.284 NA
ATOM     11  N   UNL     1      -1.441  -8.443   0.669  0.00  0.00    -0.201 N 
ATOM     12  C   UNL     1      -1.145  -8.774  -0.636  0.00  0.00    +0.183 C 
ATOM     13  N   UNL     1      -1.019  -7.943  -1.646  0.00  0.00    -0.152 NA
ATOM     14  C   UNL     1      -1.113  -6.615  -1.429  0.00  0.00    +0.273 C 
ATOM     15  O   UNL     1      -1.127  -5.827  -2.361  0.00  0.00    -0.268 OA
ATOM     16  S   UNL     1      -0.981 -10.432  -0.582  0.00  0.00    +0.049 S 
ATOM     17  N   UNL     1      -1.174 -10.670   1.067  0.00  0.00    -0.174 NA
ATOM     18  C   UNL     1      -1.407  -9.483   1.535  0.00  0.00    +0.257 C 
ATOM     19  H   UNL     1      -2.631  -5.798   2.166  0.00  0.00    +0.188 HD
BRANCH  18  20
ATOM     20  S   UNL     1      -1.673  -9.231   3.259  0.00  0.00    +0.029 S 
ATOM     21  O   UNL     1      -1.139 -10.391   3.882  0.00  0.00    -0.167 OA
ATOM     22  O   UNL     1      -1.126  -7.947   3.526  0.00  0.00    -0.167 OA
BRANCH  20  23
ATOM     23  C   UNL     1      -3.477  -9.194   3.451  0.00  0.00    +0.172 C 
ATOM     24  C   UNL     1      -3.828  -8.977   4.924  0.00  0.00    +0.028 C 
ENDBRANCH  20  23
ENDBRANCH  18  20
ENDBRANCH   3   7
BRANCH   1  25
ATOM     25  O   UNL     1      -0.034  -0.551  -1.752  0.00  0.00    -0.489 OA
BRANCH  25  27
ATOM     26  C   UNL     1      -1.254   1.445  -1.147  0.00  0.00    +0.048 C 
ATOM     27  C   UNL     1      -1.052  -0.049  -0.885  0.00  0.00    +0.226 C 
ENDBRANCH  25  27
ENDBRANCH   1  25
BRANCH   6  28
ATOM     28  O   UNL     1       1.909  -1.649  -3.362  0.00  0.00    -0.484 OA
BRANCH  28  29
ATOM     29  C   UNL     1       2.906  -2.281  -4.167  0.00  0.00    +0.264 C 
BRANCH  29  30
ATOM     30  C   UNL     1       3.518  -1.267  -5.098  0.00  0.00    -0.010 A 
ATOM     31  C   UNL     1       2.966  -1.055  -6.348  0.00  0.00    +0.010 A 
ATOM     32  C   UNL     1       3.527  -0.125  -7.202  0.00  0.00    +0.039 A 
ATOM     33  C   UNL     1       4.641   0.595  -6.806  0.00  0.00    +0.123 A 
ATOM     34  C   UNL     1       5.193   0.382  -5.554  0.00  0.00    +0.039 A 
ATOM     35  C   UNL     1       4.628  -0.545  -4.699  0.00  0.00    +0.010 A 
ATOM     36  F   UNL     1       5.191   1.504  -7.641  0.00  0.00    -0.205 F 
ENDBRANCH  29  30
ENDBRANCH  28  29
ENDBRANCH   6  28
TORSDOF 8
