REMARK  Name = ZINC13693677
REMARK  4 active torsions:
REMARK  status: ('A' for Active; 'I' for Inactive)
REMARK    1  A    between atoms: C_4  and  C_7
REMARK    2  A    between atoms: C_7  and  C_8
REMARK    3  A    between atoms: N_16  and  C_21
REMARK    4  A    between atoms: C_21  and  C_22
REMARK                            x       y       z     vdW  Elec       q    Type
REMARK                         _______ _______ _______ _____ _____    ______ ____
ROOT
ATOM      1  C   UNL     1      -3.288   2.466   0.046  0.00  0.00    +0.156 A 
ATOM      2  N   UNL     1      -2.530   3.561   0.044  0.00  0.00    -0.210 NA
ATOM      3  C   UNL     1      -1.259   3.216   0.030  0.00  0.00    +0.171 A 
ATOM      4  C   UNL     1      -0.004   4.006   0.022  0.00  0.00    +0.054 A 
ATOM      5  C   UNL     1       0.160   5.459   0.027  0.00  0.00    -0.024 A 
ATOM      6  C   UNL     1       1.424   5.932   0.016  0.00  0.00    -0.004 A 
ATOM      7  S   UNL     1       2.449   4.486   0.001  0.00  0.00    -0.075 S 
ATOM      8  C   UNL     1       1.170   3.257   0.007  0.00  0.00    +0.096 A 
ATOM      9  N   UNL     1       1.151   1.889   0.001  0.00  0.00    -0.277 N 
ATOM     10  C   UNL     1      -0.014   1.212   0.009  0.00  0.00    +0.353 A 
ATOM     11  O   UNL     1       0.002  -0.004   0.002  0.00  0.00    -0.244 OA
ATOM     12  N   UNL     1      -1.193   1.854   0.018  0.00  0.00    -0.161 N 
ATOM     13  N   UNL     1      -2.523   1.404   0.033  0.00  0.00    -0.145 NA
ATOM     14  C   UNL     1       1.857   7.366   0.017  0.00  0.00    +0.043 C 
ATOM     15  C   UNL     1       0.645   8.238  -0.341  0.00  0.00    +0.005 C 
ATOM     16  C   UNL     1      -0.550   7.791   0.506  0.00  0.00    +0.005 C 
ATOM     17  C   UNL     1      -1.030   6.415   0.044  0.00  0.00    +0.037 C 
ENDROOT
BRANCH   1  18
ATOM     18  C   UNL     1      -4.795   2.451   0.061  0.00  0.00    +0.113 C 
BRANCH  18  22
ATOM     19  C   UNL     1      -6.259   2.460  -3.952  0.00  0.00    +0.000 A 
ATOM     20  C   UNL     1      -6.011   1.261  -3.310  0.00  0.00    +0.000 A 
ATOM     21  C   UNL     1      -5.537   1.258  -2.011  0.00  0.00    +0.004 A 
ATOM     22  C   UNL     1      -5.311   2.454  -1.355  0.00  0.00    -0.040 A 
ATOM     23  C   UNL     1      -5.565   3.652  -1.996  0.00  0.00    +0.004 A 
ATOM     24  C   UNL     1      -6.034   3.655  -3.296  0.00  0.00    +0.000 A 
ENDBRANCH  18  22
ENDBRANCH   1  18
BRANCH   9  25
ATOM     25  C   UNL     1       2.415   1.149  -0.013  0.00  0.00    +0.222 C 
BRANCH  25  26
ATOM     26  C   UNL     1       2.836   0.902  -1.439  0.00  0.00    +0.230 C 
ATOM     27  O   UNL     1       2.148   1.303  -2.353  0.00  0.00    -0.274 OA
ATOM     28  N   UNL     1       3.978   0.234  -1.698  0.00  0.00    -0.328 N 
ATOM     29  H   UNL     1       4.529  -0.088  -0.967  0.00  0.00    +0.145 HD
ATOM     30  H   UNL     1       4.249   0.074  -2.616  0.00  0.00    +0.145 HD
ENDBRANCH  25  26
ENDBRANCH   9  25
TORSDOF 4
