REMARK  Name = ZINC44471162
REMARK  5 active torsions:
REMARK  status: ('A' for Active; 'I' for Inactive)
REMARK    1  A    between atoms: N_9  and  C_12
REMARK    2  A    between atoms: C_12  and  C_13
REMARK    3  A    between atoms: C_15  and  C_18
REMARK    4  A    between atoms: C_19  and  C_20
REMARK    5  A    between atoms: C_20  and  O_21
REMARK                            x       y       z     vdW  Elec       q    Type
REMARK                         _______ _______ _______ _____ _____    ______ ____
ROOT
ATOM      1  C   UNL     1      -0.017   1.382   0.010  0.00  0.00    +0.001 A 
ATOM      2  C   UNL     1       1.165   2.099   0.002  0.00  0.00    +0.001 A 
ATOM      3  C   UNL     1       2.385   1.442  -0.013  0.00  0.00    +0.014 A 
ATOM      4  C   UNL     1       2.420   0.056  -0.021  0.00  0.00    +0.049 A 
ATOM      5  C   UNL     1       1.215  -0.675  -0.013  0.00  0.00    +0.049 A 
ATOM      6  C   UNL     1       0.002  -0.004   0.002  0.00  0.00    +0.014 A 
ATOM      7  C   UNL     1       1.606  -2.100  -0.025  0.00  0.00    +0.254 C 
ATOM      8  O   UNL     1       0.843  -3.045  -0.023  0.00  0.00    -0.270 OA
ATOM      9  N   UNL     1       2.949  -2.175  -0.039  0.00  0.00    -0.229 N 
ATOM     10  C   UNL     1       3.503  -0.949  -0.038  0.00  0.00    +0.254 C 
ATOM     11  O   UNL     1       4.693  -0.709  -0.049  0.00  0.00    -0.270 OA
ENDROOT
BRANCH   9  12
ATOM     12  C   UNL     1       3.709  -3.428  -0.053  0.00  0.00    +0.159 C 
BRANCH  12  13
ATOM     13  C   UNL     1       3.955  -3.850  -1.479  0.00  0.00    +0.009 A 
ATOM     14  C   UNL     1       4.996  -3.546  -2.285  0.00  0.00    +0.029 A 
ATOM     15  C   UNL     1       5.017  -4.053  -3.583  0.00  0.00    +0.032 A 
ATOM     16  C   UNL     1       3.976  -4.844  -3.990  0.00  0.00    +0.062 A 
ATOM     17  S   UNL     1       2.950  -4.885  -2.529  0.00  0.00    -0.099 S 
BRANCH  15  18
ATOM     18  C   UNL     1       6.101  -3.755  -4.469  0.00  0.00    -0.063 C 
ATOM     19  C   UNL     1       6.990  -3.510  -5.196  0.00  0.00    -0.069 C 
BRANCH  19  20
ATOM     20  C   UNL     1       8.104  -3.204  -6.107  0.00  0.00    +0.244 C 
BRANCH  20  21
ATOM     21  O   UNL     1       7.881  -3.843  -7.366  0.00  0.00    -0.383 OA
ATOM     22  H   UNL     1       8.577  -3.684  -8.017  0.00  0.00    +0.211 HD
ENDBRANCH  20  21
ENDBRANCH  19  20
ENDBRANCH  15  18
ENDBRANCH  12  13
ENDBRANCH   9  12
TORSDOF 5
