REMARK  Name = ZINC01814477
REMARK  8 active torsions:
REMARK  status: ('A' for Active; 'I' for Inactive)
REMARK    1  A    between atoms: C_1  and  C_2
REMARK    2  A    between atoms: C_6  and  O_8
REMARK    3  A    between atoms: O_8  and  C_9
REMARK    4  A    between atoms: C_9  and  C_10
REMARK    5  A    between atoms: C_10  and  N_11
REMARK    6  A    between atoms: C_13  and  C_20
REMARK    7  A    between atoms: C_28  and  C_29
REMARK    8  A    between atoms: C_28  and  C_30
REMARK                            x       y       z     vdW  Elec       q    Type
REMARK                         _______ _______ _______ _____ _____    ______ ____
ROOT
ATOM      1  N   UNL     1       0.017  -6.202   3.837  0.00  0.00    -0.343 N 
ATOM      2  C   UNL     1      -1.056  -7.018   3.840  0.00  0.00    +0.095 A 
ATOM      3  C   UNL     1      -0.645  -8.322   3.639  0.00  0.00    +0.001 A 
ATOM      4  C   UNL     1       0.824  -8.273   3.503  0.00  0.00    +0.007 A 
ATOM      5  C   UNL     1       1.177  -6.920   3.630  0.00  0.00    +0.050 A 
ATOM      6  C   UNL     1       2.516  -6.554   3.539  0.00  0.00    +0.026 A 
ATOM      7  C   UNL     1       3.479  -7.516   3.322  0.00  0.00    +0.002 A 
ATOM      8  C   UNL     1       3.127  -8.852   3.193  0.00  0.00    +0.001 A 
ATOM      9  C   UNL     1       1.806  -9.235   3.288  0.00  0.00    +0.010 A 
ENDROOT
BRANCH   3  10
ATOM     10  C   UNL     1      -1.466  -9.470   3.578  0.00  0.00    +0.027 C 
ATOM     11  C   UNL     1      -2.785  -9.357   3.179  0.00  0.00    +0.085 A 
ATOM     12  C   UNL     1      -3.330  -8.089   2.621  0.00  0.00    +0.160 A 
ATOM     13  N   UNL     1      -2.623  -7.259   1.899  0.00  0.00    -0.281 NA
ATOM     14  N   UNL     1      -4.685  -7.870   2.948  0.00  0.00    -0.212 N 
ATOM     15  N   UNL     1      -5.300  -6.635   2.977  0.00  0.00    -0.283 N 
ATOM     16  H   UNL     1      -4.789  -5.824   2.831  0.00  0.00    +0.188 HD
ATOM     17  C   UNL     1      -6.674  -6.577   3.220  0.00  0.00    +0.095 A 
ATOM     18  C   UNL     1      -7.473  -5.513   3.257  0.00  0.00    -0.044 C 
ATOM     19  C   UNL     1      -6.908  -4.137   3.017  0.00  0.00    +0.041 C 
ATOM     20  C   UNL     1      -8.943  -5.685   3.541  0.00  0.00    +0.041 C 
ATOM     21  S   UNL     1      -7.082  -8.298   3.466  0.00  0.00    -0.031 S 
ATOM     22  C   UNL     1      -5.456  -8.974   3.257  0.00  0.00    +0.199 A 
ATOM     23  N   UNL     1      -5.051 -10.210   3.382  0.00  0.00    -0.182 NA
ATOM     24  C   UNL     1      -3.731 -10.492   3.276  0.00  0.00    +0.283 A 
ATOM     25  O   UNL     1      -3.332 -11.644   3.266  0.00  0.00    -0.265 OA
ATOM     26  H   UNL     1      -1.722  -7.497   1.630  0.00  0.00    +0.188 HD
ENDBRANCH   3  10
BRANCH   1  27
ATOM     27  C   UNL     1      -0.041  -4.749   4.021  0.00  0.00    +0.163 C 
BRANCH  27  28
ATOM     28  C   UNL     1      -0.082  -4.063   2.655  0.00  0.00    +0.250 C 
BRANCH  28  29
ATOM     29  O   UNL     1      -0.139  -2.646   2.834  0.00  0.00    -0.490 OA
BRANCH  29  35
ATOM     30  C   UNL     1      -0.339   1.775   0.777  0.00  0.00    +0.044 C 
ATOM     31  C   UNL     1      -0.278   0.274   0.668  0.00  0.00    -0.047 A 
ATOM     32  C   UNL     1      -0.264  -0.329  -0.576  0.00  0.00    +0.003 A 
ATOM     33  C   UNL     1      -0.208  -1.706  -0.680  0.00  0.00    +0.004 A 
ATOM     34  C   UNL     1      -0.166  -2.485   0.461  0.00  0.00    +0.045 A 
ATOM     35  C   UNL     1      -0.180  -1.883   1.711  0.00  0.00    +0.121 A 
ATOM     36  C   UNL     1      -0.230  -0.500   1.812  0.00  0.00    +0.049 A 
ENDBRANCH  29  35
ENDBRANCH  28  29
ENDBRANCH  27  28
ENDBRANCH   1  27
TORSDOF 5
