REMARK  Name = ZINC66344744
REMARK  4 active torsions:
REMARK  status: ('A' for Active; 'I' for Inactive)
REMARK    1  A    between atoms: C_6  and  N_7
REMARK    2  A    between atoms: C_10  and  C_13
REMARK    3  A    between atoms: C_13  and  N_14
REMARK    4  A    between atoms: N_20  and  C_23
REMARK                            x       y       z     vdW  Elec       q    Type
REMARK                         _______ _______ _______ _____ _____    ______ ____
ROOT
ATOM      1  N   UNL     1      -4.598  -4.035  -0.684  0.00  0.00    -0.299 N 
ATOM      2  C   UNL     1      -5.272  -5.169  -0.409  0.00  0.00    +0.302 C 
ATOM      3  O   UNL     1      -4.737  -6.053   0.231  0.00  0.00    -0.253 OA
ATOM      4  N   UNL     1      -6.538  -5.323  -0.844  0.00  0.00    -0.289 N 
ATOM      5  C   UNL     1      -7.164  -4.322  -1.720  0.00  0.00    +0.091 C 
ATOM      6  C   UNL     1      -7.773  -5.044  -2.927  0.00  0.00    -0.059 C 
ATOM      7  N   UNL     1      -8.686  -6.094  -2.458  0.00  0.00    +0.384 N 
ATOM      8  C   UNL     1      -7.934  -7.119  -1.721  0.00  0.00    -0.059 C 
ATOM      9  C   UNL     1      -7.331  -6.502  -0.460  0.00  0.00    +0.091 C 
ATOM     10  H   UNL     1      -4.998  -3.360  -1.256  0.00  0.00    +0.150 HD
ATOM     11  H   UNL     1      -9.381  -5.687  -1.850  0.00  0.00    -0.081 HD
ENDROOT
BRANCH   7  12
ATOM     12  C   UNL     1      -9.352  -6.713  -3.611  0.00  0.00    -0.068 C 
ATOM     13  C   UNL     1     -10.213  -5.667  -4.348  0.00  0.00    -0.015 C 
ATOM     14  C   UNL     1     -11.467  -6.456  -4.799  0.00  0.00    -0.002 C 
ATOM     15  C   UNL     1     -11.724  -7.402  -3.600  0.00  0.00    -0.002 C 
ATOM     16  C   UNL     1     -10.313  -7.817  -3.136  0.00  0.00    -0.015 C 
ENDBRANCH   7  12
BRANCH   1  17
ATOM     17  C   UNL     1      -3.263  -3.820  -0.121  0.00  0.00    +0.110 C 
BRANCH  17  21
ATOM     18  N   UNL     1      -1.203  -0.718   0.024  0.00  0.00    -0.330 N 
ATOM     19  C   UNL     1      -2.552  -0.132   0.038  0.00  0.00    +0.105 C 
ATOM     20  C   UNL     1      -3.559  -1.302   0.012  0.00  0.00    +0.025 C 
ATOM     21  C   UNL     1      -2.725  -2.466  -0.585  0.00  0.00    +0.025 C 
ATOM     22  C   UNL     1      -1.326  -2.187   0.012  0.00  0.00    +0.110 C 
BRANCH  18  28
ATOM     23  C   UNL     1      -0.024   1.389   0.031  0.00  0.00    +0.026 A 
ATOM     24  C   UNL     1       1.162   2.096   0.025  0.00  0.00    +0.040 A 
ATOM     25  C   UNL     1       2.372   1.422   0.006  0.00  0.00    +0.124 A 
ATOM     26  C   UNL     1       2.394   0.037  -0.007  0.00  0.00    +0.040 A 
ATOM     27  C   UNL     1       1.210  -0.674  -0.002  0.00  0.00    +0.026 A 
ATOM     28  C   UNL     1      -0.004   0.000   0.018  0.00  0.00    +0.030 A 
ATOM     29  F   UNL     1       3.531   2.115   0.001  0.00  0.00    -0.205 F 
ENDBRANCH  18  28
ENDBRANCH  17  21
ENDBRANCH   1  17
TORSDOF 4
