REMARK  Name = ZINC51043180
REMARK  1 active torsions:
REMARK  status: ('A' for Active; 'I' for Inactive)
REMARK    1  A    between atoms: CA_3  and  C_19
REMARK                            x       y       z     vdW  Elec       q    Type
REMARK                         _______ _______ _______ _____ _____    ______ ____
ROOT
ATOM      1  C   UNL     1       0.787   1.386   1.136  0.00  0.00    +0.006 A 
ATOM      2  C   UNL     1       1.180   2.059  -0.014  0.00  0.00    +0.033 A 
ATOM      3  CA  UNL     1       1.584   1.325  -1.125  0.00  0.00    +0.130 A 
ATOM      4  N   UNL     1       1.596  -0.004  -1.092  0.00  0.00    -0.338 N 
ATOM      5  C   UNL     1       1.228  -0.671  -0.014  0.00  0.00    +0.100 A 
ATOM      6  C   UNL     1       0.813   0.004   1.135  0.00  0.00    +0.042 A 
ATOM      7  N   UNL     1       1.255  -2.060  -0.023  0.00  0.00    -0.313 N 
ATOM      8  C   UNL     1       2.528  -2.787  -0.144  0.00  0.00    +0.107 C 
ATOM      9  C   UNL     1       2.421  -3.782  -1.304  0.00  0.00    +0.019 C 
ATOM     10  C   UNL     1       1.197  -4.678  -1.098  0.00  0.00    +0.007 C 
ATOM     11  C   UNL     1      -0.068  -3.811  -1.088  0.00  0.00    +0.010 C 
ATOM     12  C   UNL     1       0.015  -2.835   0.094  0.00  0.00    +0.078 C 
ATOM     13  C   UNL     1      -1.191  -1.901   0.098  0.00  0.00    +0.023 C 
ATOM     14  C   UNL     1      -1.254  -1.125  -1.219  0.00  0.00    +0.002 C 
ATOM     15  C   UNL     1      -1.376  -2.115  -2.380  0.00  0.00    +0.000 C 
ATOM     16  C   UNL     1      -0.149  -3.043  -2.410  0.00  0.00    +0.005 C 
ATOM     17  H   UNL     1       1.882  -0.495  -1.879  0.00  0.00    +0.167 HD
ENDROOT
BRANCH   3  18
ATOM     18  C   UNL     1       2.005   2.031  -2.355  0.00  0.00    +0.402 C 
ATOM     19  O   UNL     1       2.361   1.393  -3.335  0.00  0.00    -0.239 OA
ATOM     20  OXT UNL     1       1.996   3.253  -2.392  0.00  0.00    -0.239 OA
ENDBRANCH   3  18
TORSDOF 1
