REMARK  Name = ZINC32096477
REMARK  5 active torsions:
REMARK  status: ('A' for Active; 'I' for Inactive)
REMARK    1  A    between atoms: C_4  and  N_7
REMARK    2  A    between atoms: C_9  and  C_14
REMARK    3  A    between atoms: N_16  and  C_17
REMARK    4  A    between atoms: C_17  and  C_18
REMARK    5  A    between atoms: C_18  and  C_19
REMARK                            x       y       z     vdW  Elec       q    Type
REMARK                         _______ _______ _______ _____ _____    ______ ____
ROOT
ATOM      1  C   UNL     1       5.202  -2.721  -1.912  0.00  0.00    +0.218 C 
ATOM      2  O   UNL     1       4.167  -2.696  -2.545  0.00  0.00    -0.275 OA
ATOM      3  N   UNL     1       6.362  -3.019  -2.530  0.00  0.00    -0.315 N 
ATOM      4  H   UNL     1       7.189  -3.039  -2.024  0.00  0.00    +0.149 HD
ENDROOT
BRANCH   1   7
ATOM      5  N   UNL     1       3.622  -0.651  -0.037  0.00  0.00    -0.271 N 
ATOM      6  C   UNL     1       3.757  -2.109   0.053  0.00  0.00    +0.127 C 
ATOM      7  C   UNL     1       5.189  -2.421  -0.436  0.00  0.00    +0.101 C 
ATOM      8  C   UNL     1       5.921  -1.092  -0.134  0.00  0.00    +0.110 C 
ATOM      9  C   UNL     1       4.821  -0.054  -0.144  0.00  0.00    +0.221 C 
ATOM     10  O   UNL     1       4.997   1.143  -0.232  0.00  0.00    -0.275 OA
BRANCH   5  14
ATOM     11  C   UNL     1      -0.017   1.379   0.010  0.00  0.00    +0.000 A 
ATOM     12  C   UNL     1       1.170   2.089   0.016  0.00  0.00    +0.002 A 
ATOM     13  C   UNL     1       2.377   1.419   0.001  0.00  0.00    +0.023 A 
ATOM     14  C   UNL     1       2.400   0.031  -0.021  0.00  0.00    +0.036 A 
ATOM     15  C   UNL     1       1.206  -0.680  -0.028  0.00  0.00    +0.023 A 
ATOM     16  C   UNL     1       0.002  -0.004  -0.012  0.00  0.00    +0.002 A 
ENDBRANCH   5  14
ENDBRANCH   1   7
BRANCH   3  17
ATOM     17  C   UNL     1       6.374  -3.311  -3.965  0.00  0.00    +0.113 C 
BRANCH  17  18
ATOM     18  C   UNL     1       7.806  -3.614  -4.412  0.00  0.00    +0.115 C 
BRANCH  18  19
ATOM     19  C   UNL     1       7.818  -3.914  -5.889  0.00  0.00    +0.220 C 
ATOM     20  O   UNL     1       6.784  -3.889  -6.522  0.00  0.00    -0.275 OA
ATOM     21  N   UNL     1       8.979  -4.212  -6.506  0.00  0.00    -0.265 N 
ATOM     22  C   UNL     1       8.990  -4.488  -7.864  0.00  0.00    +0.165 A 
ATOM     23  N   UNL     1       7.986  -4.504  -8.709  0.00  0.00    -0.225 NA
ATOM     24  C   UNL     1       8.144  -4.793 -10.019  0.00  0.00    +0.080 A 
ATOM     25  C   UNL     1       7.154  -4.844 -11.028  0.00  0.00    +0.029 A 
ATOM     26  C   UNL     1       7.487  -5.157 -12.320  0.00  0.00    +0.002 A 
ATOM     27  C   UNL     1       8.796  -5.433 -12.685  0.00  0.00    +0.001 A 
ATOM     28  C   UNL     1       9.790  -5.392 -11.724  0.00  0.00    +0.017 A 
ATOM     29  C   UNL     1       9.467  -5.079 -10.428  0.00  0.00    +0.041 A 
ATOM     30  S   UNL     1      10.377  -4.906  -8.911  0.00  0.00    -0.052 S 
ATOM     31  H   UNL     1       9.806  -4.232  -6.000  0.00  0.00    +0.157 HD
ENDBRANCH  18  19
ENDBRANCH  17  18
ENDBRANCH   3  17
TORSDOF 5
