REMARK  Name = ZINC39568618
REMARK  8 active torsions:
REMARK  status: ('A' for Active; 'I' for Inactive)
REMARK    1  A    between atoms: C_1  and  C_2
REMARK    2  A    between atoms: C_4  and  C_22
REMARK    3  A    between atoms: C_6  and  C_8
REMARK    4  A    between atoms: C_8  and  C_14
REMARK    5  A    between atoms: N_9  and  N_10
REMARK    6  A    between atoms: C_11  and  C_13
REMARK    7  A    between atoms: C_16  and  C_21
REMARK    8  A    between atoms: C_18  and  C_20
REMARK                            x       y       z     vdW  Elec       q    Type
REMARK                         _______ _______ _______ _____ _____    ______ ____
ROOT
ATOM      1  C   UNL     1       1.379  -0.578   2.054  0.00  0.00    +0.094 C 
ATOM      2  N   UNL     1       2.083   0.380   1.578  0.00  0.00    -0.184 NA
ENDROOT
BRANCH   1   8
ATOM      3  C   UNL     1      -0.286   1.293   0.009  0.00  0.00    +0.041 C 
ATOM      4  C   UNL     1      -0.078  -0.197   0.086  0.00  0.00    -0.041 C 
ATOM      5  C   UNL     1      -0.034  -1.055  -0.933  0.00  0.00    +0.024 C 
ATOM      6  C   UNL     1       0.187  -2.408  -0.422  0.00  0.00    +0.034 C 
ATOM      7  N   UNL     1       0.280  -2.409   0.866  0.00  0.00    -0.275 NA
ATOM      8  C   UNL     1       0.132  -1.025   1.335  0.00  0.00    +0.179 C 
ATOM      9  C   UNL     1       0.292  -3.639  -1.285  0.00  0.00    +0.065 C 
ENDBRANCH   1   8
BRANCH   1  10
ATOM     10  C   UNL     1       1.796  -1.258   3.332  0.00  0.00    +0.179 C 
ATOM     11  C   UNL     1       2.650  -2.469   3.026  0.00  0.00    -0.041 C 
ATOM     12  C   UNL     1       1.990  -3.515   3.521  0.00  0.00    +0.024 C 
ATOM     13  C   UNL     1       0.744  -3.059   4.138  0.00  0.00    +0.034 C 
ATOM     14  N   UNL     1       0.619  -1.776   4.040  0.00  0.00    -0.275 NA
ATOM     15  C   UNL     1      -0.260  -3.966   4.802  0.00  0.00    +0.065 C 
ATOM     16  C   UNL     1       3.975  -2.488   2.308  0.00  0.00    +0.041 C 
ENDBRANCH   1  10
BRANCH   2  17
ATOM     17  N   UNL     1       3.188   0.859   2.294  0.00  0.00    -0.207 N 
ATOM     18  C   UNL     1       3.867   1.934   1.846  0.00  0.00    +0.229 C 
ATOM     19  O   UNL     1       3.578   2.431   0.778  0.00  0.00    -0.274 OA
ATOM     20  C   UNL     1       4.984   2.517   2.671  0.00  0.00    +0.111 C 
ATOM     21  H   UNL     1       3.464   0.417   3.112  0.00  0.00    +0.177 HD
ENDBRANCH   2  17
TORSDOF 3
