REMARK  Name = ZINC05446166
REMARK  10 active torsions:
REMARK  status: ('A' for Active; 'I' for Inactive)
REMARK    1  A    between atoms: C_1  and  C_2
REMARK    2  A    between atoms: C_5  and  C_8
REMARK    3  A    between atoms: C_8  and  O_29
REMARK    4  A    between atoms: C_10  and  C_22
REMARK    5  A    between atoms: N_12  and  C_17
REMARK    6  A    between atoms: C_17  and  C_18
REMARK    7  A    between atoms: C_18  and  C_19
REMARK    8  A    between atoms: C_19  and  N_54
REMARK    9  A    between atoms: C_20  and  N_54
REMARK   10  A    between atoms: C_21  and  N_54
REMARK                            x       y       z     vdW  Elec       q    Type
REMARK                         _______ _______ _______ _____ _____    ______ ____
ROOT
ATOM      1  C   UNL     1      -2.666   4.215   2.606  0.00  0.00    +0.133 C 
ATOM      2  C   UNL     1      -3.155   3.707   1.421  0.00  0.00    +0.071 C 
ATOM      3  C   UNL     1      -2.469   3.723   0.074  0.00  0.00    +0.144 C 
ATOM      4  N   UNL     1      -3.379   3.069  -0.870  0.00  0.00    -0.284 N 
ATOM      5  C   UNL     1      -4.489   2.689  -0.214  0.00  0.00    +0.288 C 
ATOM      6  O   UNL     1      -5.435   2.120  -0.720  0.00  0.00    -0.266 OA
ATOM      7  C   UNL     1      -4.390   3.069   1.221  0.00  0.00    +0.249 C 
ATOM      8  O   UNL     1      -5.234   2.863   2.075  0.00  0.00    -0.282 OA
ENDROOT
BRANCH   1  13
ATOM      9  C   UNL     1       2.251   7.197   2.648  0.00  0.00    +0.044 C 
ATOM     10  C   UNL     1       0.963   6.415   2.637  0.00  0.00    -0.050 A 
ATOM     11  C   UNL     1      -0.016   6.713   1.704  0.00  0.00    +0.004 A 
ATOM     12  C   UNL     1      -1.197   6.003   1.688  0.00  0.00    +0.012 A 
ATOM     13  C   UNL     1      -1.406   4.979   2.617  0.00  0.00    +0.017 A 
ATOM     14  C   UNL     1      -0.415   4.686   3.559  0.00  0.00    +0.012 A 
ATOM     15  C   UNL     1       0.763   5.402   3.560  0.00  0.00    +0.004 A 
ENDBRANCH   1  13
BRANCH   3  16
ATOM     16  C   UNL     1      -1.169   2.964   0.148  0.00  0.00    -0.022 A 
ATOM     17  C   UNL     1      -1.179   1.592   0.313  0.00  0.00    +0.008 A 
ATOM     18  C   UNL     1       0.012   0.895   0.386  0.00  0.00    +0.038 A 
ATOM     19  C   UNL     1       1.216   1.571   0.282  0.00  0.00    +0.123 A 
ATOM     20  C   UNL     1       1.225   2.945   0.111  0.00  0.00    +0.038 A 
ATOM     21  C   UNL     1       0.033   3.640   0.044  0.00  0.00    +0.008 A 
ATOM     22  F   UNL     1       2.381   0.890   0.348  0.00  0.00    -0.205 F 
ENDBRANCH   3  16
BRANCH   1  23
ATOM     23  O   UNL     1      -3.342   4.012   3.757  0.00  0.00    -0.506 OA
ATOM     24  H   UNL     1      -4.167   3.480   3.570  0.00  0.00    +0.292 HD
ENDBRANCH   1  23
BRANCH   4  25
ATOM     25  C   UNL     1      -3.121   2.863  -2.297  0.00  0.00    +0.107 C 
BRANCH  25  26
ATOM     26  C   UNL     1      -2.421   1.517  -2.499  0.00  0.00    +0.000 C 
BRANCH  26  27
ATOM     27  C   UNL     1      -2.152   1.302  -3.990  0.00  0.00    -0.078 C 
BRANCH  27  30
ATOM     28  C   UNL     1      -1.417  -0.342  -5.609  0.00  0.00    -0.097 C 
ATOM     29  C   UNL     1      -0.139   0.018  -3.584  0.00  0.00    -0.097 C 
ATOM     30  N   UNL     1      -1.496  -0.010  -4.171  0.00  0.00    +0.376 N 
ATOM     31  H   UNL     1      -2.050  -0.730  -3.692  0.00  0.00    -0.083 HD
ENDBRANCH  27  30
ENDBRANCH  26  27
ENDBRANCH  25  26
ENDBRANCH   4  25
TORSDOF 7
