REMARK  Name = ZINC20943233
REMARK  5 active torsions:
REMARK  status: ('A' for Active; 'I' for Inactive)
REMARK    1  A    between atoms: C_1  and  C_2
REMARK    2  A    between atoms: C_7  and  N_8
REMARK    3  A    between atoms: C_9  and  C_11
REMARK    4  A    between atoms: N_16  and  S_18
REMARK    5  A    between atoms: S_18  and  C_21
REMARK                            x       y       z     vdW  Elec       q    Type
REMARK                         _______ _______ _______ _____ _____    ______ ____
ROOT
ATOM      1  C   UNL     1       0.146   0.110  -4.878  0.00  0.00    +0.091 C 
ATOM      2  C   UNL     1       1.388   1.004  -4.864  0.00  0.00    +0.015 C 
ATOM      3  C   UNL     1       1.457   1.805  -6.167  0.00  0.00    +0.018 C 
ATOM      4  C   UNL     1       1.570   0.839  -7.350  0.00  0.00    +0.109 C 
ATOM      5  N   UNL     1       0.457  -0.118  -7.287  0.00  0.00    -0.176 NA
ATOM      6  C   UNL     1       0.244  -0.875  -6.047  0.00  0.00    +0.122 C 
ENDROOT
BRANCH   1   8
ATOM      7  N   UNL     1      -0.033   0.011  -2.413  0.00  0.00    -0.285 N 
ATOM      8  C   UNL     1       0.061  -0.653  -3.582  0.00  0.00    +0.222 C 
ATOM      9  O   UNL     1       0.078  -1.866  -3.590  0.00  0.00    -0.275 OA
ATOM     10  H   UNL     1      -0.139   1.106  -2.410  0.00  0.00    +0.155 HD
BRANCH   7  17
ATOM     11  C   UNL     1      -1.257   1.194  -0.133  0.00  0.00    +0.045 C 
ATOM     12  C   UNL     1      -0.580  -0.151  -0.066  0.00  0.00    -0.029 A 
ATOM     13  C   UNL     1      -0.546  -0.850   1.125  0.00  0.00    +0.005 A 
ATOM     14  C   UNL     1       0.075  -2.084   1.187  0.00  0.00    +0.000 A 
ATOM     15  C   UNL     1       0.663  -2.623   0.057  0.00  0.00    +0.002 A 
ATOM     16  C   UNL     1       0.631  -1.929  -1.137  0.00  0.00    +0.023 A 
ATOM     17  C   UNL     1       0.005  -0.692  -1.203  0.00  0.00    +0.036 A 
ENDBRANCH   7  17
ENDBRANCH   1   8
BRANCH   5  18
ATOM     18  S   UNL     1      -0.541  -0.337  -8.591  0.00  0.00    +0.061 S 
ATOM     19  O   UNL     1       0.199   0.054  -9.739  0.00  0.00    -0.153 OA
ATOM     20  O   UNL     1      -1.107  -1.633  -8.455  0.00  0.00    -0.153 OA
BRANCH  18  21
ATOM     21  C   UNL     1      -1.867   0.811  -8.431  0.00  0.00    +0.106 A 
ATOM     22  C   UNL     1      -3.022   0.455  -7.757  0.00  0.00    +0.030 A 
ATOM     23  C   UNL     1      -4.042   1.365  -7.632  0.00  0.00    +0.025 A 
ATOM     24  C   UNL     1      -3.947   2.654  -8.185  0.00  0.00    +0.037 A 
ATOM     25  C   UNL     1      -2.801   2.999  -8.868  0.00  0.00    -0.024 A 
ATOM     26  C   UNL     1      -1.766   2.069  -8.980  0.00  0.00    +0.034 A 
ATOM     27  C   UNL     1      -2.558   4.315  -9.532  0.00  0.00    +0.037 C 
ATOM     28  C   UNL     1      -3.755   4.957 -10.162  0.00  0.00    +0.014 C 
ATOM     29  C   UNL     1      -4.675   5.621  -9.167  0.00  0.00    +0.096 C 
ATOM     30  C   UNL     1      -5.447   4.627  -8.376  0.00  0.00    +0.217 C 
ATOM     31  O   UNL     1      -6.584   4.935  -8.085  0.00  0.00    -0.275 OA
ATOM     32  N   UNL     1      -5.039   3.461  -7.962  0.00  0.00    -0.285 N 
ATOM     33  H   UNL     1      -5.832   3.135  -7.274  0.00  0.00    +0.155 HD
ENDBRANCH  18  21
ENDBRANCH   5  18
TORSDOF 4
