REMARK  Name = ZINC01422115
REMARK  3 active torsions:
REMARK  status: ('A' for Active; 'I' for Inactive)
REMARK    1  A    between atoms: C_12  and  C_20
REMARK    2  A    between atoms: C_14  and  C_18
REMARK    3  A    between atoms: C_15  and  N_17
REMARK                            x       y       z     vdW  Elec       q    Type
REMARK                         _______ _______ _______ _____ _____    ______ ____
ROOT
ATOM      1  C   UNL     1      -0.016   1.359   0.009  0.00  0.00    +0.001 A 
ATOM      2  C   UNL     1       1.157   2.101   0.002  0.00  0.00    +0.001 A 
ATOM      3  C   UNL     1       2.380   1.456  -0.013  0.00  0.00    +0.016 A 
ATOM      4  C   UNL     1       2.406   0.078  -0.021  0.00  0.00    +0.026 A 
ATOM      5  C   UNL     1       1.230  -0.692  -0.013  0.00  0.00    +0.032 A 
ATOM      6  C   UNL     1       0.002  -0.004   0.002  0.00  0.00    +0.012 A 
ATOM      7  C   UNL     1       1.222  -2.161  -0.021  0.00  0.00    +0.147 A 
ATOM      8  C   UNL     1       2.276  -3.006  -0.037  0.00  0.00    +0.062 A 
ATOM      9  C   UNL     1       3.641  -2.605  -0.045  0.00  0.00    +0.225 A 
ATOM     10  O   UNL     1       4.557  -3.411  -0.055  0.00  0.00    -0.280 OA
ATOM     11  S   UNL     1       3.921  -0.845  -0.040  0.00  0.00    -0.047 S 
ATOM     12  C   UNL     1       2.062  -4.507  -0.051  0.00  0.00    +0.102 C 
ATOM     13  C   UNL     1       0.694  -4.837  -0.574  0.00  0.00    +0.098 C 
ATOM     14  C   UNL     1      -0.287  -3.900  -0.525  0.00  0.00    +0.199 C 
ATOM     15  O   UNL     1      -0.043  -2.690  -0.006  0.00  0.00    -0.440 OA
ENDROOT
BRANCH  12  16
ATOM     16  C   UNL     1       2.198  -5.043   1.350  0.00  0.00    -0.032 A 
ATOM     17  C   UNL     1       1.356  -4.607   2.362  0.00  0.00    +0.024 A 
ATOM     18  C   UNL     1       1.510  -5.121   3.635  0.00  0.00    +0.111 A 
ATOM     19  N   UNL     1       2.445  -6.016   3.893  0.00  0.00    -0.263 NA
ATOM     20  C   UNL     1       3.263  -6.453   2.956  0.00  0.00    +0.111 A 
ATOM     21  C   UNL     1       3.164  -5.989   1.658  0.00  0.00    +0.024 A 
ENDBRANCH  12  16
BRANCH  14  22
ATOM     22  N   UNL     1      -1.536  -4.194  -1.010  0.00  0.00    -0.328 N 
ATOM     23  H   UNL     1      -1.716  -5.070  -1.387  0.00  0.00    +0.145 HD
ATOM     24  H   UNL     1      -2.239  -3.527  -0.976  0.00  0.00    +0.145 HD
ENDBRANCH  14  22
BRANCH  13  25
ATOM     25  C   UNL     1       0.425  -6.133  -1.122  0.00  0.00    +0.101 C 
ATOM     26  N   UNL     1       0.212  -7.160  -1.556  0.00  0.00    -0.191 NA
ENDBRANCH  13  25
TORSDOF 3
