REMARK  Name = ZINC59023490
REMARK  2 active torsions:
REMARK  status: ('A' for Active; 'I' for Inactive)
REMARK    1  A    between atoms: N_11  and  C_12
REMARK    2  A    between atoms: C_22  and  N_24
REMARK                            x       y       z     vdW  Elec       q    Type
REMARK                         _______ _______ _______ _____ _____    ______ ____
ROOT
ATOM      1  C   UNL     1       4.888  -0.572   0.152  0.00  0.00    +0.095 C 
ATOM      2  C   UNL     1       5.389  -1.349  -1.068  0.00  0.00    +0.044 C 
ATOM      3  C   UNL     1       6.865  -1.015  -1.310  0.00  0.00    +0.108 C 
ATOM      4  N   UNL     1       7.618  -1.278  -0.076  0.00  0.00    -0.314 N 
ATOM      5  C   UNL     1       7.166  -0.652   1.174  0.00  0.00    +0.108 C 
ATOM      6  C   UNL     1       5.687  -0.990   1.389  0.00  0.00    +0.044 C 
ATOM      7  C   UNL     1       8.736  -2.103  -0.091  0.00  0.00    +0.142 A 
ATOM      8  C   UNL     1       9.286  -2.511  -1.304  0.00  0.00    +0.154 A 
ATOM      9  N   UNL     1      10.348  -3.295  -1.318  0.00  0.00    -0.256 NA
ATOM     10  C   UNL     1      10.893  -3.695  -0.182  0.00  0.00    +0.159 A 
ATOM     11  C   UNL     1      10.349  -3.291   1.031  0.00  0.00    +0.174 A 
ATOM     12  N   UNL     1       9.285  -2.499   1.050  0.00  0.00    -0.210 NA
ENDROOT
BRANCH   1  23
ATOM     13  C   UNL     1       0.012   1.408   0.454  0.00  0.00    +0.002 A 
ATOM     14  C   UNL     1       1.183   2.106   0.209  0.00  0.00    +0.002 A 
ATOM     15  C   UNL     1       2.392   1.441   0.160  0.00  0.00    +0.028 A 
ATOM     16  C   UNL     1       2.434   0.069   0.355  0.00  0.00    +0.070 A 
ATOM     17  C   UNL     1       1.254  -0.635   0.602  0.00  0.00    +0.067 A 
ATOM     18  C   UNL     1       0.044   0.041   0.649  0.00  0.00    +0.028 A 
ATOM     19  N   UNL     1       1.607  -1.973   0.755  0.00  0.00    -0.306 N 
ATOM     20  H   UNL     1       0.997  -2.705   0.936  0.00  0.00    +0.170 HD
ATOM     21  C   UNL     1       2.942  -2.079   0.609  0.00  0.00    +0.328 A 
ATOM     22  O   UNL     1       3.575  -3.115   0.684  0.00  0.00    -0.247 OA
ATOM     23  N   UNL     1       3.469  -0.864   0.367  0.00  0.00    -0.289 N 
ENDBRANCH   1  23
BRANCH  11  24
ATOM     24  N   UNL     1      10.927  -3.715   2.232  0.00  0.00    -0.220 N 
ATOM     25  C   UNL     1      10.497  -3.402   3.482  0.00  0.00    +0.116 A 
ATOM     26  C   UNL     1      11.324  -4.009   4.363  0.00  0.00    +0.041 A 
ATOM     27  C   UNL     1      12.289  -4.715   3.635  0.00  0.00    +0.135 A 
ATOM     28  N   UNL     1      12.049  -4.544   2.360  0.00  0.00    -0.173 NA
ENDBRANCH  11  24
TORSDOF 2
