REMARK  Name = ZINC08598779
REMARK  7 active torsions:
REMARK  status: ('A' for Active; 'I' for Inactive)
REMARK    1  A    between atoms: C_6  and  C_7
REMARK    2  A    between atoms: C_7  and  N_8
REMARK    3  A    between atoms: C_9  and  C_11
REMARK    4  A    between atoms: C_11  and  C_12
REMARK    5  A    between atoms: C_12  and  N_13
REMARK    6  A    between atoms: N_13  and  S_14
REMARK    7  A    between atoms: S_14  and  C_17
REMARK                            x       y       z     vdW  Elec       q    Type
REMARK                         _______ _______ _______ _____ _____    ______ ____
ROOT
ATOM      1  N   UNL     1      -5.061  -2.968  -4.394  0.00  0.00    -0.189 NA
ATOM      2  H   UNL     1      -4.661  -2.469  -5.123  0.00  0.00    +0.148 HD
ENDROOT
BRANCH   1   3
ATOM      3  S   UNL     1      -6.233  -4.095  -4.707  0.00  0.00    +0.058 S 
ATOM      4  O   UNL     1      -6.448  -4.077  -6.112  0.00  0.00    -0.153 OA
ATOM      5  O   UNL     1      -5.860  -5.274  -4.008  0.00  0.00    -0.153 OA
BRANCH   3   6
ATOM      6  C   UNL     1      -7.722  -3.518  -3.962  0.00  0.00    +0.106 A 
ATOM      7  C   UNL     1      -8.027  -3.858  -2.657  0.00  0.00    +0.030 A 
ATOM      8  C   UNL     1      -9.190  -3.397  -2.090  0.00  0.00    +0.025 A 
ATOM      9  C   UNL     1     -10.085  -2.586  -2.809  0.00  0.00    +0.037 A 
ATOM     10  C   UNL     1      -9.779  -2.254  -4.111  0.00  0.00    -0.024 A 
ATOM     11  C   UNL     1      -8.589  -2.719  -4.673  0.00  0.00    +0.034 A 
ATOM     12  C   UNL     1     -10.630  -1.416  -5.009  0.00  0.00    +0.037 C 
ATOM     13  C   UNL     1     -12.108  -1.585  -4.848  0.00  0.00    +0.014 C 
ATOM     14  C   UNL     1     -12.667  -0.873  -3.640  0.00  0.00    +0.096 C 
ATOM     15  C   UNL     1     -12.310  -1.565  -2.374  0.00  0.00    +0.217 C 
ATOM     16  O   UNL     1     -13.146  -1.548  -1.495  0.00  0.00    -0.275 OA
ATOM     17  N   UNL     1     -11.198  -2.188  -2.105  0.00  0.00    -0.285 N 
ATOM     18  H   UNL     1     -11.139  -2.433  -1.168  0.00  0.00    +0.155 HD
ENDBRANCH   3   6
ENDBRANCH   1   3
BRANCH   1  19
ATOM     19  C   UNL     1      -4.627  -2.726  -3.015  0.00  0.00    +0.115 C 
BRANCH  19  20
ATOM     20  C   UNL     1      -3.313  -1.943  -3.024  0.00  0.00    +0.112 C 
BRANCH  20  22
ATOM     21  N   UNL     1      -1.726  -1.017  -1.368  0.00  0.00    -0.311 N 
ATOM     22  C   UNL     1      -2.867  -1.694  -1.606  0.00  0.00    +0.215 C 
ATOM     23  O   UNL     1      -3.535  -2.102  -0.680  0.00  0.00    -0.276 OA
ATOM     24  H   UNL     1      -1.192  -0.691  -2.108  0.00  0.00    +0.149 HD
BRANCH  21  25
ATOM     25  C   UNL     1      -1.293  -0.775   0.011  0.00  0.00    +0.139 C 
BRANCH  25  31
ATOM     26  C   UNL     1      -0.017   1.378   0.010  0.00  0.00    +0.006 A 
ATOM     27  C   UNL     1       1.171   2.086   0.002  0.00  0.00    +0.020 A 
ATOM     28  C   UNL     1       2.378   1.410  -0.013  0.00  0.00    +0.041 A 
ATOM     29  C   UNL     1       2.396   0.027  -0.021  0.00  0.00    +0.020 A 
ATOM     30  C   UNL     1       1.208  -0.679  -0.013  0.00  0.00    +0.006 A 
ATOM     31  C   UNL     1       0.002  -0.004   0.002  0.00  0.00    -0.030 A 
ATOM     32 CL   UNL     1       3.870   2.298  -0.023  0.00  0.00    -0.084 Cl
ENDBRANCH  25  31
ENDBRANCH  21  25
ENDBRANCH  20  22
ENDBRANCH  19  20
ENDBRANCH   1  19
TORSDOF 7
