REMARK  Name = ZINC13655639
REMARK  7 active torsions:
REMARK  status: ('A' for Active; 'I' for Inactive)
REMARK    1  A    between atoms: C_1  and  N_2
REMARK    2  A    between atoms: N_2  and  C_3
REMARK    3  A    between atoms: N_2  and  C_10
REMARK    4  A    between atoms: C_3  and  C_4
REMARK    5  A    between atoms: C_10  and  C_11
REMARK    6  A    between atoms: C_12  and  O_33
REMARK    7  A    between atoms: C_19  and  C_20
REMARK                            x       y       z     vdW  Elec       q    Type
REMARK                         _______ _______ _______ _____ _____    ______ ____
ROOT
ATOM      1  C   UNL     1      -1.298   0.298  -1.694  0.00  0.00    +0.020 A 
ATOM      2  C   UNL     1      -1.840   1.563  -1.858  0.00  0.00    +0.122 A 
ATOM      3  C   UNL     1      -2.555   1.883  -3.009  0.00  0.00    +0.046 A 
ATOM      4  C   UNL     1      -2.730   0.948  -3.990  0.00  0.00    +0.019 A 
ATOM      5  C   UNL     1      -2.189  -0.329  -3.838  0.00  0.00    +0.068 A 
ATOM      6  C   UNL     1      -1.461  -0.662  -2.684  0.00  0.00    +0.144 A 
ATOM      7  O   UNL     1      -1.036  -1.941  -2.768  0.00  0.00    -0.451 OA
ATOM      8  C   UNL     1      -1.424  -2.526  -3.925  0.00  0.00    +0.176 C 
ATOM      9  C   UNL     1      -1.156  -3.801  -4.309  0.00  0.00    +0.061 C 
ATOM     10  C   UNL     1      -2.196  -1.534  -4.687  0.00  0.00    +0.231 C 
ATOM     11  O   UNL     1      -2.717  -1.674  -5.780  0.00  0.00    -0.283 OA
ENDROOT
BRANCH   9  12
ATOM     12  C   UNL     1      -0.263  -4.638  -3.500  0.00  0.00    +0.022 A 
ATOM     13  C   UNL     1       0.030  -4.283  -2.178  0.00  0.00    +0.031 A 
ATOM     14  C   UNL     1       0.872  -5.074  -1.426  0.00  0.00    +0.042 A 
ATOM     15  C   UNL     1       1.431  -6.218  -1.974  0.00  0.00    +0.029 A 
ATOM     16  C   UNL     1       1.151  -6.581  -3.278  0.00  0.00    +0.022 A 
ATOM     17  C   UNL     1       0.299  -5.805  -4.046  0.00  0.00    +0.136 A 
ATOM     18  O   UNL     1       0.003  -6.158  -5.323  0.00  0.00    -0.465 OA
ATOM     19  C   UNL     1       0.859  -7.122  -5.942  0.00  0.00    +0.395 C 
ATOM     20  O   UNL     1       1.053  -8.213  -5.034  0.00  0.00    -0.339 OA
ATOM     21  C   UNL     1       1.773  -7.828  -3.854  0.00  0.00    +0.202 C 
ATOM     22 CL   UNL     1       1.234  -4.635   0.214  0.00  0.00    -0.084 Cl
ENDBRANCH   9  12
BRANCH   2  23
ATOM     23  O   UNL     1      -1.672   2.498  -0.888  0.00  0.00    -0.506 OA
ATOM     24  H   UNL     1      -0.878   3.038  -0.996  0.00  0.00    +0.292 HD
ENDBRANCH   2  23
BRANCH   1  25
ATOM     25  C   UNL     1      -0.526  -0.034  -0.443  0.00  0.00    -0.035 C 
BRANCH  25  27
ATOM     26  C   UNL     1       1.048   1.736  -0.823  0.00  0.00    -0.095 C 
ATOM     27  N   UNL     1       0.894   0.287  -0.644  0.00  0.00    +0.383 N 
ATOM     28  H   UNL     1       1.233  -0.191  -1.465  0.00  0.00    -0.081 HD
BRANCH  27  29
ATOM     29  C   UNL     1       1.665  -0.147   0.529  0.00  0.00    -0.043 C 
BRANCH  29  30
ATOM     30  C   UNL     1       3.134   0.069   0.272  0.00  0.00    -0.064 A 
ATOM     31  C   UNL     1       3.888  -0.932  -0.312  0.00  0.00    +0.002 A 
ATOM     32  C   UNL     1       5.236  -0.733  -0.548  0.00  0.00    +0.000 A 
ATOM     33  C   UNL     1       5.829   0.466  -0.200  0.00  0.00    +0.000 A 
ATOM     34  C   UNL     1       5.075   1.467   0.384  0.00  0.00    +0.000 A 
ATOM     35  C   UNL     1       3.726   1.270   0.615  0.00  0.00    +0.002 A 
ENDBRANCH  29  30
ENDBRANCH  27  29
ENDBRANCH  25  27
ENDBRANCH   1  25
TORSDOF 6
