REMARK  Name = ZINC17087283
REMARK  5 active torsions:
REMARK  status: ('A' for Active; 'I' for Inactive)
REMARK    1  A    between atoms: C_1  and  C_2
REMARK    2  A    between atoms: C_4  and  C_7
REMARK    3  A    between atoms: N_8  and  O_9
REMARK    4  A    between atoms: O_9  and  C_10
REMARK    5  A    between atoms: C_10  and  C_12
REMARK                            x       y       z     vdW  Elec       q    Type
REMARK                         _______ _______ _______ _____ _____    ______ ____
ROOT
ATOM      1  C   UNL     1       0.942   3.264   0.011  0.00  0.00    +0.374 C 
ATOM      2  O   UNL     1      -0.149   3.801   0.024  0.00  0.00    -0.242 OA
ENDROOT
BRANCH   1   3
ATOM      3  C   UNL     1       2.161   4.079   0.003  0.00  0.00    +0.118 A 
ATOM      4  C   UNL     1       2.274   5.436   0.004  0.00  0.00    +0.070 A 
ATOM      5  C   UNL     1       3.549   6.033   0.001  0.00  0.00    +0.008 A 
ATOM      6  C   UNL     1       3.871   7.415   0.006  0.00  0.00    +0.011 A 
ATOM      7  C   UNL     1       5.164   7.827  -0.003  0.00  0.00    +0.016 A 
ATOM      8  C   UNL     1       6.218   6.920  -0.019  0.00  0.00    +0.019 A 
ATOM      9  C   UNL     1       5.949   5.565  -0.025  0.00  0.00    +0.031 A 
ATOM     10  C   UNL     1       4.640   5.133  -0.015  0.00  0.00    +0.023 A 
ATOM     11  S   UNL     1       3.861   3.538  -0.016  0.00  0.00    -0.080 S 
ATOM     12 BR   UNL     1       8.006   7.536  -0.033  0.00  0.00    -0.050 Br
ATOM     13 CL   UNL     1       0.849   6.428   0.014  0.00  0.00    -0.082 Cl
ENDBRANCH   1   3
BRANCH   1  14
ATOM     14  O   UNL     1       1.031   1.919   0.003  0.00  0.00    -0.309 OA
BRANCH  14  16
ATOM     15  C   UNL     1       0.002  -0.004   0.002  0.00  0.00    +0.204 C 
ATOM     16  N   UNL     1      -0.016   1.296   0.009  0.00  0.00    -0.055 NA
ATOM     17  N   UNL     1       1.209  -0.679  -0.013  0.00  0.00    -0.338 N 
ATOM     18  H   UNL     1       2.043  -0.183  -0.018  0.00  0.00    +0.144 HD
ATOM     19  H   UNL     1       1.222  -1.649  -0.018  0.00  0.00    +0.144 HD
BRANCH  15  23
ATOM     20  C   UNL     1      -3.367  -3.684   0.015  0.00  0.00    +0.112 C 
ATOM     21  C   UNL     1      -2.695  -2.335   0.016  0.00  0.00    +0.225 A 
ATOM     22  N   UNL     1      -1.405  -2.109   0.004  0.00  0.00    -0.189 NA
ATOM     23  C   UNL     1      -1.272  -0.763   0.010  0.00  0.00    +0.238 A 
ATOM     24  N   UNL     1      -2.477  -0.256   0.030  0.00  0.00    -0.053 NA
ATOM     25  O   UNL     1      -3.303  -1.145   0.029  0.00  0.00    -0.338 OA
ENDBRANCH  15  23
ENDBRANCH  14  16
ENDBRANCH   1  14
TORSDOF 4
