REMARK  Name = ZINC63572249
REMARK  8 active torsions:
REMARK  status: ('A' for Active; 'I' for Inactive)
REMARK    1  A    between atoms: C_1  and  O_2
REMARK    2  A    between atoms: O_2  and  C_3
REMARK    3  A    between atoms: C_3  and  C_4
REMARK    4  A    between atoms: C_4  and  C_5
REMARK    5  A    between atoms: C_5  and  N_6
REMARK    6  A    between atoms: C_22  and  C_24
REMARK    7  A    between atoms: C_27  and  O_30
REMARK    8  A    between atoms: O_30  and  C_31
REMARK                            x       y       z     vdW  Elec       q    Type
REMARK                         _______ _______ _______ _____ _____    ______ ____
ROOT
ATOM      1  N   UNL     1       0.230  -4.436  -2.980  0.00  0.00    -0.299 N 
ATOM      2  C   UNL     1       1.152  -5.118  -3.687  0.00  0.00    +0.303 C 
ATOM      3  O   UNL     1       1.677  -4.604  -4.656  0.00  0.00    -0.253 OA
ATOM      4  N   UNL     1       1.493  -6.369  -3.320  0.00  0.00    -0.276 N 
ATOM      5  C   UNL     1       0.763  -7.030  -2.233  0.00  0.00    +0.114 C 
ATOM      6  C   UNL     1       1.752  -7.437  -1.125  0.00  0.00    +0.052 C 
ATOM      7  C   UNL     1       2.934  -8.074  -1.812  0.00  0.00    -0.035 C 
ATOM      8  C   UNL     1       3.542  -9.237  -1.615  0.00  0.00    +0.001 A 
ATOM      9  C   UNL     1       3.359 -10.277  -0.590  0.00  0.00    +0.030 A 
ATOM     10  C   UNL     1       4.155 -11.374  -0.699  0.00  0.00    +0.042 A 
ATOM     11  C   UNL     1       5.105 -11.537  -1.714  0.00  0.00    +0.022 A 
ATOM     12  C   UNL     1       5.346 -10.628  -2.692  0.00  0.00    +0.027 A 
ATOM     13  C   UNL     1       4.576  -9.429  -2.678  0.00  0.00    +0.043 A 
ATOM     14  N   UNL     1       4.614  -8.396  -3.466  0.00  0.00    -0.375 N 
ATOM     15  C   UNL     1       3.662  -7.402  -2.971  0.00  0.00    +0.131 C 
ATOM     16  C   UNL     1       2.590  -7.059  -4.017  0.00  0.00    +0.134 C 
ATOM     17 CL   UNL     1       3.986 -12.635   0.482  0.00  0.00    -0.084 Cl
ATOM     18  H   UNL     1      -0.243  -4.870  -2.252  0.00  0.00    +0.150 HD
ATOM     19  H   UNL     1       5.177  -8.301  -4.250  0.00  0.00    +0.160 HD
ENDROOT
BRANCH  16  20
ATOM     20  C   UNL     1       3.173  -6.154  -5.072  0.00  0.00    -0.024 A 
ATOM     21  C   UNL     1       3.846  -5.005  -4.700  0.00  0.00    +0.009 A 
ATOM     22  C   UNL     1       4.382  -4.174  -5.665  0.00  0.00    +0.046 A 
ATOM     23  C   UNL     1       4.244  -4.493  -7.008  0.00  0.00    +0.120 A 
ATOM     24  C   UNL     1       3.568  -5.646  -7.378  0.00  0.00    +0.046 A 
ATOM     25  C   UNL     1       3.039  -6.477  -6.410  0.00  0.00    +0.009 A 
BRANCH  23  26
ATOM     26  O   UNL     1       4.769  -3.676  -7.959  0.00  0.00    -0.495 OA
ATOM     27  C   UNL     1       4.589  -4.067  -9.321  0.00  0.00    +0.277 C 
ENDBRANCH  23  26
ENDBRANCH  16  20
BRANCH   1  28
ATOM     28  C   UNL     1      -0.061  -3.038  -3.310  0.00  0.00    +0.108 C 
BRANCH  28  29
ATOM     29  C   UNL     1      -1.137  -2.503  -2.364  0.00  0.00    +0.047 C 
BRANCH  29  30
ATOM     30  C   UNL     1      -1.440  -1.044  -2.709  0.00  0.00    +0.161 C 
BRANCH  30  32
ATOM     31  C   UNL     1      -2.804   0.818  -2.063  0.00  0.00    +0.193 C 
ATOM     32  O   UNL     1      -2.446  -0.544  -1.825  0.00  0.00    -0.383 OA
ENDBRANCH  30  32
ENDBRANCH  29  30
ENDBRANCH  28  29
ENDBRANCH   1  28
TORSDOF 6
