REMARK  Name = ZINC49546814
REMARK  2 active torsions:
REMARK  status: ('A' for Active; 'I' for Inactive)
REMARK    1  A    between atoms: C_6  and  S_7
REMARK    2  A    between atoms: S_7  and  N_10
REMARK                            x       y       z     vdW  Elec       q    Type
REMARK                         _______ _______ _______ _____ _____    ______ ____
ROOT
ATOM      1  S   UNL     1      -1.499  -0.926   0.012  0.00  0.00    +0.101 S 
ATOM      2  O   UNL     1      -1.188  -2.203   0.553  0.00  0.00    -0.146 OA
ATOM      3  O   UNL     1      -2.492  -0.081   0.577  0.00  0.00    -0.146 OA
ENDROOT
BRANCH   1   4
ATOM      4  N   UNL     1      -1.932  -1.174  -1.567  0.00  0.00    -0.103 NA
ATOM      5  C   UNL     1      -3.024  -1.841  -1.850  0.00  0.00    +0.192 A 
ATOM      6  N   UNL     1      -3.941  -2.408  -1.004  0.00  0.00    -0.336 N 
ATOM      7  C   UNL     1      -5.040  -3.078  -1.526  0.00  0.00    +0.028 A 
ATOM      8  C   UNL     1      -5.146  -3.139  -2.854  0.00  0.00    +0.012 A 
ATOM      9  S   UNL     1      -3.721  -2.250  -3.442  0.00  0.00    -0.053 S 
ATOM     10  C   UNL     1      -6.367  -3.891  -3.302  0.00  0.00    +0.044 C 
ATOM     11  C   UNL     1      -6.815  -4.680  -2.051  0.00  0.00    +0.011 C 
ATOM     12  C   UNL     1      -6.240  -3.809  -0.916  0.00  0.00    +0.054 C 
ATOM     13  H   UNL     1      -3.823  -2.341  -0.043  0.00  0.00    +0.168 HD
ENDBRANCH   1   4
BRANCH   1  19
ATOM     14  C   UNL     1      -0.017   1.383   0.010  0.00  0.00    +0.049 A 
ATOM     15  C   UNL     1       1.180   2.073   0.002  0.00  0.00    +0.114 A 
ATOM     16  N   UNL     1       2.331   1.429  -0.013  0.00  0.00    -0.243 NA
ATOM     17  C   UNL     1       2.388   0.110  -0.020  0.00  0.00    +0.131 A 
ATOM     18  C   UNL     1       1.230  -0.647  -0.014  0.00  0.00    +0.069 A 
ATOM     19  C   UNL     1       0.002  -0.004   0.002  0.00  0.00    +0.117 A 
ATOM     20 CL   UNL     1       3.932  -0.683  -0.039  0.00  0.00    -0.062 Cl
ENDBRANCH   1  19
TORSDOF 2
