REMARK  Name = ZINC05923716
REMARK  7 active torsions:
REMARK  status: ('A' for Active; 'I' for Inactive)
REMARK    1  A    between atoms: C_1  and  C_2
REMARK    2  A    between atoms: C_2  and  C_3
REMARK    3  A    between atoms: C_3  and  S_4
REMARK    4  A    between atoms: S_4  and  C_5
REMARK    5  A    between atoms: C_12  and  C_24
REMARK    6  A    between atoms: C_17  and  C_21
REMARK    7  A    between atoms: C_17  and  C_22
REMARK                            x       y       z     vdW  Elec       q    Type
REMARK                         _______ _______ _______ _____ _____    ______ ____
ROOT
ATOM      1  C   UNL     1       1.589  -2.718  -2.758  0.00  0.00    +0.171 A 
ATOM      2  N   UNL     1       1.780  -4.027  -3.083  0.00  0.00    -0.322 N 
ATOM      3  C   UNL     1       2.435  -4.359  -4.240  0.00  0.00    +0.111 A 
ATOM      4  C   UNL     1       2.889  -3.369  -5.056  0.00  0.00    +0.069 A 
ATOM      5  C   UNL     1       2.675  -2.025  -4.680  0.00  0.00    +0.280 A 
ATOM      6  N   UNL     1       2.021  -1.751  -3.541  0.00  0.00    -0.185 NA
ATOM      7  O   UNL     1       3.078  -1.117  -5.391  0.00  0.00    -0.265 OA
ATOM      8  C   UNL     1       3.599  -3.691  -6.337  0.00  0.00    +0.092 C 
ATOM      9  C   UNL     1       4.089  -5.117  -6.350  0.00  0.00    +0.024 C 
ATOM     10  C   UNL     1       5.072  -5.469  -7.291  0.00  0.00    +0.162 C 
ATOM     11  C   UNL     1       5.594  -6.877  -7.384  0.00  0.00    +0.086 C 
ATOM     12  C   UNL     1       4.502  -7.845  -6.917  0.00  0.00    -0.023 C 
ATOM     13  C   UNL     1       4.085  -7.455  -5.496  0.00  0.00    +0.058 C 
ATOM     14  C   UNL     1       3.595  -6.028  -5.486  0.00  0.00    +0.017 C 
ATOM     15  N   UNL     1       2.637  -5.678  -4.574  0.00  0.00    -0.304 N 
ATOM     16  C   UNL     1       3.294  -7.748  -7.851  0.00  0.00    +0.011 C 
ATOM     17  C   UNL     1       5.046  -9.274  -6.919  0.00  0.00    +0.011 C 
ATOM     18  O   UNL     1       5.508  -4.620  -8.043  0.00  0.00    -0.292 OA
ATOM     19  H   UNL     1       2.094  -6.366  -4.158  0.00  0.00    +0.153 HD
ATOM     20  H   UNL     1       1.453  -4.725  -2.495  0.00  0.00    +0.169 HD
ENDROOT
BRANCH   8  21
ATOM     21  C   UNL     1       2.653  -3.485  -7.492  0.00  0.00    -0.032 A 
ATOM     22  C   UNL     1       1.469  -4.203  -7.576  0.00  0.00    +0.024 A 
ATOM     23  C   UNL     1       0.626  -3.988  -8.649  0.00  0.00    +0.111 A 
ATOM     24  N   UNL     1       0.936  -3.112  -9.586  0.00  0.00    -0.263 NA
ATOM     25  C   UNL     1       2.052  -2.412  -9.538  0.00  0.00    +0.111 A 
ATOM     26  C   UNL     1       2.941  -2.569  -8.492  0.00  0.00    +0.024 A 
ENDBRANCH   8  21
BRANCH   1  27
ATOM     27  S   UNL     1       0.743  -2.311  -1.267  0.00  0.00    -0.088 S 
BRANCH  27  28
ATOM     28  C   UNL     1       0.718  -0.497  -1.257  0.00  0.00    +0.077 C 
BRANCH  28  30
ATOM     29  C   UNL     1      -0.019   1.526   0.010  0.00  0.00    +0.004 C 
ATOM     30  C   UNL     1       0.002  -0.004   0.002  0.00  0.00    +0.008 C 
ENDBRANCH  28  30
ENDBRANCH  27  28
ENDBRANCH   1  27
TORSDOF 4
