REMARK  Name = ZINC42652312
REMARK  4 active torsions:
REMARK  status: ('A' for Active; 'I' for Inactive)
REMARK    1  A    between atoms: C_4  and  N_7
REMARK    2  A    between atoms: C_8  and  S_12
REMARK    3  A    between atoms: S_12  and  C_13
REMARK    4  A    between atoms: C_13  and  C_14
REMARK                            x       y       z     vdW  Elec       q    Type
REMARK                         _______ _______ _______ _____ _____    ______ ____
ROOT
ATOM      1  S   UNL     1       2.824  -2.812   1.538  0.00  0.00    -0.078 S 
ENDROOT
BRANCH   1   3
ATOM      2  N   UNL     1       3.624  -0.652  -0.037  0.00  0.00    -0.187 N 
ATOM      3  C   UNL     1       3.918  -1.831   0.567  0.00  0.00    +0.214 A 
ATOM      4  N   UNL     1       5.176  -2.102   0.291  0.00  0.00    -0.101 NA
ATOM      5  N   UNL     1       5.685  -1.178  -0.441  0.00  0.00    -0.022 NA
ATOM      6  N   UNL     1       4.809  -0.266  -0.689  0.00  0.00    -0.038 NA
BRANCH   2  10
ATOM      7  C   UNL     1      -0.017   1.379   0.010  0.00  0.00    +0.000 A 
ATOM      8  C   UNL     1       1.170   2.089   0.002  0.00  0.00    +0.002 A 
ATOM      9  C   UNL     1       2.377   1.419  -0.013  0.00  0.00    +0.028 A 
ATOM     10  C   UNL     1       2.399   0.031  -0.021  0.00  0.00    +0.070 A 
ATOM     11  C   UNL     1       1.207  -0.680  -0.013  0.00  0.00    +0.028 A 
ATOM     12  C   UNL     1       0.002  -0.004   0.002  0.00  0.00    +0.002 A 
ENDBRANCH   2  10
ENDBRANCH   1   3
BRANCH   1  13
ATOM     13  C   UNL     1       3.835  -4.234   2.038  0.00  0.00    +0.134 C 
BRANCH  13  14
ATOM     14  C   UNL     1       3.007  -5.165   2.885  0.00  0.00    +0.070 A 
ATOM     15  C   UNL     1       2.885  -5.108   4.230  0.00  0.00    +0.116 A 
ATOM     16  N   UNL     1       2.050  -6.125   4.603  0.00  0.00    -0.305 N 
ATOM     17  C   UNL     1       1.580  -6.536   5.817  0.00  0.00    +0.108 A 
ATOM     18  C   UNL     1       0.747  -7.594   5.910  0.00  0.00    +0.034 A 
ATOM     19  C   UNL     1       0.351  -8.288   4.753  0.00  0.00    +0.020 A 
ATOM     20  C   UNL     1       0.812  -7.889   3.538  0.00  0.00    +0.048 A 
ATOM     21  C   UNL     1       1.681  -6.782   3.458  0.00  0.00    +0.138 A 
ATOM     22  N   UNL     1       2.269  -6.181   2.433  0.00  0.00    -0.232 NA
ATOM     23 BR   UNL     1       0.109  -8.146   7.603  0.00  0.00    -0.049 Br
ENDBRANCH  13  14
ENDBRANCH   1  13
TORSDOF 4
