REMARK  Name = ZINC14456384
REMARK  4 active torsions:
REMARK  status: ('A' for Active; 'I' for Inactive)
REMARK    1  A    between atoms: C_1  and  C_2
REMARK    2  A    between atoms: C_5  and  N_24
REMARK    3  A    between atoms: C_9  and  C_18
REMARK    4  A    between atoms: C_21  and  C_23
REMARK                            x       y       z     vdW  Elec       q    Type
REMARK                         _______ _______ _______ _____ _____    ______ ____
ROOT
ATOM      1  C   UNL     1       4.101   2.163  -2.570  0.00  0.00    +0.045 C 
ATOM      2  C   UNL     1       3.365   2.081  -1.257  0.00  0.00    -0.029 A 
ATOM      3  C   UNL     1       3.971   2.538  -0.108  0.00  0.00    +0.007 A 
ATOM      4  C   UNL     1       3.309   2.468   1.104  0.00  0.00    +0.033 A 
ATOM      5  C   UNL     1       2.036   1.932   1.157  0.00  0.00    +0.132 A 
ATOM      6  C   UNL     1       1.424   1.468   0.012  0.00  0.00    +0.011 A 
ATOM      7  C   UNL     1       2.078   1.543  -1.221  0.00  0.00    +0.037 A 
ATOM      8  N   UNL     1       1.522   1.121  -2.427  0.00  0.00    -0.336 N 
ATOM      9  C   UNL     1       0.196   0.485  -2.358  0.00  0.00    +0.112 C 
ATOM     10  C   UNL     1      -0.607   1.240  -1.319  0.00  0.00    +0.029 C 
ATOM     11  C   UNL     1       0.068   0.876   0.040  0.00  0.00    +0.051 C 
ATOM     12  C   UNL     1      -0.963   1.285   1.026  0.00  0.00    -0.023 C 
ATOM     13  C   UNL     1      -2.150   1.196   0.481  0.00  0.00    -0.030 C 
ATOM     14  C   UNL     1      -2.016   0.745  -0.976  0.00  0.00    +0.033 C 
ATOM     15  H   UNL     1       2.171   0.548  -2.944  0.00  0.00    +0.147 HD
ENDROOT
BRANCH   9  16
ATOM     16  C   UNL     1      -0.486   0.573  -3.699  0.00  0.00    +0.010 A 
ATOM     17  C   UNL     1      -1.233  -0.359  -4.339  0.00  0.00    +0.013 A 
ATOM     18  C   UNL     1      -1.771  -0.053  -5.576  0.00  0.00    +0.011 A 
ATOM     19  C   UNL     1      -1.526   1.166  -6.116  0.00  0.00    -0.013 A 
ATOM     20  S   UNL     1      -0.514   1.930  -4.859  0.00  0.00    -0.097 S 
ATOM     21  C   UNL     1      -1.987   1.729  -7.435  0.00  0.00    +0.051 C 
ENDBRANCH   9  16
BRANCH   5  22
ATOM     22  N   UNL     1       1.325   1.856   2.453  0.00  0.00    +0.057 N 
ATOM     23  O   UNL     1       1.254   2.840   3.168  0.00  0.00    -0.126 OA
ATOM     24  O   UNL     1       0.810   0.809   2.804  0.00  0.00    -0.126 OA
ENDBRANCH   5  22
TORSDOF 2
