REMARK  Name = ZINC23805071
REMARK  5 active torsions:
REMARK  status: ('A' for Active; 'I' for Inactive)
REMARK    1  A    between atoms: C_1  and  C_2
REMARK    2  A    between atoms: C_5  and  C_8
REMARK    3  A    between atoms: C_9  and  C_10
REMARK    4  A    between atoms: C_15  and  C_21
REMARK    5  A    between atoms: C_16  and  C_18
REMARK                            x       y       z     vdW  Elec       q    Type
REMARK                         _______ _______ _______ _____ _____    ______ ____
ROOT
ATOM      1  C   UNL     1       1.152  -0.794   0.061  0.00  0.00    +0.154 A 
ATOM      2  N   UNL     1       1.081  -2.149   0.237  0.00  0.00    -0.333 N 
ATOM      3  H   UNL     1       0.116  -2.624   0.466  0.00  0.00    +0.168 HD
ATOM      4  C   UNL     1       2.199  -2.913   0.131  0.00  0.00    +0.093 A 
ATOM      5  C   UNL     1       3.447  -2.338  -0.159  0.00  0.00    +0.076 A 
ATOM      6  C   UNL     1       4.522  -3.228  -0.243  0.00  0.00    -0.015 A 
ATOM      7  C   UNL     1       4.284  -4.558  -0.041  0.00  0.00    +0.106 A 
ATOM      8  S   UNL     1       2.529  -4.598   0.275  0.00  0.00    -0.064 S 
ATOM      9  C   UNL     1       5.912  -2.732  -0.549  0.00  0.00    +0.046 C 
ATOM     10  C   UNL     1       3.442  -0.863  -0.335  0.00  0.00    +0.282 A 
ATOM     11  O   UNL     1       4.477  -0.269  -0.590  0.00  0.00    -0.265 OA
ATOM     12  N   UNL     1       2.292  -0.194  -0.218  0.00  0.00    -0.190 NA
ENDROOT
BRANCH   1  14
ATOM     13  C   UNL     1      -0.016   1.345   0.009  0.00  0.00    +0.031 C 
ATOM     14  C   UNL     1      -0.068   0.008   0.180  0.00  0.00    +0.084 C 
ATOM     15 CL   UNL     1      -1.581  -0.763   0.540  0.00  0.00    -0.080 Cl
BRANCH  13  20
ATOM     16  C   UNL     1      -4.875   4.412  -0.172  0.00  0.00    +0.044 C 
ATOM     17  C   UNL     1      -3.602   3.608  -0.124  0.00  0.00    -0.050 A 
ATOM     18  C   UNL     1      -2.453   4.169   0.406  0.00  0.00    +0.004 A 
ATOM     19  C   UNL     1      -1.284   3.440   0.453  0.00  0.00    +0.008 A 
ATOM     20  C   UNL     1      -1.260   2.130  -0.037  0.00  0.00    -0.024 A 
ATOM     21  C   UNL     1      -2.424   1.572  -0.576  0.00  0.00    +0.008 A 
ATOM     22  C   UNL     1      -3.587   2.313  -0.612  0.00  0.00    +0.004 A 
ENDBRANCH  13  20
ENDBRANCH   1  14
BRANCH   7  23
ATOM     23  C   UNL     1       5.233  -5.672  -0.075  0.00  0.00    +0.393 C 
ATOM     24  O   UNL     1       6.408  -5.463  -0.309  0.00  0.00    -0.240 OA
ATOM     25  O   UNL     1       4.803  -6.931   0.151  0.00  0.00    -0.240 OA
ENDBRANCH   7  23
TORSDOF 3
