REMARK  Name = ZINC06893977
REMARK  9 active torsions:
REMARK  status: ('A' for Active; 'I' for Inactive)
REMARK    1  A    between atoms: C_1  and  C_2
REMARK    2  A    between atoms: C_2  and  C_3
REMARK    3  A    between atoms: C_3  and  C_5
REMARK    4  A    between atoms: C_3  and  S_17
REMARK    5  A    between atoms: N_7  and  C_8
REMARK    6  A    between atoms: C_11  and  C_14
REMARK    7  A    between atoms: C_14  and  C_15
REMARK    8  A    between atoms: C_14  and  C_16
REMARK    9  A    between atoms: S_17  and  C_18
REMARK                            x       y       z     vdW  Elec       q    Type
REMARK                         _______ _______ _______ _____ _____    ______ ____
ROOT
ATOM      1  C   UNL     1      -0.189   1.211  -0.255  0.00  0.00    +0.139 C 
ENDROOT
BRANCH   1   2
ATOM      2  C   UNL     1      -0.310  -0.266  -0.529  0.00  0.00    +0.231 C 
ATOM      3  O   UNL     1       0.602  -0.859  -1.067  0.00  0.00    -0.274 OA
ATOM      4  N   UNL     1      -1.430  -0.927  -0.178  0.00  0.00    -0.285 N 
ATOM      5  H   UNL     1      -2.187  -0.441   0.185  0.00  0.00    +0.155 HD
BRANCH   4   6
ATOM      6  C   UNL     1      -1.502  -2.316  -0.337  0.00  0.00    +0.033 A 
ATOM      7  C   UNL     1      -2.713  -2.919  -0.647  0.00  0.00    +0.023 A 
ATOM      8  C   UNL     1      -2.779  -4.289  -0.809  0.00  0.00    +0.006 A 
ATOM      9  C   UNL     1      -1.643  -5.061  -0.651  0.00  0.00    -0.045 A 
ATOM     10  C   UNL     1      -0.436  -4.464  -0.336  0.00  0.00    +0.006 A 
ATOM     11  C   UNL     1      -0.362  -3.094  -0.178  0.00  0.00    +0.023 A 
BRANCH   9  12
ATOM     12  C   UNL     1      -1.720  -6.556  -0.822  0.00  0.00    +0.013 C 
ATOM     13  C   UNL     1      -2.706  -7.136   0.194  0.00  0.00    +0.012 C 
ATOM     14  C   UNL     1      -2.196  -6.883  -2.239  0.00  0.00    +0.012 C 
ENDBRANCH   9  12
ENDBRANCH   4   6
ENDBRANCH   1   2
BRANCH   1  16
ATOM     15  C   UNL     1      -0.933   3.483  -0.982  0.00  0.00    +0.005 C 
ATOM     16  C   UNL     1      -0.943   1.993  -1.332  0.00  0.00    +0.020 C 
ENDBRANCH   1  16
BRANCH   1  17
ATOM     17  S   UNL     1       1.557   1.688  -0.274  0.00  0.00    -0.089 S 
BRANCH  17  18
ATOM     18  C   UNL     1       2.116   0.859   1.177  0.00  0.00    +0.144 A 
ATOM     19  C   UNL     1       3.486   0.890   1.545  0.00  0.00    +0.085 A 
ATOM     20  C   UNL     1       4.605   1.476   1.002  0.00  0.00    +0.077 A 
ATOM     21  C   UNL     1       5.692   1.159   1.827  0.00  0.00    +0.153 A 
ATOM     22  C   UNL     1       5.209   0.381   2.875  0.00  0.00    +0.093 A 
ATOM     23  N   UNL     1       3.861   0.220   2.701  0.00  0.00    -0.293 N 
ATOM     24  C   UNL     1       2.886  -0.438   3.410  0.00  0.00    +0.229 A 
ATOM     25  N   UNL     1       1.651  -0.421   3.000  0.00  0.00    -0.138 NA
ATOM     26  N   UNL     1       1.271   0.191   1.940  0.00  0.00    -0.139 NA
ATOM     27  C   UNL     1       6.327   0.077   3.692  0.00  0.00    +0.068 A 
ATOM     28  C   UNL     1       7.399   0.659   3.130  0.00  0.00    +0.198 A 
ATOM     29  O   UNL     1       7.022   1.309   2.013  0.00  0.00    -0.461 OA
ENDBRANCH  17  18
ENDBRANCH   1  17
TORSDOF 6
