REMARK  Name = ZINC62260727
REMARK  6 active torsions:
REMARK  status: ('A' for Active; 'I' for Inactive)
REMARK    1  A    between atoms: C_1  and  C_2
REMARK    2  A    between atoms: C_2  and  C_3
REMARK    3  A    between atoms: C_3  and  N_4
REMARK    4  A    between atoms: N_4  and  S_5
REMARK    5  A    between atoms: S_5  and  N_8
REMARK    6  A    between atoms: C_11  and  C_14
REMARK                            x       y       z     vdW  Elec       q    Type
REMARK                         _______ _______ _______ _____ _____    ______ ____
ROOT
ATOM      1  N   UNL     1       2.680  -2.420  -3.033  0.00  0.00    -0.167 NA
ATOM      2  C   UNL     1       3.004  -1.264  -3.880  0.00  0.00    +0.111 C 
ATOM      3  C   UNL     1       3.878  -1.736  -5.046  0.00  0.00    +0.028 C 
ATOM      4  C   UNL     1       5.101  -2.474  -4.495  0.00  0.00    +0.057 C 
ATOM      5  C   UNL     1       4.644  -3.703  -3.705  0.00  0.00    +0.028 C 
ATOM      6  C   UNL     1       3.779  -3.249  -2.519  0.00  0.00    +0.111 C 
ENDROOT
BRANCH   4   7
ATOM      7  C   UNL     1       5.980  -2.910  -5.638  0.00  0.00    +0.111 A 
ATOM      8  N   UNL     1       5.816  -4.055  -6.355  0.00  0.00    -0.342 N 
ATOM      9  H   UNL     1       5.125  -4.722  -6.223  0.00  0.00    +0.167 HD
ATOM     10  C   UNL     1       6.817  -4.091  -7.306  0.00  0.00    +0.068 A 
ATOM     11  C   UNL     1       7.165  -4.988  -8.307  0.00  0.00    +0.049 A 
ATOM     12  C   UNL     1       8.253  -4.727  -9.114  0.00  0.00    +0.061 A 
ATOM     13  C   UNL     1       9.004  -3.572  -8.931  0.00  0.00    +0.061 A 
ATOM     14  C   UNL     1       8.672  -2.672  -7.943  0.00  0.00    +0.051 A 
ATOM     15  C   UNL     1       7.573  -2.922  -7.118  0.00  0.00    +0.091 A 
ATOM     16  N   UNL     1       7.004  -2.245  -6.087  0.00  0.00    -0.232 NA
ATOM     17 CL   UNL     1      10.370  -3.262  -9.956  0.00  0.00    -0.082 Cl
ATOM     18 CL   UNL     1       8.687  -5.849 -10.366  0.00  0.00    -0.082 Cl
ENDBRANCH   4   7
BRANCH   1  19
ATOM     19  S   UNL     1       1.107  -2.778  -2.658  0.00  0.00    +0.097 S 
ATOM     20  O   UNL     1       1.070  -4.162  -2.340  0.00  0.00    -0.141 OA
ATOM     21  O   UNL     1       0.306  -2.210  -3.685  0.00  0.00    -0.141 OA
BRANCH  19  22
ATOM     22  N   UNL     1       0.738  -1.962  -1.265  0.00  0.00    -0.180 NA
ATOM     23  H   UNL     1       0.535  -2.455  -0.454  0.00  0.00    +0.149 HD
BRANCH  22  24
ATOM     24  C   UNL     1       0.718  -0.497  -1.257  0.00  0.00    +0.107 C 
BRANCH  24  26
ATOM     25  C   UNL     1      -0.019   1.526   0.010  0.00  0.00    +0.005 C 
ATOM     26  C   UNL     1       0.002  -0.004   0.002  0.00  0.00    +0.013 C 
ENDBRANCH  24  26
ENDBRANCH  22  24
ENDBRANCH  19  22
ENDBRANCH   1  19
TORSDOF 5
