REMARK  Name = ZINC00681746
REMARK  5 active torsions:
REMARK  status: ('A' for Active; 'I' for Inactive)
REMARK    1  A    between atoms: C_1  and  C_2
REMARK    2  A    between atoms: C_2  and  C_3
REMARK    3  A    between atoms: C_15  and  C_17
REMARK    4  A    between atoms: C_26  and  C_29
REMARK    5  A    between atoms: C_33  and  N_35
REMARK                            x       y       z     vdW  Elec       q    Type
REMARK                         _______ _______ _______ _____ _____    ______ ____
ROOT
ATOM      1  C   UNL     1       4.882  -0.440   3.300  0.00  0.00    +0.220 C 
ATOM      2  O   UNL     1       4.876  -1.566   2.851  0.00  0.00    -0.275 OA
ATOM      3  N   UNL     1       3.731   0.256   3.390  0.00  0.00    -0.258 N 
ATOM      4  C   UNL     1       3.749   1.552   3.908  0.00  0.00    +0.058 A 
ATOM      5  C   UNL     1       4.095   1.801   5.226  0.00  0.00    +0.025 A 
ATOM      6  C   UNL     1       4.052   3.098   5.707  0.00  0.00    +0.002 A 
ATOM      7  C   UNL     1       3.664   4.138   4.882  0.00  0.00    +0.002 A 
ATOM      8  C   UNL     1       3.336   3.895   3.560  0.00  0.00    +0.025 A 
ATOM      9  C   UNL     1       3.400   2.601   3.072  0.00  0.00    +0.053 A 
ATOM     10  N   UNL     1       3.197   2.303   1.730  0.00  0.00    -0.316 N 
ATOM     11  C   UNL     1       2.199   1.520   1.250  0.00  0.00    +0.017 C 
ATOM     12  C   UNL     1       1.852   0.325   1.760  0.00  0.00    +0.037 C 
ATOM     13  C   UNL     1       2.494  -0.351   2.947  0.00  0.00    +0.147 C 
ATOM     14  C   UNL     1       0.795  -0.416   1.181  0.00  0.00    +0.163 C 
ATOM     15  O   UNL     1       0.514  -1.501   1.651  0.00  0.00    -0.292 OA
ATOM     16  C   UNL     1       0.010   0.089   0.008  0.00  0.00    +0.088 C 
ATOM     17  C   UNL     1       0.018   1.623   0.041  0.00  0.00    +0.032 C 
ATOM     18  C   UNL     1       1.476   2.080   0.037  0.00  0.00    +0.059 C 
ATOM     19  H   UNL     1       3.816   2.685   1.088  0.00  0.00    +0.152 HD
ENDROOT
BRANCH  13  20
ATOM     20  C   UNL     1       1.516  -0.333   4.093  0.00  0.00    -0.022 A 
ATOM     21  C   UNL     1       1.021  -1.520   4.599  0.00  0.00    +0.006 A 
ATOM     22  C   UNL     1       0.128  -1.503   5.654  0.00  0.00    +0.000 A 
ATOM     23  C   UNL     1      -0.279  -0.298   6.196  0.00  0.00    +0.000 A 
ATOM     24  C   UNL     1       0.212   0.889   5.687  0.00  0.00    +0.000 A 
ATOM     25  C   UNL     1       1.110   0.872   4.636  0.00  0.00    +0.006 A 
ENDBRANCH  13  20
BRANCH  17  26
ATOM     26  C   UNL     1      -0.690   2.163  -1.175  0.00  0.00    -0.041 A 
ATOM     27  C   UNL     1      -0.218   1.863  -2.440  0.00  0.00    +0.004 A 
ATOM     28  C   UNL     1      -0.870   2.355  -3.555  0.00  0.00    +0.002 A 
ATOM     29  C   UNL     1      -1.988   3.155  -3.405  0.00  0.00    +0.033 A 
ATOM     30  C   UNL     1      -2.456   3.459  -2.141  0.00  0.00    +0.126 A 
ATOM     31  C   UNL     1      -1.807   2.963  -1.026  0.00  0.00    +0.036 A 
BRANCH  30  32
ATOM     32  N   UNL     1      -3.652   4.317  -1.981  0.00  0.00    +0.056 N 
ATOM     33  O   UNL     1      -4.064   4.585  -0.867  0.00  0.00    -0.126 OA
ATOM     34  O   UNL     1      -4.224   4.754  -2.963  0.00  0.00    -0.126 OA
ENDBRANCH  30  32
ENDBRANCH  17  26
BRANCH   1  36
ATOM     35  C   UNL     1       7.321  -0.810   3.549  0.00  0.00    +0.013 C 
ATOM     36  C   UNL     1       6.176   0.183   3.758  0.00  0.00    +0.093 C 
ENDBRANCH   1  36
TORSDOF 4
