REMARK  Name = ZINC03355385
REMARK  5 active torsions:
REMARK  status: ('A' for Active; 'I' for Inactive)
REMARK    1  A    between atoms: C_9  and  C_10
REMARK    2  A    between atoms: C_9  and  C_12
REMARK    3  A    between atoms: C_12  and  C_14
REMARK    4  A    between atoms: C_14  and  S_15
REMARK    5  A    between atoms: S_15  and  C_16
REMARK                            x       y       z     vdW  Elec       q    Type
REMARK                         _______ _______ _______ _____ _____    ______ ____
ROOT
ATOM      1  C   UNL     1      -0.014   1.211   0.009  0.00  0.00    +0.187 C 
ATOM      2  O   UNL     1       0.002  -0.004   0.002  0.00  0.00    -0.290 OA
ENDROOT
BRANCH   1  11
ATOM      3  C   UNL     1       6.695  -0.354  -0.061  0.00  0.00    +0.002 A 
ATOM      4  C   UNL     1       6.019  -1.563  -0.060  0.00  0.00    +0.002 A 
ATOM      5  C   UNL     1       4.639  -1.589  -0.048  0.00  0.00    +0.025 A 
ATOM      6  C   UNL     1       3.925  -0.398  -0.036  0.00  0.00    +0.054 A 
ATOM      7  C   UNL     1       4.607   0.821  -0.037  0.00  0.00    +0.054 A 
ATOM      8  C   UNL     1       5.995   0.836  -0.049  0.00  0.00    +0.025 A 
ATOM      9  N   UNL     1       3.647   1.826  -0.023  0.00  0.00    -0.300 N 
ATOM     10  C   UNL     1       2.420   1.244  -0.014  0.00  0.00    +0.114 C 
ATOM     11  C   UNL     1       1.193   1.930   0.001  0.00  0.00    +0.131 C 
ATOM     12  N   UNL     1       2.566  -0.106  -0.017  0.00  0.00    -0.300 N 
ATOM     13  H   UNL     1       3.823   2.780  -0.020  0.00  0.00    +0.153 HD
ATOM     14  H   UNL     1       1.845  -0.756  -0.009  0.00  0.00    +0.153 HD
BRANCH  11  15
ATOM     15  C   UNL     1       1.173   3.362   0.009  0.00  0.00    +0.106 C 
ATOM     16  N   UNL     1       1.158   4.498   0.015  0.00  0.00    -0.191 NA
ENDBRANCH  11  15
ENDBRANCH   1  11
BRANCH   1  17
ATOM     17  C   UNL     1      -1.330   1.947   0.019  0.00  0.00    +0.157 C 
BRANCH  17  18
ATOM     18  S   UNL     1      -2.692   0.750   0.019  0.00  0.00    -0.078 S 
BRANCH  18  19
ATOM     19  C   UNL     1      -4.141   1.753   0.031  0.00  0.00    +0.196 A 
ATOM     20  N   UNL     1      -4.179   3.066   0.038  0.00  0.00    -0.122 NA
ATOM     21  N   UNL     1      -5.398   3.478   0.046  0.00  0.00    -0.127 NA
ATOM     22  C   UNL     1      -6.216   2.442   0.045  0.00  0.00    +0.180 A 
ATOM     23  N   UNL     1      -5.430   1.309   0.029  0.00  0.00    -0.275 N 
ATOM     24  C   UNL     1      -6.004   0.068   0.032  0.00  0.00    +0.115 A 
ATOM     25  C   UNL     1      -7.347  -0.065   0.037  0.00  0.00    +0.059 A 
ATOM     26  C   UNL     1      -8.176   1.073   0.047  0.00  0.00    +0.045 A 
ATOM     27  C   UNL     1      -7.621   2.314   0.051  0.00  0.00    +0.087 A 
ATOM     28 CL   UNL     1      -8.630   3.727   0.063  0.00  0.00    -0.080 Cl
ATOM     29 CL   UNL     1      -8.057  -1.650   0.033  0.00  0.00    -0.082 Cl
ENDBRANCH  18  19
ENDBRANCH  17  18
ENDBRANCH   1  17
TORSDOF 5
