REMARK  Name = ZINC12363609
REMARK  8 active torsions:
REMARK  status: ('A' for Active; 'I' for Inactive)
REMARK    1  A    between atoms: C_1  and  C_2
REMARK    2  A    between atoms: C_2  and  C_3
REMARK    3  A    between atoms: C_3  and  O_4
REMARK    4  A    between atoms: O_4  and  C_5
REMARK    5  A    between atoms: C_10  and  C_11
REMARK    6  A    between atoms: C_11  and  N_54
REMARK    7  A    between atoms: C_14  and  C_17
REMARK    8  A    between atoms: C_14  and  O_24
REMARK                            x       y       z     vdW  Elec       q    Type
REMARK                         _______ _______ _______ _____ _____    ______ ____
ROOT
ATOM      1  C   UNL     1       3.367   2.652  -1.837  0.00  0.00    -0.075 C 
ATOM      2  C   UNL     1       3.777   2.720  -3.309  0.00  0.00    +0.021 C 
ATOM      3  C   UNL     1       4.954   3.687  -3.462  0.00  0.00    +0.088 C 
ATOM      4  C   UNL     1       4.548   5.062  -2.925  0.00  0.00    +0.021 C 
ATOM      5  C   UNL     1       4.116   4.926  -1.464  0.00  0.00    -0.075 C 
ATOM      6  N   UNL     1       2.965   4.002  -1.388  0.00  0.00    +0.383 N 
ATOM      7  H   UNL     1       2.218   4.348  -2.002  0.00  0.00    -0.081 HD
ENDROOT
BRANCH   3   8
ATOM      8  C   UNL     1       5.325   3.805  -4.918  0.00  0.00    -0.016 A 
ATOM      9  C   UNL     1       4.721   4.764  -5.710  0.00  0.00    +0.009 A 
ATOM     10  C   UNL     1       5.064   4.875  -7.044  0.00  0.00    +0.039 A 
ATOM     11  C   UNL     1       6.005   4.020  -7.590  0.00  0.00    +0.123 A 
ATOM     12  C   UNL     1       6.606   3.056  -6.798  0.00  0.00    +0.039 A 
ATOM     13  C   UNL     1       6.265   2.950  -5.463  0.00  0.00    +0.009 A 
ATOM     14  F   UNL     1       6.338   4.125  -8.896  0.00  0.00    -0.205 F 
ENDBRANCH   3   8
BRANCH   3  15
ATOM     15  O   UNL     1       6.074   3.197  -2.722  0.00  0.00    -0.384 OA
ATOM     16  H   UNL     1       6.386   2.328  -3.010  0.00  0.00    +0.211 HD
ENDBRANCH   3  15
BRANCH   6  17
ATOM     17  C   UNL     1       2.456   3.942  -0.002  0.00  0.00    -0.039 C 
BRANCH  17  23
ATOM     18  C   UNL     1       1.179   1.786   0.000  0.00  0.00    +0.126 A 
ATOM     19  C   UNL     1      -0.013   1.076   0.008  0.00  0.00    +0.095 A 
ATOM     20  C   UNL     1      -1.221   1.752   0.017  0.00  0.00    +0.170 A 
ATOM     21  C   UNL     1      -1.237   3.145   0.029  0.00  0.00    +0.167 A 
ATOM     22  C   UNL     1      -0.045   3.849   0.021  0.00  0.00    +0.055 A 
ATOM     23  C   UNL     1       1.161   3.172   0.007  0.00  0.00    -0.019 A 
ATOM     24  O   UNL     1      -2.536   3.566   0.042  0.00  0.00    -0.453 OA
ATOM     25  C   UNL     1      -3.307   2.422   0.456  0.00  0.00    +0.466 C 
ATOM     26  O   UNL     1      -2.509   1.301   0.032  0.00  0.00    -0.452 OA
BRANCH  18  27
ATOM     27  O   UNL     1       2.365   1.122  -0.014  0.00  0.00    -0.492 OA
BRANCH  27  28
ATOM     28  C   UNL     1       2.310  -0.306  -0.021  0.00  0.00    +0.229 C 
BRANCH  28  30
ATOM     29  C   UNL     1       3.672  -2.401  -0.044  0.00  0.00    +0.007 C 
ATOM     30  C   UNL     1       3.731  -0.872  -0.037  0.00  0.00    +0.038 C 
ENDBRANCH  28  30
ENDBRANCH  27  28
ENDBRANCH  18  27
ENDBRANCH  17  23
ENDBRANCH   6  17
TORSDOF 7
