REMARK  Name = ZINC01750426
REMARK  4 active torsions:
REMARK  status: ('A' for Active; 'I' for Inactive)
REMARK    1  A    between atoms: C_1  and  C_2
REMARK    2  A    between atoms: C_5  and  C_8
REMARK    3  A    between atoms: C_11  and  C_18
REMARK    4  A    between atoms: C_21  and  C_24
REMARK                            x       y       z     vdW  Elec       q    Type
REMARK                         _______ _______ _______ _____ _____    ______ ____
ROOT
ATOM      1  C   UNL     1       0.059  -4.275  -0.021  0.00  0.00    +0.158 C 
ATOM      2  C   UNL     1       1.499  -4.728   0.135  0.00  0.00    +0.030 C 
ATOM      3  C   UNL     1       1.791  -5.521   1.184  0.00  0.00    +0.073 C 
ATOM      4  N   UNL     1       0.838  -5.904   2.072  0.00  0.00    -0.216 NA
ATOM      5  C   UNL     1      -0.423  -5.552   2.000  0.00  0.00    +0.227 C 
ATOM      6  N   UNL     1      -0.888  -4.749   0.997  0.00  0.00    -0.162 N 
ATOM      7  N   UNL     1      -2.255  -4.561   1.200  0.00  0.00    -0.055 NA
ATOM      8  N   UNL     1      -2.610  -5.174   2.215  0.00  0.00    -0.058 NA
ATOM      9  N   UNL     1      -1.512  -5.830   2.781  0.00  0.00    -0.187 N 
ATOM     10  H   UNL     1      -1.520  -6.379   3.580  0.00  0.00    +0.179 HD
ENDROOT
BRANCH   1  15
ATOM     11  C   UNL     1      -0.018   1.503   0.010  0.00  0.00    +0.044 C 
ATOM     12  C   UNL     1       0.002  -0.004   0.002  0.00  0.00    -0.050 A 
ATOM     13  C   UNL     1       0.006  -0.689  -1.199  0.00  0.00    +0.004 A 
ATOM     14  C   UNL     1       0.025  -2.071  -1.206  0.00  0.00    +0.006 A 
ATOM     15  C   UNL     1       0.040  -2.768  -0.013  0.00  0.00    -0.021 A 
ATOM     16  C   UNL     1       0.037  -2.084   1.188  0.00  0.00    +0.006 A 
ATOM     17  C   UNL     1       0.023  -0.702   1.195  0.00  0.00    +0.004 A 
ENDBRANCH   1  15
BRANCH   3  18
ATOM     18  C   UNL     1       3.187  -5.986   1.374  0.00  0.00    +0.000 A 
ATOM     19  C   UNL     1       4.181  -5.600   0.477  0.00  0.00    +0.010 A 
ATOM     20  C   UNL     1       5.478  -6.036   0.659  0.00  0.00    +0.004 A 
ATOM     21  C   UNL     1       5.791  -6.855   1.728  0.00  0.00    -0.050 A 
ATOM     22  C   UNL     1       4.809  -7.242   2.621  0.00  0.00    +0.004 A 
ATOM     23  C   UNL     1       3.510  -6.807   2.453  0.00  0.00    +0.010 A 
ATOM     24  C   UNL     1       7.209  -7.329   1.921  0.00  0.00    +0.044 C 
ENDBRANCH   3  18
TORSDOF 2
