REMARK  Name = ZINC39361398
REMARK  5 active torsions:
REMARK  status: ('A' for Active; 'I' for Inactive)
REMARK    1  A    between atoms: C_1  and  C_2
REMARK    2  A    between atoms: C_2  and  C_3
REMARK    3  A    between atoms: N_9  and  N_10
REMARK    4  A    between atoms: C_11  and  C_12
REMARK    5  A    between atoms: C_20  and  C_22
REMARK                            x       y       z     vdW  Elec       q    Type
REMARK                         _______ _______ _______ _____ _____    ______ ____
ROOT
ATOM      1  C   UNL     1      -3.953  -5.337   4.719  0.00  0.00    +0.008 C 
ATOM      2  C   UNL     1      -3.550  -6.379   3.872  0.00  0.00    +0.005 A 
ATOM      3  C   UNL     1      -2.909  -6.392   2.618  0.00  0.00    +0.010 A 
ATOM      4  C   UNL     1      -2.634  -7.577   2.013  0.00  0.00    +0.001 A 
ATOM      5  C   UNL     1      -2.972  -8.795   2.605  0.00  0.00    +0.002 A 
ATOM      6  C   UNL     1      -3.591  -8.855   3.811  0.00  0.00    +0.026 A 
ATOM      7  C   UNL     1      -3.909  -7.658   4.501  0.00  0.00    +0.044 A 
ATOM      8  N   UNL     1      -4.497  -7.452   5.665  0.00  0.00    -0.373 N 
ATOM      9  C   UNL     1      -4.579  -6.011   5.920  0.00  0.00    +0.142 C 
ATOM     10  H   UNL     1      -4.822  -8.146   6.260  0.00  0.00    +0.161 HD
ENDROOT
BRANCH   9  11
ATOM     11  C   UNL     1      -3.814  -5.658   7.170  0.00  0.00    -0.021 A 
ATOM     12  C   UNL     1      -2.633  -6.313   7.466  0.00  0.00    +0.006 A 
ATOM     13  C   UNL     1      -1.932  -5.989   8.612  0.00  0.00    +0.000 A 
ATOM     14  C   UNL     1      -2.411  -5.011   9.463  0.00  0.00    +0.000 A 
ATOM     15  C   UNL     1      -3.592  -4.355   9.166  0.00  0.00    +0.000 A 
ATOM     16  C   UNL     1      -4.291  -4.676   8.018  0.00  0.00    +0.006 A 
ENDBRANCH   9  11
BRANCH   1  18
ATOM     17  N   UNL     1      -3.230  -3.538   3.394  0.00  0.00    -0.155 NA
ATOM     18  C   UNL     1      -3.802  -3.974   4.504  0.00  0.00    +0.141 C 
BRANCH  17  24
ATOM     19  C   UNL     1      -1.433  -0.534   0.013  0.00  0.00    +0.140 C 
ATOM     20  C   UNL     1      -1.461  -2.055  -0.021  0.00  0.00    +0.232 C 
ATOM     21  O   UNL     1      -1.017  -2.710  -0.940  0.00  0.00    -0.274 OA
ATOM     22  N   UNL     1      -2.020  -2.591   1.055  0.00  0.00    -0.263 N 
ATOM     23  C   UNL     1      -2.514  -1.834   2.078  0.00  0.00    +0.183 C 
ATOM     24  N   UNL     1      -3.090  -2.272   3.194  0.00  0.00    -0.127 NA
ATOM     25  S   UNL     1      -2.244  -0.232   1.635  0.00  0.00    -0.076 S 
ATOM     26  H   UNL     1      -2.081  -3.557   1.117  0.00  0.00    +0.157 HD
BRANCH  19  28
ATOM     27  C   UNL     1      -0.019   1.526   0.010  0.00  0.00    +0.005 C 
ATOM     28  C   UNL     1       0.002  -0.004   0.002  0.00  0.00    +0.020 C 
ENDBRANCH  19  28
ENDBRANCH  17  24
ENDBRANCH   1  18
TORSDOF 4
