REMARK  Name = ZINC39232765
REMARK  8 active torsions:
REMARK  status: ('A' for Active; 'I' for Inactive)
REMARK    1  A    between atoms: C_1  and  C_2
REMARK    2  A    between atoms: C_2  and  C_3
REMARK    3  A    between atoms: C_2  and  C_4
REMARK    4  A    between atoms: C_4  and  C_5
REMARK    5  A    between atoms: C_7  and  C_11
REMARK    6  A    between atoms: C_15  and  C_20
REMARK    7  A    between atoms: C_20  and  O_21
REMARK    8  A    between atoms: O_21  and  C_22
REMARK                            x       y       z     vdW  Elec       q    Type
REMARK                         _______ _______ _______ _____ _____    ______ ____
ROOT
ATOM      1  C   UNL     1      -2.690  -5.047   0.564  0.00  0.00    +0.182 C 
ATOM      2  N   UNL     1      -2.619  -6.431   0.024  0.00  0.00    -0.265 N 
ATOM      3  N   UNL     1      -2.112  -7.359   0.884  0.00  0.00    -0.221 N 
ATOM      4  C   UNL     1      -1.534  -8.614   0.801  0.00  0.00    +0.189 A 
ATOM      5  N   UNL     1      -1.292  -9.026   2.010  0.00  0.00    -0.128 NA
ATOM      6  N   UNL     1      -1.652  -8.131   2.862  0.00  0.00    -0.121 NA
ATOM      7  C   UNL     1      -2.132  -7.105   2.232  0.00  0.00    +0.211 A 
ATOM      8  S   UNL     1      -2.807  -5.460   2.359  0.00  0.00    -0.058 S 
ATOM      9  H   UNL     1      -3.514  -6.725  -0.338  0.00  0.00    +0.168 HD
ENDROOT
BRANCH   1  12
ATOM     10  C   UNL     1      -1.416  -2.035  -0.119  0.00  0.00    +0.062 C 
ATOM     11  C   UNL     1      -1.465  -2.886   0.907  0.00  0.00    +0.029 C 
ATOM     12  C   UNL     1      -1.420  -4.254   0.250  0.00  0.00    +0.185 C 
ATOM     13  N   UNL     1      -1.346  -3.930  -1.185  0.00  0.00    -0.177 NA
ATOM     14  N   UNL     1      -1.355  -2.701  -1.293  0.00  0.00    -0.159 NA
BRANCH  10  15
ATOM     15  C   UNL     1      -1.433  -0.534   0.013  0.00  0.00    +0.060 C 
BRANCH  15  17
ATOM     16  C   UNL     1      -0.019   1.526   0.010  0.00  0.00    +0.007 C 
ATOM     17  C   UNL     1       0.002  -0.004   0.002  0.00  0.00    -0.011 C 
ATOM     18  C   UNL     1       0.742  -0.511   1.242  0.00  0.00    +0.007 C 
ENDBRANCH  15  17
ENDBRANCH  10  15
ENDBRANCH   1  12
BRANCH   4  19
ATOM     19  C   UNL     1      -1.240  -9.371  -0.469  0.00  0.00    +0.306 C 
BRANCH  19  20
ATOM     20  O   UNL     1       0.075  -9.044  -0.923  0.00  0.00    -0.484 OA
BRANCH  20  21
ATOM     21  C   UNL     1       0.500  -9.646  -2.065  0.00  0.00    +0.121 A 
ATOM     22  C   UNL     1      -0.333 -10.528  -2.737  0.00  0.00    +0.047 A 
ATOM     23  C   UNL     1       0.101 -11.139  -3.898  0.00  0.00    +0.019 A 
ATOM     24  C   UNL     1       1.366 -10.871  -4.390  0.00  0.00    +0.018 A 
ATOM     25  C   UNL     1       2.199  -9.992  -3.721  0.00  0.00    +0.019 A 
ATOM     26  C   UNL     1       1.766  -9.375  -2.564  0.00  0.00    +0.047 A 
ATOM     27 BR   UNL     1       1.957 -11.709  -5.979  0.00  0.00    -0.050 Br
ENDBRANCH  20  21
ENDBRANCH  19  20
ENDBRANCH   4  19
TORSDOF 6
