REMARK  Name = ZINC39592455
REMARK  3 active torsions:
REMARK  status: ('A' for Active; 'I' for Inactive)
REMARK    1  A    between atoms: C_6  and  C_7
REMARK    2  A    between atoms: C_9  and  C_13
REMARK    3  A    between atoms: C_20  and  C_22
REMARK                            x       y       z     vdW  Elec       q    Type
REMARK                         _______ _______ _______ _____ _____    ______ ____
ROOT
ATOM      1  C   UNL     1      -3.282  -3.138  -1.234  0.00  0.00    +0.230 C 
ATOM      2  N   UNL     1      -2.642  -4.461  -1.268  0.00  0.00    -0.242 N 
ATOM      3  N   UNL     1      -3.683  -5.397  -1.250  0.00  0.00    -0.161 NA
ATOM      4  C   UNL     1      -4.829  -4.816  -1.211  0.00  0.00    +0.201 C 
ATOM      5  N   UNL     1      -4.738  -3.427  -1.199  0.00  0.00    -0.175 N 
ATOM      6  N   UNL     1      -5.941  -2.731  -1.158  0.00  0.00    -0.173 NA
ATOM      7  C   UNL     1      -7.080  -3.344  -1.134  0.00  0.00    +0.103 C 
ATOM      8  S   UNL     1      -6.593  -5.068  -1.165  0.00  0.00    -0.034 S 
ATOM      9  H   UNL     1      -1.690  -4.648  -1.296  0.00  0.00    +0.170 HD
ENDROOT
BRANCH   7  10
ATOM     10  C   UNL     1      -8.467  -2.756  -1.090  0.00  0.00    +0.046 C 
ATOM     11  C   UNL     1      -8.442  -1.346  -1.685  0.00  0.00    +0.010 C 
ATOM     12  C   UNL     1      -9.850  -0.749  -1.640  0.00  0.00    +0.001 C 
ATOM     13  C   UNL     1     -10.329  -0.682  -0.189  0.00  0.00    +0.000 C 
ATOM     14  C   UNL     1     -10.354  -2.091   0.406  0.00  0.00    +0.001 C 
ATOM     15  C   UNL     1      -8.946  -2.688   0.361  0.00  0.00    +0.010 C 
ENDBRANCH   7  10
BRANCH   1  18
ATOM     16  C   UNL     1      -1.271  -0.765   0.011  0.00  0.00    +0.091 C 
ATOM     17  C   UNL     1      -1.363  -2.109   0.010  0.00  0.00    +0.035 C 
ATOM     18  C   UNL     1      -2.859  -2.372   0.020  0.00  0.00    +0.194 C 
ATOM     19  N   UNL     1      -3.437  -1.018   0.026  0.00  0.00    -0.176 NA
ATOM     20  N   UNL     1      -2.509  -0.205   0.026  0.00  0.00    -0.154 NA
BRANCH  16  26
ATOM     21  C   UNL     1      -0.017   1.389   0.010  0.00  0.00    +0.013 A 
ATOM     22  C   UNL     1       1.170   2.094   0.002  0.00  0.00    +0.039 A 
ATOM     23  C   UNL     1       2.379   1.417  -0.013  0.00  0.00    +0.123 A 
ATOM     24  C   UNL     1       2.402   0.032  -0.022  0.00  0.00    +0.039 A 
ATOM     25  C   UNL     1       1.221  -0.680  -0.014  0.00  0.00    +0.013 A 
ATOM     26  C   UNL     1       0.002  -0.004   0.002  0.00  0.00    +0.002 A 
ATOM     27  F   UNL     1       3.538   2.110  -0.021  0.00  0.00    -0.205 F 
ENDBRANCH  16  26
ENDBRANCH   1  18
TORSDOF 3
