REMARK  Name = ZINC13133382
REMARK  2 active torsions:
REMARK  status: ('A' for Active; 'I' for Inactive)
REMARK    1  A    between atoms: C_6  and  S_7
REMARK    2  A    between atoms: S_7  and  N_10
REMARK                            x       y       z     vdW  Elec       q    Type
REMARK                         _______ _______ _______ _____ _____    ______ ____
ROOT
ATOM      1  S   UNL     1      -1.512  -0.905   0.012  0.00  0.00    +0.100 S 
ATOM      2  O   UNL     1      -1.218  -2.186   0.553  0.00  0.00    -0.146 OA
ATOM      3  O   UNL     1      -2.492  -0.046   0.577  0.00  0.00    -0.146 OA
ENDROOT
BRANCH   1   4
ATOM      4  N   UNL     1      -1.948  -1.147  -1.567  0.00  0.00    -0.118 NA
ATOM      5  C   UNL     1      -3.035  -1.791  -1.846  0.00  0.00    +0.117 C 
ATOM      6  N   UNL     1      -3.865  -2.290  -0.830  0.00  0.00    -0.331 N 
ATOM      7  C   UNL     1      -5.151  -1.676  -0.676  0.00  0.00    +0.102 C 
ATOM      8  C   UNL     1      -6.287  -2.279  -1.519  0.00  0.00    +0.019 C 
ATOM      9  C   UNL     1      -5.786  -2.604  -2.949  0.00  0.00    +0.002 C 
ATOM     10  C   UNL     1      -4.870  -1.549  -3.503  0.00  0.00    +0.008 C 
ATOM     11  C   UNL     1      -3.440  -2.017  -3.218  0.00  0.00    +0.073 C 
ATOM     12  H   UNL     1      -3.580  -3.019  -0.257  0.00  0.00    +0.147 HD
ENDBRANCH   1   4
BRANCH   1  18
ATOM     13  C   UNL     1      -0.017   1.378   0.010  0.00  0.00    +0.030 A 
ATOM     14  C   UNL     1       1.171   2.086   0.002  0.00  0.00    +0.022 A 
ATOM     15  C   UNL     1       2.378   1.410  -0.013  0.00  0.00    +0.041 A 
ATOM     16  C   UNL     1       2.396   0.027  -0.021  0.00  0.00    +0.022 A 
ATOM     17  C   UNL     1       1.208  -0.679  -0.013  0.00  0.00    +0.030 A 
ATOM     18  C   UNL     1       0.002  -0.004   0.002  0.00  0.00    +0.113 A 
ATOM     19 CL   UNL     1       3.870   2.298  -0.023  0.00  0.00    -0.084 Cl
ENDBRANCH   1  18
TORSDOF 2
