REMARK  Name = ZINC11135142
REMARK  7 active torsions:
REMARK  status: ('A' for Active; 'I' for Inactive)
REMARK    1  A    between atoms: C_1  and  C_2
REMARK    2  A    between atoms: C_5  and  N_8
REMARK    3  A    between atoms: C_12  and  S_13
REMARK    4  A    between atoms: S_13  and  C_14
REMARK    5  A    between atoms: C_14  and  C_15
REMARK    6  A    between atoms: N_17  and  C_18
REMARK    7  A    between atoms: C_19  and  C_26
REMARK                            x       y       z     vdW  Elec       q    Type
REMARK                         _______ _______ _______ _____ _____    ______ ____
ROOT
ATOM      1  S   UNL     1      -1.409  -1.060   0.010  0.00  0.00    -0.076 S 
ENDROOT
BRANCH   1   6
ATOM      2  N   UNL     1      -0.017   1.365   0.009  0.00  0.00    -0.259 N 
ATOM      3  C   UNL     1       1.280   1.804  -0.001  0.00  0.00    +0.225 A 
ATOM      4  N   UNL     1       2.062   0.753  -0.014  0.00  0.00    -0.112 NA
ATOM      5  N   UNL     1       1.254  -0.391  -0.012  0.00  0.00    -0.120 NA
ATOM      6  C   UNL     1       0.002  -0.004   0.002  0.00  0.00    +0.198 A 
ATOM      7  N   UNL     1       1.693   3.130   0.003  0.00  0.00    -0.299 N 
ATOM      8  C   UNL     1       1.254   3.821   1.242  0.00  0.00    +0.108 C 
ATOM      9  C   UNL     1       2.206   5.041   1.323  0.00  0.00    +0.020 C 
ATOM     10  C   UNL     1       3.549   4.466   0.819  0.00  0.00    +0.020 C 
ATOM     11  C   UNL     1       3.169   3.225  -0.011  0.00  0.00    +0.108 C 
BRANCH   2  16
ATOM     12  C   UNL     1      -4.651   4.642   0.051  0.00  0.00    +0.044 C 
ATOM     13  C   UNL     1      -3.421   3.772   0.040  0.00  0.00    -0.050 A 
ATOM     14  C   UNL     1      -3.144   2.955   1.120  0.00  0.00    +0.005 A 
ATOM     15  C   UNL     1      -2.017   2.156   1.113  0.00  0.00    +0.026 A 
ATOM     16  C   UNL     1      -1.162   2.175   0.020  0.00  0.00    +0.052 A 
ATOM     17  C   UNL     1      -1.439   3.000  -1.061  0.00  0.00    +0.026 A 
ATOM     18  C   UNL     1      -2.570   3.793  -1.050  0.00  0.00    +0.005 A 
ENDBRANCH   2  16
ENDBRANCH   1   6
BRANCH   1  19
ATOM     19  C   UNL     1      -0.706  -2.732  -0.006  0.00  0.00    +0.173 C 
BRANCH  19  20
ATOM     20  C   UNL     1      -1.821  -3.745   0.000  0.00  0.00    +0.228 C 
ATOM     21  O   UNL     1      -2.976  -3.376   0.013  0.00  0.00    -0.275 OA
ATOM     22  N   UNL     1      -1.534  -5.062  -0.010  0.00  0.00    -0.279 N 
ATOM     23  H   UNL     1      -0.611  -5.358  -0.021  0.00  0.00    +0.155 HD
BRANCH  22  24
ATOM     24  C   UNL     1      -2.561  -5.995  -0.005  0.00  0.00    +0.084 A 
ATOM     25  C   UNL     1      -2.468  -7.376  -0.019  0.00  0.00    +0.068 A 
ATOM     26  C   UNL     1      -3.716  -8.139  -0.005  0.00  0.00    -0.023 A 
ATOM     27  C   UNL     1      -4.838  -7.398   0.011  0.00  0.00    -0.004 A 
ATOM     28  S   UNL     1      -4.268  -5.715   0.013  0.00  0.00    -0.077 S 
ATOM     29  C   UNL     1      -6.077  -8.251   0.021  0.00  0.00    +0.043 C 
ATOM     30  C   UNL     1      -5.582  -9.651   0.447  0.00  0.00    +0.010 C 
ATOM     31  C   UNL     1      -4.111  -9.616  -0.011  0.00  0.00    +0.037 C 
BRANCH  25  32
ATOM     32  C   UNL     1      -1.166  -8.050  -0.042  0.00  0.00    +0.244 C 
ATOM     33  O   UNL     1      -0.611  -8.340   1.002  0.00  0.00    -0.270 OA
ATOM     34  N   UNL     1      -0.583  -8.348  -1.220  0.00  0.00    -0.325 N 
ATOM     35  H   UNL     1      -1.024  -8.117  -2.052  0.00  0.00    +0.145 HD
ATOM     36  H   UNL     1       0.279  -8.794  -1.236  0.00  0.00    +0.145 HD
ENDBRANCH  25  32
ENDBRANCH  22  24
ENDBRANCH  19  20
ENDBRANCH   1  19
TORSDOF 6
