REMARK  Name = ZINC20898371
REMARK  6 active torsions:
REMARK  status: ('A' for Active; 'I' for Inactive)
REMARK    1  A    between atoms: C_1  and  C_2
REMARK    2  A    between atoms: C_5  and  C_29
REMARK    3  A    between atoms: C_10  and  C_12
REMARK    4  A    between atoms: C_13  and  C_14
REMARK    5  A    between atoms: N_19  and  C_20
REMARK    6  A    between atoms: C_26  and  C_28
REMARK                            x       y       z     vdW  Elec       q    Type
REMARK                         _______ _______ _______ _____ _____    ______ ____
ROOT
ATOM      1  C   UNL     1       3.045   7.149  -0.202  0.00  0.00    +0.073 A 
ATOM      2  C   UNL     1       1.788   7.710  -0.203  0.00  0.00    +0.076 A 
ATOM      3  S   UNL     1       0.771   6.247  -0.046  0.00  0.00    -0.059 S 
ATOM      4  C   UNL     1       2.099   5.053   0.015  0.00  0.00    +0.172 A 
ATOM      5  N   UNL     1       3.161   5.825  -0.091  0.00  0.00    -0.225 NA
ATOM      6  N   UNL     1       2.030   3.670   0.137  0.00  0.00    -0.219 N 
ATOM      7  C   UNL     1       3.160   2.947   0.260  0.00  0.00    +0.223 C 
ATOM      8  O   UNL     1       4.233   3.507   0.344  0.00  0.00    -0.275 OA
ATOM      9  C   UNL     1       3.092   1.442   0.292  0.00  0.00    +0.110 C 
ENDROOT
BRANCH   6  10
ATOM     10  C   UNL     1       0.785   3.028   0.133  0.00  0.00    +0.043 A 
ATOM     11  C   UNL     1      -0.109   3.236   1.175  0.00  0.00    +0.024 A 
ATOM     12  C   UNL     1      -1.336   2.603   1.168  0.00  0.00    +0.002 A 
ATOM     13  C   UNL     1      -1.673   1.757   0.127  0.00  0.00    +0.000 A 
ATOM     14  C   UNL     1      -0.787   1.552  -0.915  0.00  0.00    +0.002 A 
ATOM     15  C   UNL     1       0.441   2.183  -0.913  0.00  0.00    +0.024 A 
ENDBRANCH   6  10
BRANCH   1  17
ATOM     16  C   UNL     1       5.468   7.432  -0.317  0.00  0.00    +0.069 C 
ATOM     17  C   UNL     1       4.237   7.995  -0.319  0.00  0.00    +0.033 C 
BRANCH  16  25
ATOM     18  C   UNL     1       9.095   4.414  -1.977  0.00  0.00    +0.009 C 
ATOM     19  C   UNL     1       8.824   5.918  -1.904  0.00  0.00    +0.004 C 
ATOM     20  C   UNL     1      10.153   6.672  -1.812  0.00  0.00    +0.009 C 
ATOM     21  C   UNL     1       9.884   8.178  -1.772  0.00  0.00    +0.004 C 
ATOM     22  C   UNL     1       9.052   8.512  -0.535  0.00  0.00    +0.111 C 
ATOM     23  N   UNL     1       7.839   7.683  -0.537  0.00  0.00    -0.297 N 
ATOM     24  C   UNL     1       7.980   6.226  -0.664  0.00  0.00    +0.111 C 
ATOM     25  C   UNL     1       6.620   8.248  -0.430  0.00  0.00    +0.240 C 
ATOM     26  O   UNL     1       6.509   9.461  -0.431  0.00  0.00    -0.271 OA
ATOM     27  C   UNL     1      11.214   8.933  -1.713  0.00  0.00    +0.009 C 
ENDBRANCH  16  25
ENDBRANCH   1  17
TORSDOF 3
