REMARK  Name = ZINC40817089
REMARK  2 active torsions:
REMARK  status: ('A' for Active; 'I' for Inactive)
REMARK    1  A    between atoms: C_7  and  C_11
REMARK    2  A    between atoms: C_17  and  C_19
REMARK                            x       y       z     vdW  Elec       q    Type
REMARK                         _______ _______ _______ _____ _____    ______ ____
ROOT
ATOM      1  C   UNL     1       3.276  -2.073   2.177  0.00  0.00    +0.144 C 
ATOM      2  C   UNL     1       3.963  -2.906   1.075  0.00  0.00    +0.032 C 
ATOM      3  C   UNL     1       4.986  -3.759   1.870  0.00  0.00    +0.021 C 
ATOM      4  C   UNL     1       5.420  -2.768   2.980  0.00  0.00    +0.108 C 
ATOM      5  N   UNL     1       4.190  -2.028   3.328  0.00  0.00    -0.291 N 
ATOM      6  C   UNL     1       3.945  -1.412   4.502  0.00  0.00    +0.219 C 
ATOM      7  O   UNL     1       2.935  -0.756   4.644  0.00  0.00    -0.275 OA
ENDROOT
BRANCH   1  14
ATOM      8  C   UNL     1      -1.170   0.971   0.945  0.00  0.00    +0.002 C 
ATOM      9  C   UNL     1      -0.190   2.058   1.377  0.00  0.00    +0.008 C 
ATOM     10  C   UNL     1       1.009   2.076   0.424  0.00  0.00    +0.076 C 
ATOM     11  C   UNL     1       2.051   1.110   0.925  0.00  0.00    +0.134 A 
ATOM     12  N   UNL     1       3.329   1.325   1.049  0.00  0.00    -0.134 NA
ATOM     13  N   UNL     1       3.904   0.262   1.492  0.00  0.00    -0.132 NA
ATOM     14  C   UNL     1       3.014  -0.676   1.676  0.00  0.00    +0.154 A 
ATOM     15  N   UNL     1       1.814  -0.159   1.331  0.00  0.00    -0.313 N 
ATOM     16  C   UNL     1       0.512  -0.824   1.396  0.00  0.00    +0.125 C 
ATOM     17  C   UNL     1      -0.421  -0.217   0.344  0.00  0.00    +0.022 C 
ENDBRANCH   1  14
BRANCH   6  18
ATOM     18  C   UNL     1       4.927  -1.539   5.638  0.00  0.00    +0.075 C 
ATOM     19  C   UNL     1       4.515  -2.705   6.540  0.00  0.00    +0.013 C 
ATOM     20  C   UNL     1       5.512  -2.834   7.694  0.00  0.00    +0.001 C 
ATOM     21  C   UNL     1       5.520  -1.538   8.507  0.00  0.00    +0.000 C 
ATOM     22  C   UNL     1       5.932  -0.372   7.606  0.00  0.00    +0.001 C 
ATOM     23  C   UNL     1       4.935  -0.244   6.452  0.00  0.00    +0.013 C 
ENDBRANCH   6  18
TORSDOF 2
