REMARK  Name = ZINC67517639
REMARK  6 active torsions:
REMARK  status: ('A' for Active; 'I' for Inactive)
REMARK    1  A    between atoms: C_1  and  C_2
REMARK    2  A    between atoms: C_3  and  C_13
REMARK    3  A    between atoms: C_4  and  C_12
REMARK    4  A    between atoms: C_13  and  C_14
REMARK    5  A    between atoms: C_14  and  C_15
REMARK    6  A    between atoms: C_27  and  C_30
REMARK                            x       y       z     vdW  Elec       q    Type
REMARK                         _______ _______ _______ _____ _____    ______ ____
ROOT
ATOM      1  C   UNL     1      -2.497   0.058   0.010  0.00  0.00    +0.048 C 
ENDROOT
BRANCH   1   4
ATOM      2  C   UNL     1      -0.061   1.652  -0.061  0.00  0.00    +0.066 C 
ATOM      3  C   UNL     1       0.023   0.147  -0.041  0.00  0.00    +0.047 A 
ATOM      4  C   UNL     1      -1.149  -0.616  -0.007  0.00  0.00    -0.005 A 
ATOM      5  C   UNL     1      -1.058  -1.972   0.011  0.00  0.00    +0.048 A 
ATOM      6  N   UNL     1       0.171  -2.550  -0.005  0.00  0.00    -0.199 N 
ATOM      7  C   UNL     1       1.297  -1.776  -0.038  0.00  0.00    +0.255 A 
ATOM      8  N   UNL     1       1.198  -0.442  -0.061  0.00  0.00    -0.216 NA
ATOM      9  N   UNL     1       2.342  -2.597  -0.046  0.00  0.00    -0.176 NA
ATOM     10  C   UNL     1       1.922  -3.859  -0.019  0.00  0.00    +0.234 A 
ATOM     11  N   UNL     1       0.605  -3.883   0.007  0.00  0.00    -0.128 NA
ATOM     12  N   UNL     1       2.746  -4.982  -0.018  0.00  0.00    -0.326 N 
ATOM     13  C   UNL     1      -2.302  -2.821   0.048  0.00  0.00    +0.066 C 
ATOM     14  H   UNL     1       3.710  -4.875  -0.037  0.00  0.00    +0.145 HD
ATOM     15  H   UNL     1       2.356  -5.870   0.003  0.00  0.00    +0.145 HD
ENDBRANCH   1   4
BRANCH   1  16
ATOM     16  C   UNL     1      -2.869   0.418   1.449  0.00  0.00    +0.101 C 
BRANCH  16  17
ATOM     17  C   UNL     1      -4.217   1.092   1.466  0.00  0.00    +0.216 C 
ATOM     18  O   UNL     1      -4.821   1.266   0.429  0.00  0.00    -0.276 OA
ATOM     19  N   UNL     1      -4.751   1.501   2.634  0.00  0.00    -0.298 N 
ATOM     20  C   UNL     1      -4.116   1.154   3.914  0.00  0.00    +0.108 C 
ATOM     21  C   UNL     1      -3.894   2.438   4.720  0.00  0.00    +0.019 C 
ATOM     22  C   UNL     1      -5.218   3.193   4.855  0.00  0.00    +0.007 C 
ATOM     23  C   UNL     1      -5.723   3.580   3.460  0.00  0.00    +0.010 C 
ATOM     24  C   UNL     1      -5.977   2.307   2.657  0.00  0.00    +0.079 C 
ATOM     25  C   UNL     1      -6.404   2.655   1.235  0.00  0.00    +0.023 C 
ATOM     26  C   UNL     1      -5.316   3.488   0.553  0.00  0.00    +0.005 C 
ATOM     27  C   UNL     1      -5.093   4.775   1.352  0.00  0.00    -0.014 C 
ATOM     28  C   UNL     1      -4.657   4.435   2.769  0.00  0.00    +0.008 C 
ATOM     29  C   UNL     1      -4.018   5.621   0.667  0.00  0.00    +0.007 C 
ENDBRANCH  16  17
ENDBRANCH   1  16
TORSDOF 3
