REMARK  Name = ZINC36673806
REMARK  8 active torsions:
REMARK  status: ('A' for Active; 'I' for Inactive)
REMARK    1  A    between atoms: C_1  and  C_2
REMARK    2  A    between atoms: C_9  and  N_14
REMARK    3  A    between atoms: C_10  and  C_11
REMARK    4  A    between atoms: C_15  and  C_17
REMARK    5  A    between atoms: N_22  and  S_24
REMARK    6  A    between atoms: S_24  and  C_27
REMARK    7  A    between atoms: C_30  and  O_33
REMARK    8  A    between atoms: O_33  and  C_34
REMARK                            x       y       z     vdW  Elec       q    Type
REMARK                         _______ _______ _______ _____ _____    ______ ____
ROOT
ATOM      1  N   UNL     1       0.696  -5.847   2.434  0.00  0.00    -0.279 N 
ATOM      2  C   UNL     1       1.677  -6.096   3.324  0.00  0.00    +0.222 C 
ATOM      3  O   UNL     1       2.383  -5.191   3.716  0.00  0.00    -0.275 OA
ATOM      4  H   UNL     1       0.131  -6.571   2.120  0.00  0.00    +0.155 HD
ENDROOT
BRANCH   1  12
ATOM      5  C   UNL     1      -0.019   1.526   0.010  0.00  0.00    +0.008 C 
ATOM      6  C   UNL     1       0.002  -0.004   0.002  0.00  0.00    -0.009 C 
ATOM      7  C   UNL     1      -1.434  -0.537   0.019  0.00  0.00    +0.008 C 
ATOM      8  C   UNL     1      -1.433  -2.045  -0.237  0.00  0.00    +0.037 C 
ATOM      9  C   UNL     1      -0.464  -2.704   0.734  0.00  0.00    -0.023 A 
ATOM     10  C   UNL     1       0.485  -1.986   1.374  0.00  0.00    -0.004 A 
ATOM     11  S   UNL     1       1.343  -3.167   2.373  0.00  0.00    -0.077 S 
ATOM     12  C   UNL     1       0.492  -4.557   1.968  0.00  0.00    +0.084 A 
ATOM     13  C   UNL     1      -0.459  -4.119   1.061  0.00  0.00    +0.068 A 
ATOM     14  C   UNL     1       0.739  -0.515   1.248  0.00  0.00    +0.046 C 
BRANCH  13  15
ATOM     15  C   UNL     1      -1.421  -5.045   0.456  0.00  0.00    +0.244 C 
ATOM     16  O   UNL     1      -1.149  -5.611  -0.587  0.00  0.00    -0.270 OA
ATOM     17  N   UNL     1      -2.608  -5.271   1.055  0.00  0.00    -0.325 N 
ATOM     18  H   UNL     1      -2.825  -4.821   1.886  0.00  0.00    +0.145 HD
ATOM     19  H   UNL     1      -3.244  -5.884   0.655  0.00  0.00    +0.145 HD
ENDBRANCH  13  15
ENDBRANCH   1  12
BRANCH   2  20
ATOM     20  C   UNL     1       1.898  -7.498   3.830  0.00  0.00    +0.091 C 
ATOM     21  C   UNL     1       2.226  -8.420   2.654  0.00  0.00    +0.015 C 
ATOM     22  C   UNL     1       2.418  -9.850   3.163  0.00  0.00    +0.018 C 
ATOM     23  C   UNL     1       3.593  -9.885   4.146  0.00  0.00    +0.109 C 
ATOM     24  N   UNL     1       3.353  -8.894   5.204  0.00  0.00    -0.176 NA
ATOM     25  C   UNL     1       3.067  -7.505   4.821  0.00  0.00    +0.122 C 
BRANCH  24  26
ATOM     26  S   UNL     1       3.403  -9.336   6.800  0.00  0.00    +0.061 S 
ATOM     27  O   UNL     1       2.618  -8.387   7.508  0.00  0.00    -0.153 OA
ATOM     28  O   UNL     1       3.136 -10.730   6.844  0.00  0.00    -0.153 OA
BRANCH  26  29
ATOM     29  C   UNL     1       5.065  -9.124   7.346  0.00  0.00    +0.106 A 
ATOM     30  C   UNL     1       5.966 -10.166   7.235  0.00  0.00    +0.032 A 
ATOM     31  C   UNL     1       7.269 -10.003   7.664  0.00  0.00    +0.047 A 
ATOM     32  C   UNL     1       7.674  -8.791   8.205  0.00  0.00    +0.120 A 
ATOM     33  C   UNL     1       6.768  -7.747   8.315  0.00  0.00    +0.047 A 
ATOM     34  C   UNL     1       5.467  -7.913   7.880  0.00  0.00    +0.032 A 
BRANCH  32  35
ATOM     35  O   UNL     1       8.955  -8.628   8.627  0.00  0.00    -0.495 OA
ATOM     36  C   UNL     1       9.301  -7.354   9.174  0.00  0.00    +0.277 C 
ENDBRANCH  32  35
ENDBRANCH  26  29
ENDBRANCH  24  26
ENDBRANCH   2  20
TORSDOF 6
