REMARK  Name = ZINC67103646
REMARK  4 active torsions:
REMARK  status: ('A' for Active; 'I' for Inactive)
REMARK    1  A    between atoms: C_8  and  C_10
REMARK    2  A    between atoms: N_18  and  N_19
REMARK    3  A    between atoms: C_20  and  C_22
REMARK    4  A    between atoms: C_22  and  C_23
REMARK                            x       y       z     vdW  Elec       q    Type
REMARK                         _______ _______ _______ _____ _____    ______ ____
ROOT
ATOM      1  C   UNL     1      -1.021   0.207   3.971  0.00  0.00    +0.078 C 
ATOM      2  C   UNL     1      -2.001   0.796   2.953  0.00  0.00    +0.032 C 
ATOM      3  C   UNL     1      -3.428   0.378   3.322  0.00  0.00    +0.110 C 
ATOM      4  N   UNL     1      -3.692   0.773   4.712  0.00  0.00    -0.284 N 
ATOM      5  C   UNL     1      -2.760   0.336   5.761  0.00  0.00    +0.110 C 
ATOM      6  C   UNL     1      -1.340   0.754   5.364  0.00  0.00    +0.032 C 
ATOM      7  C   UNL     1      -4.768   1.524   5.020  0.00  0.00    +0.319 C 
ATOM      8  O   UNL     1      -5.582   1.800   4.160  0.00  0.00    -0.251 OA
ATOM      9  N   UNL     1      -4.942   1.967   6.281  0.00  0.00    -0.218 N 
ATOM     10  H   UNL     1      -4.337   1.683   6.983  0.00  0.00    +0.174 HD
ENDROOT
BRANCH   1  18
ATOM     11  C   UNL     1       0.182   0.945  -0.100  0.00  0.00    +0.002 C 
ATOM     12  C   UNL     1       1.596   1.517  -0.118  0.00  0.00    +0.002 C 
ATOM     13  C   UNL     1       2.134   1.844   1.211  0.00  0.00    +0.019 C 
ATOM     14  C   UNL     1       2.250   0.564   2.075  0.00  0.00    +0.108 C 
ATOM     15  N   UNL     1       0.929   0.113   2.453  0.00  0.00    -0.301 N 
ATOM     16  C   UNL     1       0.151  -0.845   1.644  0.00  0.00    +0.108 C 
ATOM     17  C   UNL     1       0.248  -0.544   0.137  0.00  0.00    +0.019 C 
ATOM     18  C   UNL     1       0.387   0.588   3.592  0.00  0.00    +0.219 C 
ATOM     19  O   UNL     1       1.031   1.321   4.311  0.00  0.00    -0.275 OA
ENDBRANCH   1  18
BRANCH   9  20
ATOM     20  N   UNL     1      -5.998   2.839   6.577  0.00  0.00    -0.233 N 
ATOM     21  C   UNL     1      -6.108   3.369   7.812  0.00  0.00    +0.229 C 
ATOM     22  O   UNL     1      -5.294   3.091   8.666  0.00  0.00    -0.274 OA
ATOM     23  H   UNL     1      -6.650   3.062   5.894  0.00  0.00    +0.173 HD
BRANCH  21  24
ATOM     24  C   UNL     1      -7.244   4.307   8.130  0.00  0.00    +0.101 C 
BRANCH  24  25
ATOM     25  C   UNL     1      -7.137   4.761   9.588  0.00  0.00    -0.002 C 
ATOM     26  C   UNL     1      -7.334   3.557  10.512  0.00  0.00    +0.004 C 
ATOM     27  C   UNL     1      -7.227   4.011  11.969  0.00  0.00    +0.000 C 
ATOM     28  C   UNL     1      -8.305   5.058  12.258  0.00  0.00    +0.000 C 
ATOM     29  C   UNL     1      -8.108   6.261  11.333  0.00  0.00    +0.000 C 
ATOM     30  C   UNL     1      -8.215   5.807   9.876  0.00  0.00    +0.004 C 
ENDBRANCH  24  25
ENDBRANCH  21  24
ENDBRANCH   9  20
TORSDOF 4
