REMARK  Name = ZINC05630426
REMARK  8 active torsions:
REMARK  status: ('A' for Active; 'I' for Inactive)
REMARK    1  A    between atoms: C_5  and  C_7
REMARK    2  A    between atoms: C_7  and  C_9
REMARK    3  A    between atoms: C_7  and  N_24
REMARK    4  A    between atoms: C_9  and  C_10
REMARK    5  A    between atoms: C_10  and  O_12
REMARK    6  A    between atoms: O_12  and  C_13
REMARK    7  A    between atoms: C_13  and  C_14
REMARK    8  A    between atoms: N_16  and  C_17
REMARK                            x       y       z     vdW  Elec       q    Type
REMARK                         _______ _______ _______ _____ _____    ______ ____
ROOT
ATOM      1  C   UNL     1      -0.951   1.991  -0.128  0.00  0.00    +0.147 C 
ENDROOT
BRANCH   1   2
ATOM      2  C   UNL     1       0.344   1.222  -0.089  0.00  0.00    +0.310 C 
ATOM      3  O   UNL     1       0.330   0.019   0.024  0.00  0.00    -0.251 OA
BRANCH   2   4
ATOM      4  O   UNL     1       1.514   1.873  -0.187  0.00  0.00    -0.455 OA
BRANCH   4   5
ATOM      5  C   UNL     1       2.722   1.068  -0.149  0.00  0.00    +0.328 C 
BRANCH   5   6
ATOM      6  C   UNL     1       3.927   1.965  -0.270  0.00  0.00    +0.255 C 
ATOM      7  O   UNL     1       3.783   3.164  -0.378  0.00  0.00    -0.272 OA
ATOM      8  N   UNL     1       5.166   1.434  -0.259  0.00  0.00    -0.283 N 
ATOM      9  H   UNL     1       5.285   0.483  -0.106  0.00  0.00    +0.155 HD
BRANCH   8  10
ATOM     10  C   UNL     1       6.281   2.254  -0.469  0.00  0.00    +0.034 A 
ATOM     11  C   UNL     1       7.384   1.765  -1.156  0.00  0.00    +0.025 A 
ATOM     12  C   UNL     1       8.481   2.577  -1.366  0.00  0.00    +0.022 A 
ATOM     13  C   UNL     1       8.485   3.874  -0.883  0.00  0.00    +0.041 A 
ATOM     14  C   UNL     1       7.389   4.362  -0.194  0.00  0.00    +0.022 A 
ATOM     15  C   UNL     1       6.287   3.556   0.014  0.00  0.00    +0.025 A 
ATOM     16 CL   UNL     1       9.868   4.891  -1.143  0.00  0.00    -0.084 Cl
ENDBRANCH   8  10
ENDBRANCH   5   6
ENDBRANCH   4   5
ENDBRANCH   2   4
ENDBRANCH   1   2
BRANCH   1  17
ATOM     17  C   UNL     1      -2.125   1.017  -0.006  0.00  0.00    +0.117 C 
BRANCH  17  22
ATOM     18  C   UNL     1      -4.622   3.841  -0.226  0.00  0.00    +0.000 A 
ATOM     19  C   UNL     1      -5.798   3.152  -0.462  0.00  0.00    +0.001 A 
ATOM     20  C   UNL     1      -5.786   1.773  -0.550  0.00  0.00    +0.020 A 
ATOM     21  C   UNL     1      -4.596   1.081  -0.407  0.00  0.00    +0.046 A 
ATOM     22  C   UNL     1      -3.421   1.770  -0.167  0.00  0.00    -0.008 A 
ATOM     23  C   UNL     1      -3.434   3.150  -0.079  0.00  0.00    +0.007 A 
ATOM     24 CL   UNL     1      -4.579  -0.650  -0.525  0.00  0.00    -0.083 Cl
ENDBRANCH  17  22
BRANCH  17  25
ATOM     25  N   UNL     1      -2.094   0.376   1.311  0.00  0.00    -0.292 N 
ATOM     26  C   UNL     1      -2.103   1.130   2.428  0.00  0.00    +0.298 C 
ATOM     27  O   UNL     1      -2.229   2.337   2.346  0.00  0.00    -0.253 OA
ATOM     28  N   UNL     1      -1.973   0.547   3.636  0.00  0.00    -0.313 N 
ATOM     29  H   UNL     1      -2.066  -0.591   1.379  0.00  0.00    +0.151 HD
ATOM     30  H   UNL     1      -1.873  -0.415   3.702  0.00  0.00    +0.146 HD
ATOM     31  H   UNL     1      -1.980   1.090   4.440  0.00  0.00    +0.146 HD
ENDBRANCH  17  25
ENDBRANCH   1  17
TORSDOF 8
