REMARK  Name = ZINC14470614
REMARK  3 active torsions:
REMARK  status: ('A' for Active; 'I' for Inactive)
REMARK    1  A    between atoms: C_4  and  N_26
REMARK    2  A    between atoms: C_6  and  C_7
REMARK    3  A    between atoms: C_18  and  C_23
REMARK                            x       y       z     vdW  Elec       q    Type
REMARK                         _______ _______ _______ _____ _____    ______ ____
ROOT
ATOM      1  C   UNL     1       3.562   3.508  -0.503  0.00  0.00    +0.105 C 
ATOM      2  C   UNL     1       2.460   4.271   0.207  0.00  0.00    +0.029 C 
ATOM      3  C   UNL     1       2.613   4.168   1.743  0.00  0.00    +0.033 C 
ATOM      4  C   UNL     1       1.185   4.315   2.237  0.00  0.00    -0.030 C 
ATOM      5  C   UNL     1       0.338   4.010   1.286  0.00  0.00    -0.023 C 
ATOM      6  C   UNL     1       1.082   3.610   0.019  0.00  0.00    +0.049 C 
ATOM      7  C   UNL     1       1.167   2.107   0.002  0.00  0.00    -0.019 A 
ATOM      8  C   UNL     1      -0.017   1.391   0.010  0.00  0.00    +0.019 A 
ATOM      9  C   UNL     1       0.002  -0.004   0.002  0.00  0.00    +0.037 A 
ATOM     10  C   UNL     1       1.223  -0.686  -0.014  0.00  0.00    +0.015 A 
ATOM     11  C   UNL     1       2.398   0.028  -0.023  0.00  0.00    +0.024 A 
ATOM     12  C   UNL     1       2.373   1.421  -0.017  0.00  0.00    +0.031 A 
ATOM     13  N   UNL     1       3.579   2.119  -0.032  0.00  0.00    -0.336 N 
ATOM     14  H   UNL     1       4.404   1.699   0.261  0.00  0.00    +0.147 HD
ENDROOT
BRANCH   1  20
ATOM     15  C   UNL     1       2.399   2.655  -2.549  0.00  0.00    +0.007 A 
ATOM     16  C   UNL     1       2.164   2.679  -3.911  0.00  0.00    +0.022 A 
ATOM     17  C   UNL     1       2.850   3.572  -4.715  0.00  0.00    +0.071 A 
ATOM     18  C   UNL     1       3.766   4.444  -4.155  0.00  0.00    +0.145 A 
ATOM     19  C   UNL     1       3.996   4.423  -2.792  0.00  0.00    +0.039 A 
ATOM     20  C   UNL     1       3.311   3.530  -1.989  0.00  0.00    -0.025 A 
ATOM     21 CL   UNL     1       2.561   3.598  -6.427  0.00  0.00    -0.081 Cl
BRANCH  18  22
ATOM     22  N   UNL     1       4.500   5.400  -5.014  0.00  0.00    +0.058 N 
ATOM     23  O   UNL     1       5.306   6.168  -4.521  0.00  0.00    -0.126 OA
ATOM     24  O   UNL     1       4.297   5.419  -6.215  0.00  0.00    -0.126 OA
ENDBRANCH  18  22
ENDBRANCH   1  20
BRANCH   9  25
ATOM     25  C   UNL     1      -1.265  -0.759   0.010  0.00  0.00    +0.242 C 
ATOM     26  O   UNL     1      -2.326  -0.166   0.023  0.00  0.00    -0.270 OA
ATOM     27  N   UNL     1      -1.246  -2.107   0.003  0.00  0.00    -0.325 N 
ATOM     28  H   UNL     1      -0.400  -2.580  -0.008  0.00  0.00    +0.145 HD
ATOM     29  H   UNL     1      -2.079  -2.604   0.008  0.00  0.00    +0.145 HD
ENDBRANCH   9  25
TORSDOF 3
