REMARK  Name = ZINC64014949
REMARK  8 active torsions:
REMARK  status: ('A' for Active; 'I' for Inactive)
REMARK    1  A    between atoms: C_1  and  C_2
REMARK    2  A    between atoms: C_2  and  O_3
REMARK    3  A    between atoms: O_3  and  C_4
REMARK    4  A    between atoms: C_9  and  C_10
REMARK    5  A    between atoms: C_25  and  C_27
REMARK    6  A    between atoms: C_27  and  C_28
REMARK    7  A    between atoms: C_28  and  C_29
REMARK    8  A    between atoms: N_32  and  C_34
REMARK                            x       y       z     vdW  Elec       q    Type
REMARK                         _______ _______ _______ _____ _____    ______ ____
ROOT
ATOM      1  C   UNL     1      -3.981  -1.497   0.032  0.00  0.00    +0.136 C 
ATOM      2  C   UNL     1      -4.272  -0.995  -1.387  0.00  0.00    +0.131 C 
ATOM      3  C   UNL     1      -4.790  -2.192  -2.174  0.00  0.00    -0.035 C 
ATOM      4  C   UNL     1      -3.998  -2.314  -3.234  0.00  0.00    -0.001 A 
ATOM      5  C   UNL     1      -4.036  -3.232  -4.383  0.00  0.00    +0.010 A 
ATOM      6  C   UNL     1      -3.043  -3.085  -5.300  0.00  0.00    +0.001 A 
ATOM      7  C   UNL     1      -2.029  -2.129  -5.189  0.00  0.00    +0.002 A 
ATOM      8  C   UNL     1      -1.919  -1.242  -4.168  0.00  0.00    +0.026 A 
ATOM      9  C   UNL     1      -2.909  -1.295  -3.144  0.00  0.00    +0.043 A 
ATOM     10  N   UNL     1      -3.055  -0.545  -2.066  0.00  0.00    -0.375 N 
ATOM     11  C   UNL     1      -5.939  -3.043  -1.693  0.00  0.00    +0.052 C 
ATOM     12  C   UNL     1      -5.621  -3.434  -0.238  0.00  0.00    +0.113 C 
ATOM     13  N   UNL     1      -5.157  -2.251   0.495  0.00  0.00    -0.292 N 
ATOM     14  C   UNL     1      -5.813  -1.849   1.601  0.00  0.00    +0.216 C 
ATOM     15  O   UNL     1      -5.434  -0.871   2.210  0.00  0.00    -0.276 OA
ATOM     16  H   UNL     1      -2.470   0.168  -1.768  0.00  0.00    +0.160 HD
ENDROOT
BRANCH   1  22
ATOM     17  C   UNL     1      -1.635  -2.044   0.726  0.00  0.00    +0.125 A 
ATOM     18  C   UNL     1      -0.525  -2.877   0.714  0.00  0.00    +0.046 A 
ATOM     19  C   UNL     1      -0.554  -4.053  -0.010  0.00  0.00    +0.004 A 
ATOM     20  C   UNL     1      -1.688  -4.401  -0.722  0.00  0.00    +0.001 A 
ATOM     21  C   UNL     1      -2.794  -3.572  -0.711  0.00  0.00    +0.009 A 
ATOM     22  C   UNL     1      -2.772  -2.397   0.016  0.00  0.00    +0.017 A 
BRANCH  17  23
ATOM     23  O   UNL     1      -1.608  -0.886   1.438  0.00  0.00    -0.492 OA
BRANCH  23  25
ATOM     24  C   UNL     1      -0.562   0.745   2.882  0.00  0.00    +0.048 C 
ATOM     25  C   UNL     1      -0.404  -0.587   2.145  0.00  0.00    +0.225 C 
ENDBRANCH  23  25
ENDBRANCH  17  23
ENDBRANCH   1  22
BRANCH  14  26
ATOM     26  C   UNL     1      -7.018  -2.616   2.083  0.00  0.00    +0.101 C 
BRANCH  26  27
ATOM     27  C   UNL     1      -7.571  -1.956   3.347  0.00  0.00    +0.047 C 
BRANCH  27  28
ATOM     28  C   UNL     1      -8.776  -2.722   3.828  0.00  0.00    -0.009 A 
ATOM     29  C   UNL     1     -10.103  -2.490   3.452  0.00  0.00    +0.138 A 
ATOM     30  N   UNL     1     -10.862  -3.354   4.075  0.00  0.00    -0.180 NA
ATOM     31  N   UNL     1     -10.041  -4.165   4.869  0.00  0.00    -0.274 N 
ATOM     32  C   UNL     1      -8.765  -3.760   4.696  0.00  0.00    +0.111 A 
ATOM     33  C   UNL     1     -10.487  -5.262   5.731  0.00  0.00    +0.172 C 
ENDBRANCH  27  28
ENDBRANCH  26  27
ENDBRANCH  14  26
TORSDOF 6
