REMARK  Name = ZINC64567407
REMARK  7 active torsions:
REMARK  status: ('A' for Active; 'I' for Inactive)
REMARK    1  A    between atoms: C_1  and  C_2
REMARK    2  A    between atoms: C_4  and  C_9
REMARK    3  A    between atoms: C_5  and  C_8
REMARK    4  A    between atoms: C_9  and  C_10
REMARK    5  A    between atoms: C_10  and  C_11
REMARK    6  A    between atoms: C_14  and  C_17
REMARK    7  A    between atoms: C_24  and  C_26
REMARK                            x       y       z     vdW  Elec       q    Type
REMARK                         _______ _______ _______ _____ _____    ______ ____
ROOT
ATOM      1  C   UNL     1      -0.903  -1.177  -4.570  0.00  0.00    +0.208 C 
ATOM      2  N   UNL     1      -0.387  -0.251  -5.293  0.00  0.00    -0.140 NA
ATOM      3  N   UNL     1      -0.883  -0.318  -6.603  0.00  0.00    -0.146 N 
ATOM      4  C   UNL     1      -1.819  -1.456  -6.605  0.00  0.00    +0.319 C 
ATOM      5  O   UNL     1      -1.766  -1.953  -5.260  0.00  0.00    -0.451 OA
ATOM      6  C   UNL     1      -0.571   0.487  -7.640  0.00  0.00    +0.235 C 
ATOM      7  O   UNL     1      -1.085   0.308  -8.724  0.00  0.00    -0.274 OA
ATOM      8  C   UNL     1       0.416   1.610  -7.451  0.00  0.00    +0.111 C 
ENDROOT
BRANCH   4   9
ATOM      9  C   UNL     1      -1.362  -2.515  -7.575  0.00  0.00    +0.013 A 
ATOM     10  C   UNL     1      -0.013  -2.683  -7.829  0.00  0.00    +0.010 A 
ATOM     11  C   UNL     1       0.407  -3.654  -8.718  0.00  0.00    +0.016 A 
ATOM     12  C   UNL     1      -0.522  -4.458  -9.355  0.00  0.00    +0.018 A 
ATOM     13  C   UNL     1      -1.871  -4.289  -9.100  0.00  0.00    +0.016 A 
ATOM     14  C   UNL     1      -2.290  -3.321  -8.207  0.00  0.00    +0.010 A 
ATOM     15 BR   UNL     1       0.052  -5.786 -10.572  0.00  0.00    -0.050 Br
ENDBRANCH   4   9
BRANCH   1  16
ATOM     16  C   UNL     1      -0.577  -1.379  -3.113  0.00  0.00    +0.101 C 
BRANCH  16  17
ATOM     17  C   UNL     1       0.433  -0.322  -2.664  0.00  0.00    +0.044 C 
BRANCH  17  20
ATOM     18  C   UNL     1      -0.019   1.526   0.010  0.00  0.00    +0.039 C 
ATOM     19  C   UNL     1       0.002  -0.004   0.002  0.00  0.00    +0.153 C 
ATOM     20  C   UNL     1       0.759  -0.524  -1.207  0.00  0.00    -0.021 C 
ATOM     21  C   UNL     1       1.780  -1.203  -0.679  0.00  0.00    +0.061 C 
ATOM     22  N   UNL     1       1.738  -1.160   0.671  0.00  0.00    -0.159 NA
ATOM     23  N   UNL     1       0.787  -0.521   1.136  0.00  0.00    -0.180 NA
ATOM     24  C   UNL     1       2.837  -1.919  -1.480  0.00  0.00    +0.067 C 
ENDBRANCH  17  20
ENDBRANCH  16  17
ENDBRANCH   1  16
TORSDOF 4
