REMARK  Name = ZINC02371206
REMARK  4 active torsions:
REMARK  status: ('A' for Active; 'I' for Inactive)
REMARK    1  A    between atoms: N_10  and  C_11
REMARK    2  A    between atoms: C_11  and  N_53
REMARK    3  A    between atoms: N_14  and  C_17
REMARK    4  A    between atoms: C_26  and  C_29
REMARK                            x       y       z     vdW  Elec       q    Type
REMARK                         _______ _______ _______ _____ _____    ______ ____
ROOT
ATOM      1  C   UNL     1       3.623   1.854   3.855  0.00  0.00    +0.001 A 
ATOM      2  C   UNL     1       4.940   1.604   3.516  0.00  0.00    +0.002 A 
ATOM      3  C   UNL     1       5.257   1.112   2.267  0.00  0.00    +0.024 A 
ATOM      4  C   UNL     1       4.251   0.863   1.336  0.00  0.00    +0.043 A 
ATOM      5  C   UNL     1       2.930   1.119   1.688  0.00  0.00    +0.042 A 
ATOM      6  C   UNL     1       2.617   1.610   2.936  0.00  0.00    +0.011 A 
ATOM      7  C   UNL     1       2.098   0.754   0.486  0.00  0.00    +0.279 C 
ATOM      8  C   UNL     1       3.100   0.277  -0.537  0.00  0.00    +0.283 C 
ATOM      9  O   UNL     1       2.856  -0.119  -1.657  0.00  0.00    -0.269 OA
ATOM     10  N   UNL     1       4.316   0.372   0.031  0.00  0.00    -0.283 N 
ATOM     11  O   UNL     1       1.172  -0.289   0.809  0.00  0.00    -0.335 OA
ATOM     12  C   UNL     1       0.002  -0.004   0.002  0.00  0.00    +0.197 C 
ATOM     13  C   UNL     1      -0.019   1.545   0.011  0.00  0.00    +0.163 C 
ATOM     14  O   UNL     1       1.382   1.891  -0.001  0.00  0.00    -0.331 OA
ENDROOT
BRANCH  13  15
ATOM     15  C   UNL     1      -0.719   2.083  -1.239  0.00  0.00    +0.142 C 
ATOM     16 CL   UNL     1      -0.855   3.878  -1.126  0.00  0.00    -0.123 Cl
ENDBRANCH  13  15
BRANCH  10  17
ATOM     17  C   UNL     1       5.564   0.003  -0.642  0.00  0.00    +0.038 C 
BRANCH  17  23
ATOM     18  C   UNL     1       6.489  -1.591   0.929  0.00  0.00    -0.057 C 
ATOM     19  C   UNL     1       6.706  -3.083   1.190  0.00  0.00    +0.086 C 
ATOM     20  N   UNL     1       7.548  -3.646   0.126  0.00  0.00    -0.331 N 
ATOM     21  C   UNL     1       6.917  -3.469  -1.190  0.00  0.00    +0.086 C 
ATOM     22  C   UNL     1       6.700  -1.976  -1.451  0.00  0.00    -0.057 C 
ATOM     23  N   UNL     1       5.834  -1.427  -0.386  0.00  0.00    +0.392 N 
ATOM     24  H   UNL     1       4.944  -1.940  -0.382  0.00  0.00    -0.079 HD
BRANCH  20  25
ATOM     25  C   UNL     1       7.828  -4.995   0.369  0.00  0.00    +0.065 A 
ATOM     26  C   UNL     1       8.676  -5.693  -0.480  0.00  0.00    +0.026 A 
ATOM     27  C   UNL     1       8.951  -7.025  -0.237  0.00  0.00    +0.002 A 
ATOM     28  C   UNL     1       8.383  -7.664   0.850  0.00  0.00    +0.003 A 
ATOM     29  C   UNL     1       7.538  -6.972   1.699  0.00  0.00    +0.040 A 
ATOM     30  C   UNL     1       7.263  -5.637   1.465  0.00  0.00    +0.144 A 
ATOM     31  F   UNL     1       6.442  -4.960   2.297  0.00  0.00    -0.204 F 
ENDBRANCH  20  25
ENDBRANCH  17  23
ENDBRANCH  10  17
TORSDOF 4
