REMARK  Name = ZINC32850862
REMARK  10 active torsions:
REMARK  status: ('A' for Active; 'I' for Inactive)
REMARK    1  A    between atoms: C_1  and  C_2
REMARK    2  A    between atoms: C_2  and  O_3
REMARK    3  A    between atoms: O_3  and  C_4
REMARK    4  A    between atoms: C_4  and  C_6
REMARK    5  A    between atoms: C_6  and  C_8
REMARK    6  A    between atoms: C_6  and  N_15
REMARK    7  A    between atoms: C_21  and  C_23
REMARK    8  A    between atoms: C_24  and  C_30
REMARK    9  A    between atoms: C_25  and  C_29
REMARK   10  A    between atoms: C_27  and  C_28
REMARK                            x       y       z     vdW  Elec       q    Type
REMARK                         _______ _______ _______ _____ _____    ______ ____
ROOT
ATOM      1  N   UNL     1      -3.468   3.146  -0.957  0.00  0.00    +0.393 N 
ATOM      2  C   UNL     1      -3.347   1.690  -1.105  0.00  0.00    -0.058 C 
ATOM      3  C   UNL     1      -2.466   1.137   0.020  0.00  0.00    +0.089 C 
ATOM      4  N   UNL     1      -1.191   1.870   0.018  0.00  0.00    -0.301 N 
ATOM      5  C   UNL     1      -1.233   3.340   0.032  0.00  0.00    +0.089 C 
ATOM      6  C   UNL     1      -2.163   3.806  -1.099  0.00  0.00    -0.058 C 
ATOM      7  C   UNL     1      -0.014   1.212   0.009  0.00  0.00    +0.250 C 
ATOM      8  O   UNL     1       0.002  -0.004   0.002  0.00  0.00    -0.270 OA
ATOM      9  H   UNL     1      -3.837   3.350   0.059  0.00  0.00    -0.080 HD
ENDROOT
BRANCH   7  10
ATOM     10  C   UNL     1       1.252   1.966   0.001  0.00  0.00    +0.081 A 
ATOM     11  C   UNL     1       2.004   2.427  -1.175  0.00  0.00    +0.003 A 
ATOM     12  C   UNL     1       3.083   3.065  -0.696  0.00  0.00    +0.106 A 
ATOM     13  O   UNL     1       3.054   3.032   0.645  0.00  0.00    -0.464 OA
ATOM     14  C   UNL     1       1.968   2.387   1.083  0.00  0.00    +0.115 A 
ATOM     15  C   UNL     1       1.598   2.161   2.526  0.00  0.00    +0.087 C 
ATOM     16  C   UNL     1       4.157   3.714  -1.531  0.00  0.00    +0.086 C 
ATOM     17  C   UNL     1       1.638   2.225  -2.623  0.00  0.00    +0.048 C 
ENDBRANCH   7  10
BRANCH   1  18
ATOM     18  C   UNL     1      -4.441   3.693  -1.912  0.00  0.00    +0.073 C 
BRANCH  18  19
ATOM     19  C   UNL     1      -4.361   5.198  -1.904  0.00  0.00    -0.050 A 
ATOM     20  C   UNL     1      -4.199   5.875  -0.709  0.00  0.00    +0.004 A 
ATOM     21  C   UNL     1      -4.120   7.255  -0.702  0.00  0.00    +0.020 A 
ATOM     22  C   UNL     1      -4.214   7.960  -1.889  0.00  0.00    +0.041 A 
ATOM     23  C   UNL     1      -4.382   7.282  -3.083  0.00  0.00    +0.020 A 
ATOM     24  C   UNL     1      -4.455   5.902  -3.090  0.00  0.00    +0.004 A 
ATOM     25 CL   UNL     1      -4.123   9.693  -1.880  0.00  0.00    -0.084 Cl
ENDBRANCH  18  19
BRANCH  18  26
ATOM     26  C   UNL     1      -5.830   3.262  -1.516  0.00  0.00    +0.298 C 
ATOM     27  O   UNL     1      -5.992   2.570  -0.539  0.00  0.00    -0.252 OA
BRANCH  26  28
ATOM     28  O   UNL     1      -6.887   3.647  -2.248  0.00  0.00    -0.466 OA
BRANCH  28  30
ATOM     29  C   UNL     1      -9.266   3.729  -2.760  0.00  0.00    +0.048 C 
ATOM     30  C   UNL     1      -8.194   3.194  -1.808  0.00  0.00    +0.228 C 
ENDBRANCH  28  30
ENDBRANCH  26  28
ENDBRANCH  18  26
ENDBRANCH   1  18
TORSDOF 6
