REMARK  Name = ZINC66474715
REMARK  9 active torsions:
REMARK  status: ('A' for Active; 'I' for Inactive)
REMARK    1  A    between atoms: C_1  and  C_2
REMARK    2  A    between atoms: C_5  and  C_7
REMARK    3  A    between atoms: C_7  and  N_8
REMARK    4  A    between atoms: N_8  and  C_9
REMARK    5  A    between atoms: N_8  and  C_26
REMARK    6  A    between atoms: C_9  and  C_10
REMARK    7  A    between atoms: C_23  and  C_25
REMARK    8  A    between atoms: C_26  and  C_27
REMARK    9  A    between atoms: C_26  and  C_28
REMARK                            x       y       z     vdW  Elec       q    Type
REMARK                         _______ _______ _______ _____ _____    ______ ____
ROOT
ATOM      1  C   UNL     1       2.021  -6.185  -2.700  0.00  0.00    +0.204 C 
ATOM      2  O   UNL     1       1.863  -5.423  -3.630  0.00  0.00    -0.277 OA
ATOM      3  N   UNL     1       2.503  -7.424  -2.917  0.00  0.00    -0.268 N 
ATOM      4  C   UNL     1       2.685  -8.317  -1.852  0.00  0.00    +0.058 A 
ATOM      5  C   UNL     1       1.596  -8.897  -1.223  0.00  0.00    +0.025 A 
ATOM      6  C   UNL     1       1.796  -9.793  -0.189  0.00  0.00    +0.002 A 
ATOM      7  C   UNL     1       3.079 -10.113   0.219  0.00  0.00    +0.002 A 
ATOM      8  C   UNL     1       4.171  -9.531  -0.398  0.00  0.00    +0.025 A 
ATOM      9  C   UNL     1       3.978  -8.624  -1.428  0.00  0.00    +0.055 A 
ATOM     10  N   UNL     1       5.066  -7.981  -2.030  0.00  0.00    -0.284 N 
ATOM     11  C   UNL     1       5.167  -7.921  -3.375  0.00  0.00    +0.219 C 
ATOM     12  O   UNL     1       6.069  -7.290  -3.884  0.00  0.00    -0.275 OA
ATOM     13  C   UNL     1       4.168  -8.633  -4.248  0.00  0.00    +0.118 C 
ATOM     14  C   UNL     1       2.841  -7.865  -4.272  0.00  0.00    +0.087 C 
ATOM     15  C   UNL     1       1.731  -8.775  -4.802  0.00  0.00    +0.029 C 
ATOM     16  H   UNL     1       5.751  -7.575  -1.476  0.00  0.00    +0.155 HD
ENDROOT
BRANCH   1  17
ATOM     17  C   UNL     1       1.678  -5.745  -1.299  0.00  0.00    +0.020 C 
BRANCH  17  18
ATOM     18  N   UNL     1       0.986  -4.450  -1.349  0.00  0.00    +0.390 N 
ATOM     19  H   UNL     1       1.419  -3.864  -2.046  0.00  0.00    -0.080 HD
BRANCH  18  20
ATOM     20  C   UNL     1      -0.425  -4.662  -1.696  0.00  0.00    -0.074 C 
ATOM     21  C   UNL     1      -0.520  -5.270  -3.096  0.00  0.00    -0.013 C 
ATOM     22  C   UNL     1      -1.062  -5.615  -0.682  0.00  0.00    -0.013 C 
ENDBRANCH  18  20
BRANCH  18  23
ATOM     23  C   UNL     1       1.075  -3.797  -0.035  0.00  0.00    -0.035 C 
BRANCH  23  28
ATOM     24  C   UNL     1      -0.114   1.715  -0.569  0.00  0.00    +0.051 C 
ATOM     25  C   UNL     1      -0.056   0.221  -0.382  0.00  0.00    -0.013 A 
ATOM     26  C   UNL     1      -1.062  -0.645  -0.109  0.00  0.00    +0.011 A 
ATOM     27  C   UNL     1      -0.772  -1.990   0.021  0.00  0.00    +0.009 A 
ATOM     28  C   UNL     1       0.510  -2.403  -0.128  0.00  0.00    -0.026 A 
ATOM     29  S   UNL     1       1.355  -0.869  -0.471  0.00  0.00    -0.100 S 
ENDBRANCH  23  28
ENDBRANCH  18  23
ENDBRANCH  17  18
ENDBRANCH   1  17
TORSDOF 5
