REMARK  Name = ZINC14731568
REMARK  9 active torsions:
REMARK  status: ('A' for Active; 'I' for Inactive)
REMARK    1  A    between atoms: C_1  and  C_2
REMARK    2  A    between atoms: C_2  and  C_3
REMARK    3  A    between atoms: C_2  and  C_4
REMARK    4  A    between atoms: C_4  and  N_5
REMARK    5  A    between atoms: N_8  and  C_27
REMARK    6  A    between atoms: C_16  and  N_73
REMARK    7  A    between atoms: C_27  and  C_28
REMARK    8  A    between atoms: C_28  and  C_29
REMARK    9  A    between atoms: C_29  and  C_30
REMARK                            x       y       z     vdW  Elec       q    Type
REMARK                         _______ _______ _______ _____ _____    ______ ____
ROOT
ATOM      1  N   UNL     1      -0.704   3.392  -0.052  0.00  0.00    -0.271 N 
ATOM      2  C   UNL     1       0.623   3.160  -0.084  0.00  0.00    +0.312 C 
ATOM      3  O   UNL     1       1.464   4.036  -0.032  0.00  0.00    -0.252 OA
ATOM      4  N   UNL     1       0.911   1.856  -0.178  0.00  0.00    -0.224 N 
ATOM      5  C   UNL     1      -0.208   1.102  -0.217  0.00  0.00    +0.247 C 
ATOM      6  O   UNL     1      -0.276  -0.106  -0.300  0.00  0.00    -0.273 OA
ATOM      7  C   UNL     1      -1.356   2.080  -0.141  0.00  0.00    +0.112 C 
ATOM      8  C   UNL     1      -2.200   1.819   1.102  0.00  0.00    +0.017 C 
ATOM      9  C   UNL     1      -3.370   2.807   1.138  0.00  0.00    -0.076 C 
ATOM     10  C   UNL     1      -3.386   2.974  -1.281  0.00  0.00    -0.076 C 
ATOM     11  C   UNL     1      -2.217   1.992  -1.398  0.00  0.00    +0.017 C 
ATOM     12  N   UNL     1      -4.183   2.628  -0.084  0.00  0.00    +0.382 N 
ATOM     13  H   UNL     1      -4.473   1.645  -0.150  0.00  0.00    -0.081 HD
ENDROOT
BRANCH  12  14
ATOM     14  C   UNL     1      -5.388   3.480  -0.018  0.00  0.00    -0.064 C 
ATOM     15  C   UNL     1      -6.302   3.147  -1.203  0.00  0.00    -0.010 C 
ATOM     16  C   UNL     1      -7.648   3.833  -0.980  0.00  0.00    +0.034 C 
ATOM     17  C   UNL     1      -7.453   5.294  -0.670  0.00  0.00    -0.044 A 
ATOM     18  C   UNL     1      -8.550   6.136  -0.805  0.00  0.00    +0.004 A 
ATOM     19  C   UNL     1      -8.438   7.482  -0.530  0.00  0.00    +0.000 A 
ATOM     20  C   UNL     1      -7.225   8.000  -0.116  0.00  0.00    +0.000 A 
ATOM     21  C   UNL     1      -6.134   7.167   0.017  0.00  0.00    +0.004 A 
ATOM     22  C   UNL     1      -6.244   5.810  -0.261  0.00  0.00    -0.046 A 
ATOM     23  C   UNL     1      -5.012   4.958  -0.099  0.00  0.00    +0.020 C 
ENDBRANCH  12  14
BRANCH   1  24
ATOM     24  C   UNL     1      -1.364   4.696   0.046  0.00  0.00    +0.113 C 
BRANCH  24  26
ATOM     25  C   UNL     1      -1.439   4.957  -2.438  0.00  0.00    +0.009 C 
ATOM     26  C   UNL     1      -0.936   5.575  -1.131  0.00  0.00    +0.000 C 
ATOM     27  C   UNL     1      -1.532   6.974  -0.966  0.00  0.00    +0.009 C 
ENDBRANCH  24  26
ENDBRANCH   1  24
BRANCH   4  28
ATOM     28  C   UNL     1       2.271   1.315  -0.232  0.00  0.00    +0.118 C 
BRANCH  28  29
ATOM     29  C   UNL     1       2.727   1.227  -1.689  0.00  0.00    +0.024 C 
BRANCH  29  30
ATOM     30  C   UNL     1       4.148   0.662  -1.746  0.00  0.00    +0.038 C 
BRANCH  30  31
ATOM     31  C   UNL     1       4.597   0.576  -3.182  0.00  0.00    -0.029 A 
ATOM     32  C   UNL     1       4.368  -0.575  -3.921  0.00  0.00    +0.006 A 
ATOM     33  C   UNL     1       4.795  -0.608  -5.240  0.00  0.00    +0.020 A 
ATOM     34  C   UNL     1       5.439   0.496  -5.767  0.00  0.00    +0.111 A 
ATOM     35  N   UNL     1       5.644   1.571  -5.032  0.00  0.00    -0.263 NA
ATOM     36  C   UNL     1       5.248   1.639  -3.776  0.00  0.00    +0.114 A 
ENDBRANCH  30  31
ENDBRANCH  29  30
ENDBRANCH  28  29
ENDBRANCH   4  28
TORSDOF 7
