REMARK  Name = ZINC13554798
REMARK  6 active torsions:
REMARK  status: ('A' for Active; 'I' for Inactive)
REMARK    1  A    between atoms: C_1  and  O_2
REMARK    2  A    between atoms: O_2  and  C_3
REMARK    3  A    between atoms: C_8  and  N_9
REMARK    4  A    between atoms: N_21  and  C_22
REMARK    5  A    between atoms: C_22  and  C_24
REMARK    6  A    between atoms: C_24  and  C_25
REMARK                            x       y       z     vdW  Elec       q    Type
REMARK                         _______ _______ _______ _____ _____    ______ ____
ROOT
ATOM      1  N   UNL     1      -2.428   1.039   0.019  0.00  0.00    -0.273 N 
ATOM      2  C   UNL     1      -3.057   0.682  -1.238  0.00  0.00    +0.116 C 
ATOM      3  C   UNL     1      -3.344   1.974  -2.065  0.00  0.00    +0.190 C 
ATOM      4  S   UNL     1      -4.898   1.524  -2.950  0.00  0.00    -0.028 S 
ATOM      5  O   UNL     1      -4.579   0.760  -4.104  0.00  0.00    -0.174 OA
ATOM      6  O   UNL     1      -5.721   2.676  -3.071  0.00  0.00    -0.174 OA
ATOM      7  C   UNL     1      -5.593   0.410  -1.652  0.00  0.00    +0.182 C 
ATOM      8  C   UNL     1      -4.304  -0.192  -1.061  0.00  0.00    +0.097 C 
ATOM      9  S   UNL     1      -4.452  -0.253   0.763  0.00  0.00    -0.086 S 
ATOM     10  C   UNL     1      -3.004   0.688   1.198  0.00  0.00    +0.154 C 
ATOM     11  N   UNL     1      -2.576   0.985   2.420  0.00  0.00    -0.159 NA
ENDROOT
BRANCH   1  17
ATOM     12  C   UNL     1      -1.238   3.146   0.031  0.00  0.00    +0.141 A 
ATOM     13  C   UNL     1      -0.043   3.848   0.023  0.00  0.00    +0.047 A 
ATOM     14  C   UNL     1       1.160   3.166   0.008  0.00  0.00    +0.004 A 
ATOM     15  C   UNL     1       1.175   1.783   0.000  0.00  0.00    +0.002 A 
ATOM     16  C   UNL     1      -0.013   1.076   0.008  0.00  0.00    +0.027 A 
ATOM     17  C   UNL     1      -1.223   1.753   0.017  0.00  0.00    +0.078 A 
BRANCH  12  19
ATOM     18  C   UNL     1      -2.359   5.243   0.054  0.00  0.00    +0.277 C 
ATOM     19  O   UNL     1      -2.421   3.816   0.047  0.00  0.00    -0.493 OA
ENDBRANCH  12  19
ENDBRANCH   1  17
BRANCH  11  20
ATOM     20  C   UNL     1      -3.257   0.565   3.484  0.00  0.00    +0.238 C 
ATOM     21  O   UNL     1      -4.270  -0.091   3.337  0.00  0.00    -0.274 OA
BRANCH  20  22
ATOM     22  C   UNL     1      -2.772   0.902   4.870  0.00  0.00    +0.101 C 
BRANCH  22  23
ATOM     23  C   UNL     1      -3.728   0.303   5.904  0.00  0.00    -0.002 C 
ATOM     24  C   UNL     1      -5.098   0.973   5.780  0.00  0.00    +0.004 C 
ATOM     25  C   UNL     1      -6.053   0.375   6.814  0.00  0.00    +0.000 C 
ATOM     26  C   UNL     1      -5.496   0.610   8.220  0.00  0.00    +0.000 C 
ATOM     27  C   UNL     1      -4.126  -0.061   8.344  0.00  0.00    +0.000 C 
ATOM     28  C   UNL     1      -3.170   0.538   7.310  0.00  0.00    +0.004 C 
ENDBRANCH  22  23
ENDBRANCH  20  22
ENDBRANCH  11  20
TORSDOF 5
