REMARK  Name = ZINC04591645
REMARK  5 active torsions:
REMARK  status: ('A' for Active; 'I' for Inactive)
REMARK    1  A    between atoms: C_1  and  C_2
REMARK    2  A    between atoms: C_5  and  S_8
REMARK    3  A    between atoms: S_8  and  N_11
REMARK    4  A    between atoms: C_17  and  C_18
REMARK    5  A    between atoms: C_21  and  C_23
REMARK                            x       y       z     vdW  Elec       q    Type
REMARK                         _______ _______ _______ _____ _____    ______ ____
ROOT
ATOM      1  N   UNL     1       1.651  -4.999  -0.034  0.00  0.00    -0.106 NA
ATOM      2  C   UNL     1       1.956  -6.268  -0.043  0.00  0.00    +0.186 C 
ATOM      3  N   UNL     1       3.208  -6.850  -0.047  0.00  0.00    -0.259 N 
ATOM      4  C   UNL     1       3.337  -8.166  -0.057  0.00  0.00    +0.257 C 
ATOM      5  O   UNL     1       4.433  -8.697  -0.061  0.00  0.00    -0.269 OA
ATOM      6  C   UNL     1       2.099  -8.961  -0.061  0.00  0.00    +0.081 C 
ATOM      7  C   UNL     1       1.941 -10.314  -0.070  0.00  0.00    +0.066 C 
ATOM      8  S   UNL     1       0.858  -7.675  -0.044  0.00  0.00    -0.047 S 
ATOM      9  H   UNL     1       3.999  -6.289  -0.044  0.00  0.00    +0.157 HD
ENDROOT
BRANCH   7  10
ATOM     10  C   UNL     1       0.642 -10.875  -0.073  0.00  0.00    +0.129 A 
ATOM     11  C   UNL     1       0.337 -12.221  -0.076  0.00  0.00    +0.049 A 
ATOM     12  C   UNL     1      -1.064 -12.313  -0.078  0.00  0.00    +0.045 A 
ATOM     13  C   UNL     1      -1.547 -11.052  -0.075  0.00  0.00    +0.103 A 
ATOM     14  O   UNL     1      -0.520 -10.189  -0.068  0.00  0.00    -0.461 OA
ATOM     15  C   UNL     1      -3.006 -10.674  -0.076  0.00  0.00    +0.086 C 
ENDBRANCH   7  10
BRANCH   1  16
ATOM     16  S   UNL     1       0.063  -4.530  -0.023  0.00  0.00    +0.101 S 
ATOM     17  O   UNL     1      -0.476  -4.950   1.223  0.00  0.00    -0.146 OA
ATOM     18  O   UNL     1      -0.490  -4.937  -1.267  0.00  0.00    -0.146 OA
BRANCH  16  23
ATOM     19  C   UNL     1      -0.018   1.503   0.010  0.00  0.00    +0.044 C 
ATOM     20  C   UNL     1       0.002  -0.004   0.002  0.00  0.00    -0.050 A 
ATOM     21  C   UNL     1       0.006  -0.689  -1.199  0.00  0.00    +0.005 A 
ATOM     22  C   UNL     1       0.025  -2.071  -1.206  0.00  0.00    +0.029 A 
ATOM     23  C   UNL     1       0.040  -2.768  -0.013  0.00  0.00    +0.113 A 
ATOM     24  C   UNL     1       0.037  -2.084   1.188  0.00  0.00    +0.029 A 
ATOM     25  C   UNL     1       0.023  -0.702   1.195  0.00  0.00    +0.005 A 
ENDBRANCH  16  23
ENDBRANCH   1  16
TORSDOF 3
