REMARK  Name = ZINC63137047
REMARK  8 active torsions:
REMARK  status: ('A' for Active; 'I' for Inactive)
REMARK    1  A    between atoms: C_1  and  C_2
REMARK    2  A    between atoms: C_2  and  C_3
REMARK    3  A    between atoms: C_3  and  C_4
REMARK    4  A    between atoms: C_4  and  C_5
REMARK    5  A    between atoms: C_5  and  C_6
REMARK    6  A    between atoms: C_6  and  N_7
REMARK    7  A    between atoms: C_27  and  C_29
REMARK    8  A    between atoms: C_33  and  C_35
REMARK                            x       y       z     vdW  Elec       q    Type
REMARK                         _______ _______ _______ _____ _____    ______ ____
ROOT
ATOM      1  N   UNL     1       2.157  -4.551  -3.729  0.00  0.00    -0.291 N 
ATOM      2  C   UNL     1       1.365  -4.777  -4.926  0.00  0.00    +0.203 C 
ATOM      3  C   UNL     1       2.194  -5.258  -6.070  0.00  0.00    +0.234 C 
ATOM      4  O   UNL     1       1.630  -5.480  -7.120  0.00  0.00    -0.274 OA
ATOM      5  N   UNL     1       3.516  -5.461  -6.019  0.00  0.00    -0.279 N 
ATOM      6  C   UNL     1       4.306  -5.211  -4.818  0.00  0.00    +0.167 C 
ATOM      7  C   UNL     1       3.475  -4.736  -3.672  0.00  0.00    +0.237 C 
ATOM      8  O   UNL     1       4.035  -4.509  -2.620  0.00  0.00    -0.274 OA
ATOM      9  C   UNL     1       5.406  -4.176  -5.118  0.00  0.00    +0.065 C 
ATOM     10  C   UNL     1       6.046  -4.595  -6.419  0.00  0.00    -0.034 C 
ATOM     11  C   UNL     1       7.316  -4.783  -6.754  0.00  0.00    -0.001 A 
ATOM     12  C   UNL     1       8.569  -4.548  -6.019  0.00  0.00    +0.010 A 
ATOM     13  C   UNL     1       9.716  -4.880  -6.668  0.00  0.00    +0.001 A 
ATOM     14  C   UNL     1       9.742  -5.415  -7.960  0.00  0.00    +0.002 A 
ATOM     15  C   UNL     1       8.639  -5.655  -8.713  0.00  0.00    +0.026 A 
ATOM     16  C   UNL     1       7.372  -5.340  -8.140  0.00  0.00    +0.043 A 
ATOM     17  N   UNL     1       6.175  -5.443  -8.638  0.00  0.00    -0.375 N 
ATOM     18  C   UNL     1       5.223  -4.914  -7.661  0.00  0.00    +0.131 C 
ATOM     19  C   UNL     1       4.186  -5.960  -7.241  0.00  0.00    +0.133 C 
ATOM     20  H   UNL     1       5.952  -5.809  -9.508  0.00  0.00    +0.160 HD
ENDROOT
BRANCH  19  21
ATOM     21  C   UNL     1       3.172  -6.145  -8.341  0.00  0.00    -0.024 A 
ATOM     22  C   UNL     1       2.825  -5.077  -9.148  0.00  0.00    +0.005 A 
ATOM     23  C   UNL     1       1.895  -5.247 -10.156  0.00  0.00    +0.001 A 
ATOM     24  C   UNL     1       1.312  -6.485 -10.358  0.00  0.00    +0.003 A 
ATOM     25  C   UNL     1       1.660  -7.552  -9.551  0.00  0.00    -0.050 A 
ATOM     26  C   UNL     1       2.593  -7.383  -8.545  0.00  0.00    +0.009 A 
ATOM     27  C   UNL     1       1.024  -8.901  -9.771  0.00  0.00    +0.044 C 
ENDBRANCH  19  21
BRANCH   1  28
ATOM     28  C   UNL     1       1.470  -4.088  -2.521  0.00  0.00    +0.108 C 
BRANCH  28  29
ATOM     29  C   UNL     1       1.441  -2.558  -2.505  0.00  0.00    +0.019 C 
BRANCH  29  30
ATOM     30  C   UNL     1       0.724  -2.074  -1.243  0.00  0.00    +0.002 C 
BRANCH  30  31
ATOM     31  C   UNL     1       0.695  -0.545  -1.227  0.00  0.00    -0.000 C 
BRANCH  31  33
ATOM     32  C   UNL     1      -0.051   1.468   0.050  0.00  0.00    +0.004 C 
ATOM     33  C   UNL     1      -0.023  -0.061   0.034  0.00  0.00    -0.003 C 
ENDBRANCH  31  33
ENDBRANCH  30  31
ENDBRANCH  29  30
ENDBRANCH  28  29
ENDBRANCH   1  28
TORSDOF 6
