REMARK  Name = ZINC01350046
REMARK  8 active torsions:
REMARK  status: ('A' for Active; 'I' for Inactive)
REMARK    1  A    between atoms: C_1  and  C_2
REMARK    2  A    between atoms: C_2  and  C_3
REMARK    3  A    between atoms: C_2  and  C_4
REMARK    4  A    between atoms: C_4  and  C_6
REMARK    5  A    between atoms: C_4  and  N_53
REMARK    6  A    between atoms: N_10  and  C_11
REMARK    7  A    between atoms: C_11  and  C_12
REMARK    8  A    between atoms: N_19  and  C_22
REMARK                            x       y       z     vdW  Elec       q    Type
REMARK                         _______ _______ _______ _____ _____    ______ ____
ROOT
ATOM      1  C   UNL     1       0.534   3.772  -1.474  0.00  0.00    +0.005 C 
ENDROOT
BRANCH   1   7
ATOM      2  C   UNL     1       0.920   6.155  -1.294  0.00  0.00    -0.059 C 
ATOM      3  C   UNL     1       0.263   7.528  -1.454  0.00  0.00    +0.086 C 
ATOM      4  N   UNL     1      -0.864   7.641  -0.517  0.00  0.00    -0.333 N 
ATOM      5  C   UNL     1      -1.861   6.591  -0.767  0.00  0.00    +0.086 C 
ATOM      6  C   UNL     1      -1.204   5.219  -0.607  0.00  0.00    -0.059 C 
ATOM      7  N   UNL     1      -0.087   5.110  -1.570  0.00  0.00    +0.389 N 
ATOM      8  H   UNL     1      -0.452   5.241  -2.521  0.00  0.00    -0.081 HD
BRANCH   4   9
ATOM      9  C   UNL     1      -1.445   8.910  -0.583  0.00  0.00    +0.030 A 
ATOM     10  C   UNL     1      -2.799   9.041  -0.864  0.00  0.00    +0.023 A 
ATOM     11  C   UNL     1      -3.371  10.297  -0.924  0.00  0.00    +0.002 A 
ATOM     12  C   UNL     1      -2.596  11.422  -0.716  0.00  0.00    +0.000 A 
ATOM     13  C   UNL     1      -1.246  11.295  -0.442  0.00  0.00    +0.002 A 
ATOM     14  C   UNL     1      -0.669  10.043  -0.375  0.00  0.00    +0.023 A 
ENDBRANCH   4   9
ENDBRANCH   1   7
BRANCH   1  15
ATOM     15  C   UNL     1      -0.495   2.728  -1.828  0.00  0.00    +0.139 A 
ATOM     16  N   UNL     1      -1.342   2.772  -2.826  0.00  0.00    -0.115 NA
ATOM     17  N   UNL     1      -2.052   1.697  -2.793  0.00  0.00    -0.023 NA
ATOM     18  N   UNL     1      -1.676   0.967  -1.802  0.00  0.00    -0.044 NA
ATOM     19  N   UNL     1      -0.721   1.571  -1.179  0.00  0.00    -0.226 N 
BRANCH  19  20
ATOM     20  C   UNL     1      -0.013   1.086   0.008  0.00  0.00    +0.189 C 
BRANCH  20  21
ATOM     21  C   UNL     1      -0.718   1.572   1.248  0.00  0.00    +0.011 A 
ATOM     22  C   UNL     1      -1.714   0.979   1.951  0.00  0.00    +0.013 A 
ATOM     23  C   UNL     1      -2.214   1.616   3.071  0.00  0.00    +0.008 A 
ATOM     24  C   UNL     1      -1.694   2.814   3.433  0.00  0.00    +0.045 A 
ATOM     25  S   UNL     1      -0.454   3.074   2.176  0.00  0.00    -0.100 S 
ENDBRANCH  20  21
ENDBRANCH  19  20
ENDBRANCH   1  15
BRANCH   1  27
ATOM     26  C   UNL     1       2.337   2.303  -2.389  0.00  0.00    +0.006 C 
ATOM     27  C   UNL     1       1.700   3.692  -2.462  0.00  0.00    -0.024 C 
ATOM     28  C   UNL     1       1.185   3.944  -3.881  0.00  0.00    +0.006 C 
ENDBRANCH   1  27
TORSDOF 6
