REMARK  Name = ZINC19664559
REMARK  4 active torsions:
REMARK  status: ('A' for Active; 'I' for Inactive)
REMARK    1  A    between atoms: C_3  and  O_20
REMARK    2  A    between atoms: C_6  and  N_7
REMARK    3  A    between atoms: C_8  and  C_10
REMARK    4  A    between atoms: O_20  and  C_21
REMARK                            x       y       z     vdW  Elec       q    Type
REMARK                         _______ _______ _______ _____ _____    ______ ____
ROOT
ATOM      1  N   UNL     1       1.704   3.453   0.043  0.00  0.00    -0.284 N 
ATOM      2  C   UNL     1       1.031   4.205   0.936  0.00  0.00    +0.238 C 
ATOM      3  O   UNL     1       0.359   3.673   1.794  0.00  0.00    -0.273 OA
ATOM      4  H   UNL     1       2.370   3.933  -0.689  0.00  0.00    +0.155 HD
ENDROOT
BRANCH   2   5
ATOM      5  C   UNL     1       1.114   5.709   0.869  0.00  0.00    +0.161 C 
ATOM      6  C   UNL     1       0.214   6.192  -0.241  0.00  0.00    +0.041 C 
ATOM      7  C   UNL     1       0.477   7.625  -0.634  0.00  0.00    +0.098 C 
ATOM      8  C   UNL     1       0.002   8.609   0.373  0.00  0.00    +0.220 C 
ATOM      9  O   UNL     1      -0.446   9.651  -0.056  0.00  0.00    -0.275 OA
ATOM     10  N   UNL     1       0.015   8.468   1.683  0.00  0.00    -0.240 N 
ATOM     11  C   UNL     1       0.341   7.455   2.446  0.00  0.00    +0.306 C 
ATOM     12  O   UNL     1       0.217   7.671   3.635  0.00  0.00    -0.252 OA
ATOM     13  N   UNL     1       0.775   6.247   2.163  0.00  0.00    -0.288 N 
ATOM     14  H   UNL     1      -0.289   9.304   2.329  0.00  0.00    +0.159 HD
ATOM     15  H   UNL     1       0.871   5.619   3.062  0.00  0.00    +0.151 HD
ENDBRANCH   2   5
BRANCH   1  21
ATOM     16  C   UNL     1       0.333   1.494   0.387  0.00  0.00    +0.027 A 
ATOM     17  C   UNL     1       0.185   0.121   0.390  0.00  0.00    +0.048 A 
ATOM     18  C   UNL     1       1.257  -0.693   0.052  0.00  0.00    +0.129 A 
ATOM     19  C   UNL     1       2.478  -0.127  -0.288  0.00  0.00    +0.048 A 
ATOM     20  C   UNL     1       2.627   1.246  -0.291  0.00  0.00    +0.027 A 
ATOM     21  C   UNL     1       1.554   2.060   0.046  0.00  0.00    +0.034 A 
BRANCH  18  22
ATOM     22  O   UNL     1       1.112  -2.044   0.055  0.00  0.00    -0.456 OA
BRANCH  22  23
ATOM     23  C   UNL     1       1.640  -2.741   1.096  0.00  0.00    +0.129 A 
ATOM     24  C   UNL     1       2.308  -2.072   2.111  0.00  0.00    +0.049 A 
ATOM     25  C   UNL     1       2.839  -2.780   3.171  0.00  0.00    +0.042 A 
ATOM     26  C   UNL     1       2.714  -4.159   3.216  0.00  0.00    +0.124 A 
ATOM     27  C   UNL     1       2.052  -4.828   2.200  0.00  0.00    +0.042 A 
ATOM     28  C   UNL     1       1.515  -4.122   1.142  0.00  0.00    +0.049 A 
ATOM     29  F   UNL     1       3.239  -4.851   4.251  0.00  0.00    -0.205 F 
ENDBRANCH  22  23
ENDBRANCH  18  22
ENDBRANCH   1  21
TORSDOF 4
