REMARK  Name = ZINC07574024
REMARK  5 active torsions:
REMARK  status: ('A' for Active; 'I' for Inactive)
REMARK    1  A    between atoms: C_4  and  N_25
REMARK    2  A    between atoms: C_5  and  N_7
REMARK    3  A    between atoms: C_8  and  C_10
REMARK    4  A    between atoms: N_15  and  C_17
REMARK    5  A    between atoms: C_17  and  C_18
REMARK                            x       y       z     vdW  Elec       q    Type
REMARK                         _______ _______ _______ _____ _____    ______ ____
ROOT
ATOM      1  C   UNL     1       1.111   3.174   0.051  0.00  0.00    +0.053 A 
ATOM      2  C   UNL     1       1.167   1.759   0.060  0.00  0.00    +0.020 A 
ATOM      3  C   UNL     1       0.004   1.053   0.087  0.00  0.00    +0.071 A 
ATOM      4  C   UNL     1      -1.224   1.741   0.100  0.00  0.00    +0.252 A 
ATOM      5  O   UNL     1      -2.269   1.112   0.119  0.00  0.00    -0.268 OA
ATOM      6  N   UNL     1      -1.254   3.086   0.096  0.00  0.00    -0.310 N 
ATOM      7  C   UNL     1      -0.116   3.805   0.069  0.00  0.00    +0.102 A 
ENDROOT
BRANCH   1   9
ATOM      8  N   UNL     1       3.549   3.344   0.004  0.00  0.00    -0.280 N 
ATOM      9  C   UNL     1       2.354   3.966   0.021  0.00  0.00    +0.250 C 
ATOM     10  O   UNL     1       2.300   5.181   0.014  0.00  0.00    -0.270 OA
ATOM     11  H   UNL     1       3.594   2.377   0.075  0.00  0.00    +0.155 HD
BRANCH   8  16
ATOM     12  C   UNL     1       5.983   6.075   0.363  0.00  0.00    +0.002 A 
ATOM     13  C   UNL     1       7.051   5.571  -0.356  0.00  0.00    +0.002 A 
ATOM     14  C   UNL     1       6.959   4.329  -0.956  0.00  0.00    +0.034 A 
ATOM     15  C   UNL     1       5.799   3.587  -0.839  0.00  0.00    +0.147 A 
ATOM     16  C   UNL     1       4.725   4.091  -0.117  0.00  0.00    +0.064 A 
ATOM     17  C   UNL     1       4.819   5.342   0.480  0.00  0.00    +0.025 A 
BRANCH  15  18
ATOM     18  N   UNL     1       5.701   2.258  -1.483  0.00  0.00    +0.058 N 
ATOM     19  O   UNL     1       6.674   1.774  -2.031  0.00  0.00    -0.126 OA
ATOM     20  O   UNL     1       4.646   1.649  -1.464  0.00  0.00    -0.126 OA
ENDBRANCH  15  18
ENDBRANCH   8  16
ENDBRANCH   1   9
BRANCH   6  21
ATOM     21  C   UNL     1      -2.544   3.778   0.116  0.00  0.00    +0.160 C 
BRANCH  21  22
ATOM     22  C   UNL     1      -3.014   4.005  -1.298  0.00  0.00    -0.028 A 
ATOM     23  C   UNL     1      -2.668   5.167  -1.963  0.00  0.00    +0.007 A 
ATOM     24  C   UNL     1      -3.094   5.373  -3.262  0.00  0.00    +0.020 A 
ATOM     25  C   UNL     1      -3.876   4.422  -3.892  0.00  0.00    +0.041 A 
ATOM     26  C   UNL     1      -4.226   3.262  -3.224  0.00  0.00    +0.020 A 
ATOM     27  C   UNL     1      -3.795   3.054  -1.928  0.00  0.00    +0.007 A 
ATOM     28 CL   UNL     1      -4.416   4.683  -5.521  0.00  0.00    -0.084 Cl
ENDBRANCH  21  22
ENDBRANCH   6  21
TORSDOF 5
