REMARK  Name = ZINC04483922
REMARK  3 active torsions:
REMARK  status: ('A' for Active; 'I' for Inactive)
REMARK    1  A    between atoms: C_4  and  C_7
REMARK    2  A    between atoms: C_7  and  N_8
REMARK    3  A    between atoms: N_15  and  C_18
REMARK                            x       y       z     vdW  Elec       q    Type
REMARK                         _______ _______ _______ _____ _____    ______ ____
ROOT
ATOM      1  N   UNL     1       4.152  -0.952   1.338  0.00  0.00    -0.219 N 
ATOM      2  C   UNL     1       3.868  -2.105   2.181  0.00  0.00    +0.216 C 
ATOM      3  C   UNL     1       3.762  -1.279   3.517  0.00  0.00    +0.246 C 
ATOM      4  C   UNL     1       3.100  -2.214   4.396  0.00  0.00    +0.255 C 
ATOM      5  O   UNL     1       3.274  -2.366   5.586  0.00  0.00    -0.272 OA
ATOM      6  N   UNL     1       2.227  -2.894   3.578  0.00  0.00    -0.205 N 
ATOM      7  C   UNL     1       2.512  -2.734   2.236  0.00  0.00    +0.251 C 
ATOM      8  O   UNL     1       1.812  -3.032   1.292  0.00  0.00    -0.273 OA
ATOM      9  N   UNL     1       4.750  -0.313   3.402  0.00  0.00    -0.156 NA
ATOM     10  N   UNL     1       4.963  -0.122   2.163  0.00  0.00    -0.082 NA
ENDROOT
BRANCH   6  11
ATOM     11  C   UNL     1       1.167  -3.679   4.053  0.00  0.00    +0.062 A 
ATOM     12  C   UNL     1      -0.083  -3.111   4.257  0.00  0.00    +0.025 A 
ATOM     13  C   UNL     1      -1.125  -3.887   4.725  0.00  0.00    +0.002 A 
ATOM     14  C   UNL     1      -0.925  -5.229   4.992  0.00  0.00    +0.002 A 
ATOM     15  C   UNL     1       0.319  -5.799   4.791  0.00  0.00    +0.022 A 
ATOM     16  C   UNL     1       1.364  -5.029   4.316  0.00  0.00    +0.063 A 
ATOM     17 CL   UNL     1       2.924  -5.747   4.057  0.00  0.00    -0.082 Cl
ENDBRANCH   6  11
BRANCH   1  18
ATOM     18  C   UNL     1       3.711  -0.707  -0.038  0.00  0.00    +0.163 C 
BRANCH  18  22
ATOM     19  C   UNL     1      -0.017   1.378   0.010  0.00  0.00    +0.000 A 
ATOM     20  C   UNL     1       1.171   2.086   0.002  0.00  0.00    +0.000 A 
ATOM     21  C   UNL     1       2.377   1.411  -0.013  0.00  0.00    +0.005 A 
ATOM     22  C   UNL     1       2.396   0.029  -0.020  0.00  0.00    -0.029 A 
ATOM     23  C   UNL     1       1.208  -0.679  -0.012  0.00  0.00    +0.005 A 
ATOM     24  C   UNL     1       0.002  -0.004   0.002  0.00  0.00    +0.000 A 
ENDBRANCH  18  22
ENDBRANCH   1  18
TORSDOF 3
