REMARK  Name = ZINC39664009
REMARK  12 active torsions:
REMARK  status: ('A' for Active; 'I' for Inactive)
REMARK    1  A    between atoms: C_1  and  C_2
REMARK    2  A    between atoms: C_2  and  C_3
REMARK    3  A    between atoms: C_3  and  C_4
REMARK    4  A    between atoms: C_4  and  C_6
REMARK    5  A    between atoms: C_4  and  C_7
REMARK    6  A    between atoms: C_11  and  C_20
REMARK    7  A    between atoms: N_22  and  C_23
REMARK    8  A    between atoms: C_23  and  C_24
REMARK    9  A    between atoms: C_24  and  C_26
REMARK   10  A    between atoms: C_24  and  N_34
REMARK   11  A    between atoms: C_29  and  O_32
REMARK   12  A    between atoms: O_32  and  C_33
REMARK                            x       y       z     vdW  Elec       q    Type
REMARK                         _______ _______ _______ _____ _____    ______ ____
ROOT
ATOM      1  C   UNL     1      -2.501  -5.885   2.697  0.00  0.00    +0.218 C 
ATOM      2  O   UNL     1      -2.302  -4.751   3.077  0.00  0.00    -0.275 OA
ATOM      3  N   UNL     1      -2.576  -6.891   3.591  0.00  0.00    -0.316 N 
ATOM      4  H   UNL     1      -2.735  -7.799   3.287  0.00  0.00    +0.149 HD
ENDROOT
BRANCH   1   9
ATOM      5  C   UNL     1      -2.841  -2.762   0.015  0.00  0.00    +0.218 C 
ATOM      6  O   UNL     1      -3.814  -2.068  -0.195  0.00  0.00    -0.275 OA
ATOM      7  N   UNL     1      -2.965  -4.103   0.052  0.00  0.00    -0.300 N 
ATOM      8  C   UNL     1      -1.924  -5.103   0.388  0.00  0.00    +0.121 C 
ATOM      9  C   UNL     1      -2.663  -6.170   1.226  0.00  0.00    +0.100 C 
ATOM     10  C   UNL     1      -4.138  -6.041   0.813  0.00  0.00    -0.004 C 
ATOM     11  C   UNL     1      -4.176  -4.912  -0.227  0.00  0.00    +0.115 C 
ATOM     12  C   UNL     1      -4.630  -7.346   0.196  0.00  0.00    -0.010 C 
ATOM     13  C   UNL     1      -6.115  -7.213  -0.154  0.00  0.00    -0.082 C 
ATOM     14  N   UNL     1      -6.880  -6.904   1.061  0.00  0.00    +0.379 N 
ATOM     15  C   UNL     1      -6.464  -5.602   1.596  0.00  0.00    -0.082 C 
ATOM     16  C   UNL     1      -4.994  -5.668   2.020  0.00  0.00    -0.010 C 
ATOM     17  H   UNL     1      -7.864  -6.877   0.839  0.00  0.00    -0.086 HD
ATOM     18  H   UNL     1      -6.713  -7.620   1.752  0.00  0.00    -0.086 HD
BRANCH   5  19
ATOM     19  C   UNL     1      -1.494  -2.123   0.234  0.00  0.00    +0.072 C 
ATOM     20  C   UNL     1      -1.673  -0.791   0.964  0.00  0.00    +0.017 C 
BRANCH  19  21
ATOM     21  C   UNL     1      -0.820  -1.877  -1.118  0.00  0.00    +0.012 C 
BRANCH  21  23
ATOM     22  C   UNL     1       1.270  -1.099  -2.243  0.00  0.00    +0.004 C 
ATOM     23  C   UNL     1       0.597  -1.345  -0.892  0.00  0.00    -0.003 C 
ENDBRANCH  21  23
ENDBRANCH  19  21
ENDBRANCH   5  19
ENDBRANCH   1   9
BRANCH   3  24
ATOM     24  C   UNL     1      -2.419  -6.615   5.021  0.00  0.00    +0.093 C 
BRANCH  24  25
ATOM     25  C   UNL     1      -2.417  -7.933   5.798  0.00  0.00    -0.020 C 
BRANCH  25  26
ATOM     26  C   UNL     1      -1.200  -8.737   5.420  0.00  0.00    -0.059 A 
ATOM     27  C   UNL     1       0.025  -8.444   5.992  0.00  0.00    +0.005 A 
ATOM     28  C   UNL     1       1.143  -9.180   5.647  0.00  0.00    +0.046 A 
ATOM     29  C   UNL     1       1.035 -10.213   4.727  0.00  0.00    +0.120 A 
ATOM     30  C   UNL     1      -0.195 -10.505   4.156  0.00  0.00    +0.046 A 
ATOM     31  C   UNL     1      -1.310  -9.770   4.508  0.00  0.00    +0.005 A 
BRANCH  29  32
ATOM     32  O   UNL     1       2.133 -10.937   4.386  0.00  0.00    -0.495 OA
ATOM     33  C   UNL     1       1.948 -11.986   3.433  0.00  0.00    +0.277 C 
ENDBRANCH  29  32
ENDBRANCH  25  26
BRANCH  25  34
ATOM     34  N   UNL     1      -2.390  -7.651   7.239  0.00  0.00    +0.385 N 
ATOM     35  C   UNL     1      -3.650  -6.983   7.654  0.00  0.00    -0.078 C 
ATOM     36  C   UNL     1      -3.718  -7.267   9.176  0.00  0.00    -0.020 C 
ATOM     37  C   UNL     1      -3.166  -8.707   9.284  0.00  0.00    -0.020 C 
ATOM     38  C   UNL     1      -2.333  -8.915   8.005  0.00  0.00    -0.078 C 
ATOM     39  H   UNL     1      -1.597  -7.071   7.466  0.00  0.00    -0.081 HD
ENDBRANCH  25  34
ENDBRANCH  24  25
ENDBRANCH   3  24
TORSDOF 9
