REMARK  Name = ZINC18199389
REMARK  3 active torsions:
REMARK  status: ('A' for Active; 'I' for Inactive)
REMARK    1  A    between atoms: C_3  and  S_6
REMARK    2  A    between atoms: S_6  and  N_9
REMARK    3  A    between atoms: N_9  and  C_10
REMARK                            x       y       z     vdW  Elec       q    Type
REMARK                         _______ _______ _______ _____ _____    ______ ____
ROOT
ATOM      1  C   UNL     1       1.243   1.877  -0.172  0.00  0.00    +0.064 A 
ATOM      2  C   UNL     1       0.003   1.259  -0.241  0.00  0.00    +0.053 A 
ATOM      3  C   UNL     1      -1.141   2.025  -0.402  0.00  0.00    +0.069 A 
ATOM      4  C   UNL     1      -1.042   3.416  -0.483  0.00  0.00    +0.068 A 
ATOM      5  C   UNL     1       0.199   4.028  -0.414  0.00  0.00    +0.045 A 
ATOM      6  C   UNL     1       1.338   3.261  -0.259  0.00  0.00    +0.042 A 
ATOM      7 BR   UNL     1       3.032   4.097  -0.165  0.00  0.00    -0.048 Br
ATOM      8  N   UNL     1      -2.341   3.903  -0.633  0.00  0.00    -0.306 N 
ATOM      9  H   UNL     1      -2.591   4.836  -0.720  0.00  0.00    +0.170 HD
ATOM     10  C   UNL     1      -3.187   2.855  -0.653  0.00  0.00    +0.325 A 
ATOM     11  O   UNL     1      -4.395   2.933  -0.773  0.00  0.00    -0.247 OA
ATOM     12  N   UNL     1      -2.494   1.710  -0.508  0.00  0.00    -0.306 N 
ATOM     13  H   UNL     1      -2.872   0.818  -0.483  0.00  0.00    +0.170 HD
ENDROOT
BRANCH   1  14
ATOM     14  N   UNL     1       2.400   1.105  -0.015  0.00  0.00    -0.215 N 
ATOM     15  H   UNL     1       3.137   1.440   0.519  0.00  0.00    +0.174 HD
BRANCH  14  16
ATOM     16  S   UNL     1       2.510  -0.379  -0.741  0.00  0.00    +0.079 S 
ATOM     17  O   UNL     1       3.833  -0.845  -0.513  0.00  0.00    -0.149 OA
ATOM     18  O   UNL     1       1.363  -1.115  -0.338  0.00  0.00    -0.149 OA
BRANCH  16  21
ATOM     19  C   UNL     1       2.975   0.288  -4.718  0.00  0.00    +0.010 A 
ATOM     20  C   UNL     1       3.330   0.117  -3.393  0.00  0.00    +0.036 A 
ATOM     21  C   UNL     1       2.359  -0.122  -2.478  0.00  0.00    +0.146 A 
ATOM     22  S   UNL     1       0.888  -0.115  -3.490  0.00  0.00    -0.077 S 
ATOM     23  C   UNL     1       1.666   0.214  -5.062  0.00  0.00    +0.047 A 
ENDBRANCH  16  21
ENDBRANCH  14  16
ENDBRANCH   1  14
TORSDOF 3
