REMARK  Name = ZINC14747953
REMARK  10 active torsions:
REMARK  status: ('A' for Active; 'I' for Inactive)
REMARK    1  A    between atoms: C_1  and  C_2
REMARK    2  A    between atoms: C_2  and  C_4
REMARK    3  A    between atoms: C_2  and  N_7
REMARK    4  A    between atoms: C_4  and  O_5
REMARK    5  A    between atoms: O_5  and  C_6
REMARK    6  A    between atoms: N_15  and  C_23
REMARK    7  A    between atoms: N_18  and  C_19
REMARK    8  A    between atoms: C_19  and  C_20
REMARK    9  A    between atoms: C_20  and  C_21
REMARK   10  A    between atoms: C_20  and  C_22
REMARK                            x       y       z     vdW  Elec       q    Type
REMARK                         _______ _______ _______ _____ _____    ______ ____
ROOT
ATOM      1  N   UNL     1       1.030  -0.495   1.394  0.00  0.00    +0.383 N 
ATOM      2  C   UNL     1       1.034  -1.949   1.197  0.00  0.00    -0.076 C 
ATOM      3  C   UNL     1       1.752  -2.623   2.370  0.00  0.00    +0.017 C 
ATOM      4  C   UNL     1       3.181  -2.096   2.456  0.00  0.00    +0.112 C 
ATOM      5  C   UNL     1       3.182  -0.574   2.563  0.00  0.00    +0.017 C 
ATOM      6  C   UNL     1       2.406   0.016   1.382  0.00  0.00    -0.076 C 
ATOM      7  C   UNL     1       3.902  -2.710   3.633  0.00  0.00    +0.247 C 
ATOM      8  O   UNL     1       3.607  -2.615   4.806  0.00  0.00    -0.273 OA
ATOM      9  N   UNL     1       4.943  -3.387   3.105  0.00  0.00    -0.220 N 
ATOM     10  C   UNL     1       4.973  -3.282   1.771  0.00  0.00    +0.312 C 
ATOM     11  O   UNL     1       5.817  -3.805   1.071  0.00  0.00    -0.252 OA
ATOM     12  N   UNL     1       3.962  -2.531   1.292  0.00  0.00    -0.271 N 
ATOM     13  H   UNL     1       0.600  -0.279   2.281  0.00  0.00    -0.081 HD
ENDROOT
BRANCH   9  14
ATOM     14  C   UNL     1       5.920  -4.142   3.894  0.00  0.00    +0.094 C 
ATOM     15  C   UNL     1       7.359  -3.705   3.548  0.00  0.00    +0.058 C 
ATOM     16  C   UNL     1       8.189  -4.968   3.640  0.00  0.00    -0.042 A 
ATOM     17  C   UNL     1       9.560  -5.135   3.746  0.00  0.00    +0.004 A 
ATOM     18  C   UNL     1      10.101  -6.403   3.817  0.00  0.00    +0.000 A 
ATOM     19  C   UNL     1       9.274  -7.510   3.783  0.00  0.00    +0.000 A 
ATOM     20  C   UNL     1       7.907  -7.345   3.678  0.00  0.00    +0.004 A 
ATOM     21  C   UNL     1       7.361  -6.074   3.606  0.00  0.00    -0.042 A 
ATOM     22  C   UNL     1       5.919  -5.631   3.489  0.00  0.00    +0.058 C 
ENDBRANCH   9  14
BRANCH   1  24
ATOM     23  C   UNL     1       0.338   1.662   0.463  0.00  0.00    -0.011 C 
ATOM     24  C   UNL     1       0.264   0.141   0.314  0.00  0.00    -0.046 C 
BRANCH  24  25
ATOM     25  C   UNL     1      -1.196  -0.308   0.390  0.00  0.00    +0.144 C 
BRANCH  25  26
ATOM     26  O   UNL     1      -1.773   0.154   1.613  0.00  0.00    -0.385 OA
ATOM     27  C   UNL     1      -3.143  -0.213   1.785  0.00  0.00    +0.193 C 
ENDBRANCH  25  26
ENDBRANCH  24  25
ENDBRANCH   1  24
BRANCH  12  28
ATOM     28  C   UNL     1       3.695  -2.213  -0.113  0.00  0.00    +0.113 C 
BRANCH  28  29
ATOM     29  C   UNL     1       3.467  -3.507  -0.896  0.00  0.00    +0.000 C 
ATOM     30  C   UNL     1       2.246  -4.236  -0.331  0.00  0.00    +0.009 C 
ATOM     31  C   UNL     1       3.227  -3.177  -2.370  0.00  0.00    +0.009 C 
ENDBRANCH  28  29
ENDBRANCH  12  28
TORSDOF 6
