REMARK  Name = ZINC48872164
REMARK  6 active torsions:
REMARK  status: ('A' for Active; 'I' for Inactive)
REMARK    1  A    between atoms: C_1  and  C_2
REMARK    2  A    between atoms: C_2  and  C_3
REMARK    3  A    between atoms: C_5  and  C_8
REMARK    4  A    between atoms: C_8  and  N_9
REMARK    5  A    between atoms: C_16  and  C_20
REMARK    6  A    between atoms: C_17  and  C_19
REMARK                            x       y       z     vdW  Elec       q    Type
REMARK                         _______ _______ _______ _____ _____    ______ ____
ROOT
ATOM      1  N   UNL     1      -4.336  -3.069  -1.905  0.00  0.00    -0.291 N 
ATOM      2  C   UNL     1      -3.591  -3.461  -2.972  0.00  0.00    +0.203 A 
ATOM      3  N   UNL     1      -3.462  -4.724  -3.278  0.00  0.00    -0.230 NA
ATOM      4  C   UNL     1      -4.056  -5.668  -2.555  0.00  0.00    +0.116 A 
ATOM      5  C   UNL     1      -4.846  -5.360  -1.433  0.00  0.00    +0.075 A 
ATOM      6  C   UNL     1      -4.963  -3.966  -1.122  0.00  0.00    +0.263 A 
ATOM      7  O   UNL     1      -5.623  -3.598  -0.166  0.00  0.00    -0.267 OA
ATOM      8  C   UNL     1      -5.422  -6.506  -0.755  0.00  0.00    -0.026 A 
ATOM      9  C   UNL     1      -5.173  -7.739  -1.224  0.00  0.00    -0.008 A 
ATOM     10  S   UNL     1      -4.127  -7.439  -2.637  0.00  0.00    -0.073 S 
ATOM     11  C   UNL     1      -5.660  -9.060  -0.686  0.00  0.00    +0.052 C 
ATOM     12  C   UNL     1      -6.290  -6.315   0.463  0.00  0.00    +0.045 C 
ENDROOT
BRANCH   1  13
ATOM     13  C   UNL     1      -4.453  -1.641  -1.598  0.00  0.00    +0.205 C 
BRANCH  13  16
ATOM     14  C   UNL     1      -1.412  -0.526   0.013  0.00  0.00    +0.227 A 
ATOM     15  N   UNL     1      -2.137  -0.789  -1.039  0.00  0.00    -0.194 NA
ATOM     16  C   UNL     1      -3.342  -1.235  -0.665  0.00  0.00    +0.191 A 
ATOM     17  N   UNL     1      -3.398  -1.261   0.635  0.00  0.00    -0.059 NA
ATOM     18  O   UNL     1      -2.137  -0.803   1.103  0.00  0.00    -0.338 OA
BRANCH  14  20
ATOM     19  C   UNL     1      -0.019   1.526   0.010  0.00  0.00    +0.014 C 
ATOM     20  C   UNL     1       0.002  -0.004   0.002  0.00  0.00    +0.095 C 
ENDBRANCH  14  20
ENDBRANCH  13  16
ENDBRANCH   1  13
TORSDOF 3
