REMARK  Name = ZINC50001946
REMARK  7 active torsions:
REMARK  status: ('A' for Active; 'I' for Inactive)
REMARK    1  A    between atoms: C_1  and  C_2
REMARK    2  A    between atoms: C_5  and  N_8
REMARK    3  A    between atoms: N_8  and  C_9
REMARK    4  A    between atoms: N_8  and  S_10
REMARK    5  A    between atoms: S_10  and  C_13
REMARK    6  A    between atoms: C_15  and  N_20
REMARK    7  A    between atoms: C_18  and  C_19
REMARK                            x       y       z     vdW  Elec       q    Type
REMARK                         _______ _______ _______ _____ _____    ______ ____
ROOT
ATOM      1  S   UNL     1      -0.414  -5.009   1.321  0.00  0.00    +0.075 S 
ATOM      2  O   UNL     1       0.285  -6.239   1.454  0.00  0.00    -0.150 OA
ATOM      3  O   UNL     1      -0.360  -3.991   2.310  0.00  0.00    -0.150 OA
ENDROOT
BRANCH   1   4
ATOM      4  C   UNL     1      -2.115  -5.418   1.111  0.00  0.00    +0.113 A 
ATOM      5  C   UNL     1      -2.511  -6.741   1.104  0.00  0.00    +0.051 A 
ATOM      6  C   UNL     1      -3.852  -7.063   0.939  0.00  0.00    +0.026 A 
ATOM      7  C   UNL     1      -4.791  -6.051   0.781  0.00  0.00    +0.023 A 
ATOM      8  C   UNL     1      -4.389  -4.730   0.788  0.00  0.00    +0.007 A 
ATOM      9  C   UNL     1      -3.053  -4.414   0.958  0.00  0.00    -0.024 A 
ATOM     10  C   UNL     1      -2.618  -2.971   0.972  0.00  0.00    +0.046 C 
BRANCH   6  11
ATOM     11  N   UNL     1      -4.255  -8.400   0.931  0.00  0.00    -0.358 N 
ATOM     12  H   UNL     1      -3.599  -9.105   1.042  0.00  0.00    +0.142 HD
ATOM     13  H   UNL     1      -5.192  -8.623   0.816  0.00  0.00    +0.142 HD
ENDBRANCH   6  11
ENDBRANCH   1   4
BRANCH   1  14
ATOM     14  N   UNL     1       0.103  -4.322  -0.094  0.00  0.00    -0.206 N 
ATOM     15  C   UNL     1       0.495  -5.172  -1.221  0.00  0.00    +0.157 C 
BRANCH  14  20
ATOM     16  C   UNL     1       0.350   1.323  -0.580  0.00  0.00    +0.044 C 
ATOM     17  C   UNL     1       0.284  -0.177  -0.451  0.00  0.00    -0.050 A 
ATOM     18  C   UNL     1      -0.426  -0.919  -1.377  0.00  0.00    +0.005 A 
ATOM     19  C   UNL     1      -0.488  -2.294  -1.262  0.00  0.00    +0.025 A 
ATOM     20  C   UNL     1       0.164  -2.932  -0.214  0.00  0.00    +0.051 A 
ATOM     21  C   UNL     1       0.877  -2.184   0.714  0.00  0.00    +0.025 A 
ATOM     22  C   UNL     1       0.940  -0.810   0.590  0.00  0.00    +0.005 A 
ENDBRANCH  14  20
ENDBRANCH   1  14
TORSDOF 4
