REMARK  Name = ZINC01395259
REMARK  3 active torsions:
REMARK  status: ('A' for Active; 'I' for Inactive)
REMARK    1  A    between atoms: C_1  and  C_2
REMARK    2  A    between atoms: C_5  and  C_8
REMARK    3  A    between atoms: C_8  and  N_9
REMARK                            x       y       z     vdW  Elec       q    Type
REMARK                         _______ _______ _______ _____ _____    ______ ____
ROOT
ATOM      1  N   UNL     1      -3.174   4.454   0.676  0.00  0.00    -0.263 N 
ATOM      2  C   UNL     1      -3.421   4.180  -0.680  0.00  0.00    +0.075 A 
ATOM      3  C   UNL     1      -4.502   4.736  -1.339  0.00  0.00    +0.028 A 
ATOM      4  C   UNL     1      -4.674   4.473  -2.662  0.00  0.00    +0.019 A 
ATOM      5  C   UNL     1      -3.793   3.622  -3.299  0.00  0.00    +0.084 A 
ATOM      6  C   UNL     1      -2.551   3.338  -1.378  0.00  0.00    +0.121 A 
ATOM      7  N   UNL     1      -1.506   2.793  -0.675  0.00  0.00    -0.304 N 
ATOM      8  C   UNL     1      -0.808   1.622  -1.214  0.00  0.00    +0.107 C 
ATOM      9  C   UNL     1      -0.013   1.086   0.008  0.00  0.00    +0.021 C 
ATOM     10  C   UNL     1      -0.783   1.608   1.249  0.00  0.00    +0.033 C 
ATOM     11  C   UNL     1      -1.997   2.329   0.652  0.00  0.00    +0.161 C 
ATOM     12  C   UNL     1      -2.469   3.537   1.403  0.00  0.00    +0.241 C 
ATOM     13  O   UNL     1      -2.241   3.691   2.585  0.00  0.00    -0.273 OA
ATOM     14  N   UNL     1      -2.723   3.038  -2.692  0.00  0.00    -0.348 N 
ATOM     15  H   UNL     1      -2.086   2.409  -3.196  0.00  0.00    +0.167 HD
ENDROOT
BRANCH   1  16
ATOM     16  C   UNL     1      -3.659   5.691   1.293  0.00  0.00    +0.149 C 
BRANCH  16  21
ATOM     17  C   UNL     1       0.353   9.815   0.751  0.00  0.00    +0.044 C 
ATOM     18  C   UNL     1      -0.693   8.740   0.893  0.00  0.00    -0.050 A 
ATOM     19  C   UNL     1      -1.655   8.579  -0.086  0.00  0.00    +0.003 A 
ATOM     20  C   UNL     1      -2.615   7.592   0.043  0.00  0.00    +0.005 A 
ATOM     21  C   UNL     1      -2.612   6.767   1.152  0.00  0.00    -0.030 A 
ATOM     22  C   UNL     1      -1.654   6.932   2.134  0.00  0.00    +0.005 A 
ATOM     23  C   UNL     1      -0.691   7.915   2.002  0.00  0.00    +0.003 A 
ENDBRANCH  16  21
ENDBRANCH   1  16
TORSDOF 2
