REMARK  Name = ZINC43323653
REMARK  4 active torsions:
REMARK  status: ('A' for Active; 'I' for Inactive)
REMARK    1  A    between atoms: C_1  and  C_2
REMARK    2  A    between atoms: C_2  and  C_3
REMARK    3  A    between atoms: N_12  and  C_13
REMARK    4  A    between atoms: C_16  and  C_20
REMARK                            x       y       z     vdW  Elec       q    Type
REMARK                         _______ _______ _______ _____ _____    ______ ____
ROOT
ATOM      1  C   UNL     1      -1.256  -0.393   0.650  0.00  0.00    +0.006 C 
ATOM      2  C   UNL     1      -1.237  -1.860   0.217  0.00  0.00    +0.006 C 
ATOM      3  C   UNL     1      -2.662  -2.316  -0.108  0.00  0.00    +0.019 C 
ATOM      4  C   UNL     1      -3.531  -2.195   1.147  0.00  0.00    +0.109 C 
ATOM      5  N   UNL     1      -3.439  -0.819   1.654  0.00  0.00    -0.285 N 
ATOM      6  C   UNL     1      -2.111  -0.248   1.914  0.00  0.00    +0.112 C 
ATOM      7  C   UNL     1      -4.553  -0.093   1.877  0.00  0.00    +0.307 C 
ATOM      8  O   UNL     1      -4.468   1.016   2.369  0.00  0.00    -0.252 OA
ATOM      9  N   UNL     1      -5.761  -0.596   1.554  0.00  0.00    -0.267 N 
ATOM     10  H   UNL     1      -5.836  -1.507   1.229  0.00  0.00    +0.156 HD
ENDROOT
BRANCH   9  11
ATOM     11  C   UNL     1      -6.909   0.196   1.690  0.00  0.00    +0.070 A 
ATOM     12  C   UNL     1      -6.795   1.576   1.773  0.00  0.00    +0.026 A 
ATOM     13  C   UNL     1      -7.929   2.355   1.906  0.00  0.00    +0.005 A 
ATOM     14  C   UNL     1      -9.176   1.761   1.957  0.00  0.00    -0.048 A 
ATOM     15  C   UNL     1      -9.294   0.386   1.875  0.00  0.00    +0.043 A 
ATOM     16  C   UNL     1      -8.164  -0.400   1.736  0.00  0.00    +0.145 A 
ATOM     17  F   UNL     1      -8.280  -1.743   1.650  0.00  0.00    -0.204 F 
ATOM     18  C   UNL     1     -10.410   2.614   2.103  0.00  0.00    +0.044 C 
ENDBRANCH   9  11
BRANCH   1  20
ATOM     19  C   UNL     1       0.166   1.570   1.257  0.00  0.00    +0.004 C 
ATOM     20  C   UNL     1       0.172   0.072   0.943  0.00  0.00    +0.002 C 
ENDBRANCH   1  20
TORSDOF 2
