REMARK  Name = ZINC05390605
REMARK  9 active torsions:
REMARK  status: ('A' for Active; 'I' for Inactive)
REMARK    1  A    between atoms: C_1  and  C_2
REMARK    2  A    between atoms: C_2  and  N_47
REMARK    3  A    between atoms: C_3  and  C_4
REMARK    4  A    between atoms: C_3  and  N_47
REMARK    5  A    between atoms: C_5  and  C_6
REMARK    6  A    between atoms: C_5  and  N_47
REMARK    7  A    between atoms: C_7  and  O_26
REMARK    8  A    between atoms: C_14  and  C_15
REMARK    9  A    between atoms: C_18  and  N_21
REMARK                            x       y       z     vdW  Elec       q    Type
REMARK                         _______ _______ _______ _____ _____    ______ ____
ROOT
ATOM      1  C   UNL     1       2.059   3.503  -0.324  0.00  0.00    +0.020 A 
ATOM      2  C   UNL     1       1.276   4.643  -0.221  0.00  0.00    +0.122 A 
ATOM      3  C   UNL     1      -0.112   4.557  -0.289  0.00  0.00    +0.046 A 
ATOM      4  C   UNL     1      -0.717   3.343  -0.451  0.00  0.00    +0.019 A 
ATOM      5  C   UNL     1       0.059   2.188  -0.562  0.00  0.00    +0.068 A 
ATOM      6  C   UNL     1       1.460   2.262  -0.496  0.00  0.00    +0.144 A 
ATOM      7  O   UNL     1       1.988   1.025  -0.621  0.00  0.00    -0.451 OA
ATOM      8  C   UNL     1       1.030   0.081  -0.772  0.00  0.00    +0.176 C 
ATOM      9  C   UNL     1       1.234  -1.251  -0.922  0.00  0.00    +0.058 C 
ATOM     10  C   UNL     1      -0.274   0.764  -0.744  0.00  0.00    +0.231 C 
ATOM     11  O   UNL     1      -1.380   0.263  -0.848  0.00  0.00    -0.283 OA
ENDROOT
BRANCH   9  12
ATOM     12  C   UNL     1       2.602  -1.776  -1.040  0.00  0.00    -0.021 A 
ATOM     13  C   UNL     1       2.814  -3.133  -1.310  0.00  0.00    +0.010 A 
ATOM     14  C   UNL     1       4.100  -3.616  -1.424  0.00  0.00    +0.033 A 
ATOM     15  C   UNL     1       5.180  -2.766  -1.261  0.00  0.00    +0.126 A 
ATOM     16  C   UNL     1       4.979  -1.424  -0.988  0.00  0.00    +0.033 A 
ATOM     17  C   UNL     1       3.699  -0.923  -0.876  0.00  0.00    +0.010 A 
BRANCH  15  18
ATOM     18  N   UNL     1       6.557  -3.295  -1.379  0.00  0.00    +0.056 N 
ATOM     19  O   UNL     1       7.510  -2.550  -1.236  0.00  0.00    -0.126 OA
ATOM     20  O   UNL     1       6.738  -4.475  -1.619  0.00  0.00    -0.126 OA
ENDBRANCH  15  18
ENDBRANCH   9  12
BRANCH   2  21
ATOM     21  O   UNL     1       1.868   5.853  -0.054  0.00  0.00    -0.506 OA
ATOM     22  H   UNL     1       2.002   6.342  -0.877  0.00  0.00    +0.292 HD
ENDBRANCH   2  21
BRANCH   1  23
ATOM     23  C   UNL     1       3.560   3.611  -0.250  0.00  0.00    -0.036 C 
BRANCH  23  24
ATOM     24  N   UNL     1       4.107   3.604  -1.623  0.00  0.00    +0.382 N 
ATOM     25  H   UNL     1       3.719   2.801  -2.132  0.00  0.00    -0.081 HD
BRANCH  24  27
ATOM     26  C   UNL     1       4.037   4.687  -3.815  0.00  0.00    -0.017 C 
ATOM     27  C   UNL     1       3.725   4.848  -2.325  0.00  0.00    -0.082 C 
ENDBRANCH  24  27
BRANCH  24  28
ATOM     28  C   UNL     1       5.579   3.480  -1.580  0.00  0.00    -0.082 C 
ATOM     29  C   UNL     1       5.940   2.022  -1.289  0.00  0.00    -0.017 C 
ENDBRANCH  24  28
ENDBRANCH  23  24
ENDBRANCH   1  23
TORSDOF 7
