REMARK  Name = ZINC45950034
REMARK  1 active torsions:
REMARK  status: ('A' for Active; 'I' for Inactive)
REMARK    1  A    between atoms: N_10  and  C_13
REMARK                            x       y       z     vdW  Elec       q    Type
REMARK                         _______ _______ _______ _____ _____    ______ ____
ROOT
ATOM      1  C   UNL     1      -0.017   1.387   0.010  0.00  0.00    +0.034 A 
ATOM      2  C   UNL     1       1.148   2.072   0.002  0.00  0.00    +0.048 A 
ATOM      3  S   UNL     1       2.334   0.881  -0.015  0.00  0.00    -0.090 S 
ATOM      4  C   UNL     1       1.289  -0.549  -0.013  0.00  0.00    +0.100 A 
ATOM      5  C   UNL     1       0.002  -0.004   0.002  0.00  0.00    +0.063 A 
ATOM      6  N   UNL     1      -1.060  -0.921   0.007  0.00  0.00    -0.307 N 
ATOM      7  H   UNL     1      -1.974  -0.597   0.017  0.00  0.00    +0.170 HD
ATOM      8  C   UNL     1      -0.823  -2.241  -0.003  0.00  0.00    +0.330 A 
ATOM      9  O   UNL     1      -1.770  -3.005   0.001  0.00  0.00    -0.246 OA
ATOM     10  N   UNL     1       0.419  -2.754  -0.018  0.00  0.00    -0.257 N 
ATOM     11  C   UNL     1       1.494  -1.932  -0.023  0.00  0.00    +0.271 A 
ATOM     12  O   UNL     1       2.622  -2.390  -0.036  0.00  0.00    -0.266 OA
ENDROOT
BRANCH  10  13
ATOM     13  C   UNL     1       0.611  -4.206  -0.029  0.00  0.00    +0.095 C 
ATOM     14  C   UNL     1       0.004  -4.780  -1.326  0.00  0.00    +0.025 C 
ATOM     15  C   UNL     1       0.624  -6.126  -1.589  0.00  0.00    +0.002 C 
ATOM     16  C   UNL     1      -0.219  -7.284  -1.022  0.00  0.00    +0.000 C 
ATOM     17  C   UNL     1      -0.787  -6.979   0.378  0.00  0.00    +0.000 C 
ATOM     18  C   UNL     1       0.213  -6.295   1.269  0.00  0.00    +0.002 C 
ATOM     19  C   UNL     1       0.001  -4.771   1.165  0.00  0.00    +0.025 C 
ENDBRANCH  10  13
TORSDOF 1
