REMARK  Name = ZINC27138736
REMARK  13 active torsions:
REMARK  status: ('A' for Active; 'I' for Inactive)
REMARK    1  A    between atoms: C_1  and  C_2
REMARK    2  A    between atoms: C_3  and  C_14
REMARK    3  A    between atoms: C_4  and  C_13
REMARK    4  A    between atoms: C_8  and  C_11
REMARK    5  A    between atoms: C_14  and  C_15
REMARK    6  A    between atoms: C_15  and  C_16
REMARK    7  A    between atoms: N_18  and  C_19
REMARK    8  A    between atoms: C_22  and  C_28
REMARK    9  A    between atoms: C_24  and  C_25
REMARK   10  A    between atoms: C_25  and  C_26
REMARK   11  A    between atoms: C_25  and  C_27
REMARK   12  A    between atoms: C_28  and  C_29
REMARK   13  A    between atoms: C_28  and  C_30
REMARK                            x       y       z     vdW  Elec       q    Type
REMARK                         _______ _______ _______ _____ _____    ______ ____
ROOT
ATOM      1  C   UNL     1      -2.135  -1.227   4.180  0.00  0.00    +0.218 C 
ATOM      2  O   UNL     1      -3.215  -1.760   4.037  0.00  0.00    -0.275 OA
ATOM      3  N   UNL     1      -1.726  -0.288   3.303  0.00  0.00    -0.285 N 
ATOM      4  H   UNL     1      -0.711   0.130   3.378  0.00  0.00    +0.155 HD
ENDROOT
BRANCH   3   5
ATOM      5  C   UNL     1      -2.593   0.156   2.298  0.00  0.00    +0.037 A 
ATOM      6  C   UNL     1      -3.957   0.244   2.544  0.00  0.00    +0.024 A 
ATOM      7  C   UNL     1      -4.809   0.682   1.550  0.00  0.00    +0.006 A 
ATOM      8  C   UNL     1      -4.306   1.032   0.310  0.00  0.00    -0.044 A 
ATOM      9  C   UNL     1      -2.948   0.950   0.064  0.00  0.00    +0.009 A 
ATOM     10  C   UNL     1      -2.091   0.507   1.052  0.00  0.00    -0.023 A 
BRANCH  10  11
ATOM     11  C   UNL     1      -0.611   0.412   0.781  0.00  0.00    +0.015 C 
ATOM     12  C   UNL     1      -0.357  -0.648  -0.292  0.00  0.00    +0.012 C 
ATOM     13  C   UNL     1      -0.095   1.767   0.291  0.00  0.00    +0.012 C 
ENDBRANCH  10  11
BRANCH   8  14
ATOM     14  C   UNL     1      -5.239   1.509  -0.773  0.00  0.00    +0.013 C 
ATOM     15  C   UNL     1      -6.262   0.414  -1.084  0.00  0.00    +0.012 C 
ATOM     16  C   UNL     1      -5.968   2.768  -0.300  0.00  0.00    +0.012 C 
ENDBRANCH   8  14
ENDBRANCH   3   5
BRANCH   1  17
ATOM     17  C   UNL     1      -1.250  -1.614   5.337  0.00  0.00    +0.101 C 
BRANCH  17  18
ATOM     18  C   UNL     1      -1.945  -2.691   6.172  0.00  0.00    +0.048 C 
BRANCH  18  21
ATOM     19  C   UNL     1      -2.153  -1.281   8.712  0.00  0.00    +0.066 C 
ATOM     20  C   UNL     1      -1.159  -2.402   8.551  0.00  0.00    +0.046 A 
ATOM     21  C   UNL     1      -1.061  -3.078   7.329  0.00  0.00    -0.005 A 
ATOM     22  C   UNL     1      -0.165  -4.090   7.197  0.00  0.00    +0.047 A 
ATOM     23  N   UNL     1       0.627  -4.417   8.258  0.00  0.00    -0.217 N 
ATOM     24  C   UNL     1       0.501  -3.732   9.435  0.00  0.00    +0.173 A 
ATOM     25  N   UNL     1      -0.385  -2.743   9.557  0.00  0.00    -0.232 NA
ATOM     26  C   UNL     1       1.433  -4.291  10.330  0.00  0.00    +0.115 A 
ATOM     27  C   UNL     1       2.101  -5.317   9.639  0.00  0.00    +0.156 A 
ATOM     28  N   UNL     1       1.623  -5.385   8.424  0.00  0.00    -0.172 NA
ATOM     29  C   UNL     1      -0.044  -4.838   5.895  0.00  0.00    +0.066 C 
BRANCH  26  30
ATOM     30  C   UNL     1       1.657  -3.890  11.686  0.00  0.00    +0.104 C 
ATOM     31  N   UNL     1       1.835  -3.572  12.762  0.00  0.00    -0.191 NA
ENDBRANCH  26  30
ENDBRANCH  18  21
ENDBRANCH  17  18
ENDBRANCH   1  17
TORSDOF 7
