REMARK  Name = ZINC66925601
REMARK  11 active torsions:
REMARK  status: ('A' for Active; 'I' for Inactive)
REMARK    1  A    between atoms: C_1  and  C_2
REMARK    2  A    between atoms: C_2  and  S_3
REMARK    3  A    between atoms: S_3  and  N_6
REMARK    4  A    between atoms: N_6  and  C_7
REMARK    5  A    between atoms: N_6  and  C_8
REMARK    6  A    between atoms: N_16  and  C_17
REMARK    7  A    between atoms: C_17  and  C_19
REMARK    8  A    between atoms: C_17  and  C_20
REMARK    9  A    between atoms: C_21  and  C_27
REMARK   10  A    between atoms: N_23  and  C_26
REMARK   11  A    between atoms: C_24  and  C_25
REMARK                            x       y       z     vdW  Elec       q    Type
REMARK                         _______ _______ _______ _____ _____    ______ ____
ROOT
ATOM      1  C   UNL     1       1.896  -2.961  -0.718  0.00  0.00    +0.082 C 
ATOM      2  C   UNL     1       2.563  -3.921  -1.705  0.00  0.00    +0.039 C 
ATOM      3  C   UNL     1       3.718  -4.645  -1.006  0.00  0.00    +0.111 C 
ATOM      4  N   UNL     1       3.204  -5.291   0.210  0.00  0.00    -0.286 N 
ATOM      5  C   UNL     1       2.466  -4.476   1.185  0.00  0.00    +0.111 C 
ATOM      6  C   UNL     1       1.326  -3.754   0.461  0.00  0.00    +0.039 C 
ATOM      7  C   UNL     1       3.405  -6.606   0.427  0.00  0.00    +0.303 C 
ATOM      8  O   UNL     1       3.932  -7.289  -0.430  0.00  0.00    -0.253 OA
ATOM      9  N   UNL     1       3.021  -7.163   1.592  0.00  0.00    -0.293 N 
ATOM     10  H   UNL     1       2.536  -6.636   2.246  0.00  0.00    +0.151 HD
ENDROOT
BRANCH   1  11
ATOM     11  N   UNL     1       0.812  -2.242  -1.393  0.00  0.00    -0.181 NA
ATOM     12  C   UNL     1      -0.308  -2.985  -1.974  0.00  0.00    +0.131 C 
BRANCH  11  13
ATOM     13  S   UNL     1       0.854  -0.590  -1.498  0.00  0.00    +0.032 S 
ATOM     14  O   UNL     1       0.089  -0.281  -2.654  0.00  0.00    -0.158 OA
ATOM     15  O   UNL     1       2.234  -0.257  -1.431  0.00  0.00    -0.158 OA
BRANCH  13  17
ATOM     16  C   UNL     1      -0.024   1.523   0.001  0.00  0.00    +0.029 C 
ATOM     17  C   UNL     1      -0.002  -0.007  -0.008  0.00  0.00    +0.182 C 
ENDBRANCH  13  17
ENDBRANCH  11  13
ENDBRANCH   1  11
BRANCH   9  18
ATOM     18  C   UNL     1       3.337  -8.566   1.872  0.00  0.00    +0.105 C 
ATOM     19  C   UNL     1       4.747  -8.664   2.458  0.00  0.00    +0.033 C 
BRANCH  18  20
ATOM     20  C   UNL     1       2.343  -9.117   2.862  0.00  0.00    +0.016 A 
ATOM     21  C   UNL     1       1.899  -8.479   4.025  0.00  0.00    +0.065 A 
ATOM     22  N   UNL     1       1.042  -9.267   4.621  0.00  0.00    -0.176 NA
ATOM     23  N   UNL     1       0.912 -10.433   3.855  0.00  0.00    -0.271 N 
ATOM     24  C   UNL     1       1.717 -10.314   2.778  0.00  0.00    +0.041 A 
ATOM     25  C   UNL     1       1.889 -11.332   1.681  0.00  0.00    +0.065 C 
ATOM     26  C   UNL     1       0.051 -11.577   4.165  0.00  0.00    +0.172 C 
ATOM     27  C   UNL     1       2.334  -7.120   4.508  0.00  0.00    +0.068 C 
ENDBRANCH  18  20
ENDBRANCH   9  18
TORSDOF 5
