REMARK  Name = ZINC06997792
REMARK  4 active torsions:
REMARK  status: ('A' for Active; 'I' for Inactive)
REMARK    1  A    between atoms: C_4  and  C_7
REMARK    2  A    between atoms: C_7  and  C_8
REMARK    3  A    between atoms: C_13  and  N_14
REMARK    4  A    between atoms: C_13  and  N_58
REMARK                            x       y       z     vdW  Elec       q    Type
REMARK                         _______ _______ _______ _____ _____    ______ ____
ROOT
ATOM      1  C   UNL     1      -1.356  -0.548  -0.128  0.00  0.00    +0.043 C 
ENDROOT
BRANCH   1   2
ATOM      2  N   UNL     1      -1.291  -1.888  -0.717  0.00  0.00    -0.241 N 
ATOM      3  C   UNL     1      -1.177  -3.024  -0.002  0.00  0.00    +0.245 C 
ATOM      4  O   UNL     1      -1.108  -3.125   1.204  0.00  0.00    -0.273 OA
ATOM      5  C   UNL     1      -1.152  -4.152  -1.019  0.00  0.00    +0.112 C 
ATOM      6  C   UNL     1      -2.436  -4.991  -0.829  0.00  0.00    +0.035 C 
ATOM      7  C   UNL     1      -2.741  -5.706  -2.116  0.00  0.00    +0.003 C 
ATOM      8  C   UNL     1      -2.159  -7.132  -2.156  0.00  0.00    +0.000 C 
ATOM      9  C   UNL     1      -0.733  -7.212  -1.580  0.00  0.00    +0.000 C 
ATOM     10  C   UNL     1       0.124  -6.053  -2.013  0.00  0.00    +0.003 C 
ATOM     11  C   UNL     1       0.055  -4.963  -0.925  0.00  0.00    +0.035 C 
ATOM     12  N   UNL     1      -1.262  -3.446  -2.311  0.00  0.00    -0.285 N 
ATOM     13  C   UNL     1      -1.344  -2.134  -2.030  0.00  0.00    +0.308 C 
ATOM     14  O   UNL     1      -1.452  -1.268  -2.876  0.00  0.00    -0.252 OA
ATOM     15  H   UNL     1      -1.275  -3.850  -3.193  0.00  0.00    +0.151 HD
ENDBRANCH   1   2
BRANCH   1  21
ATOM     16  C   UNL     1       2.160   1.470   1.231  0.00  0.00    -0.010 C 
ATOM     17  C   UNL     1       1.417   1.995  -0.001  0.00  0.00    -0.015 C 
ATOM     18  C   UNL     1      -0.018   1.464   0.010  0.00  0.00    -0.076 C 
ATOM     19  C   UNL     1       0.669  -0.533   1.199  0.00  0.00    -0.076 C 
ATOM     20  C   UNL     1       2.125  -0.061   1.224  0.00  0.00    -0.015 C 
ATOM     21  N   UNL     1       0.017  -0.013  -0.022  0.00  0.00    +0.390 N 
ATOM     22  H   UNL     1       0.556  -0.316  -0.842  0.00  0.00    -0.079 HD
BRANCH  16  23
ATOM     23  C   UNL     1       3.613   1.947   1.195  0.00  0.00    +0.038 C 
BRANCH  23  27
ATOM     24  C   UNL     1       3.724   6.201   1.566  0.00  0.00    +0.000 A 
ATOM     25  C   UNL     1       3.768   5.408   2.697  0.00  0.00    +0.000 A 
ATOM     26  C   UNL     1       3.733   4.031   2.577  0.00  0.00    +0.003 A 
ATOM     27  C   UNL     1       3.652   3.448   1.326  0.00  0.00    -0.047 A 
ATOM     28  C   UNL     1       3.612   4.242   0.195  0.00  0.00    +0.003 A 
ATOM     29  C   UNL     1       3.643   5.619   0.315  0.00  0.00    +0.000 A 
ENDBRANCH  23  27
ENDBRANCH  16  23
ENDBRANCH   1  21
TORSDOF 4
