REMARK  Name = ZINC35515154
REMARK  5 active torsions:
REMARK  status: ('A' for Active; 'I' for Inactive)
REMARK    1  A    between atoms: C_1  and  C_2
REMARK    2  A    between atoms: C_2  and  O_3
REMARK    3  A    between atoms: O_3  and  C_4
REMARK    4  A    between atoms: C_7  and  C_10
REMARK    5  A    between atoms: C_29  and  C_32
REMARK                            x       y       z     vdW  Elec       q    Type
REMARK                         _______ _______ _______ _____ _____    ______ ____
ROOT
ATOM      1  C   UNL     1       1.109  -6.040  -1.847  0.00  0.00    +0.151 C 
ATOM      2  C   UNL     1       0.086  -6.523  -2.822  0.00  0.00    +0.072 A 
ATOM      3  C   UNL     1      -1.379  -6.479  -2.788  0.00  0.00    +0.199 A 
ATOM      4  O   UNL     1      -2.008  -5.843  -1.960  0.00  0.00    -0.287 OA
ATOM      5  C   UNL     1      -2.023  -7.282  -3.857  0.00  0.00    +0.067 A 
ATOM      6  C   UNL     1      -3.400  -7.503  -3.840  0.00  0.00    +0.053 A 
ATOM      7  C   UNL     1      -3.982  -8.256  -4.838  0.00  0.00    +0.124 A 
ATOM      8  C   UNL     1      -3.196  -8.790  -5.854  0.00  0.00    +0.042 A 
ATOM      9  C   UNL     1      -1.837  -8.576  -5.880  0.00  0.00    +0.050 A 
ATOM     10  C   UNL     1      -1.226  -7.816  -4.883  0.00  0.00    +0.140 A 
ATOM     11  O   UNL     1       0.110  -7.613  -4.939  0.00  0.00    -0.450 OA
ATOM     12  C   UNL     1       0.749  -7.084  -3.877  0.00  0.00    +0.199 A 
ATOM     13  C   UNL     1       2.196  -6.989  -3.618  0.00  0.00    +0.288 C 
ATOM     14  O   UNL     1       3.065  -7.399  -4.361  0.00  0.00    -0.266 OA
ATOM     15  N   UNL     1       2.416  -6.379  -2.433  0.00  0.00    -0.238 N 
ATOM     16  C   UNL     1       3.660  -6.117  -1.865  0.00  0.00    +0.129 A 
ATOM     17  C   UNL     1       3.733  -5.578  -0.585  0.00  0.00    +0.044 A 
ATOM     18  C   UNL     1       4.976  -5.323  -0.032  0.00  0.00    +0.008 A 
ATOM     19  C   UNL     1       6.107  -5.617  -0.782  0.00  0.00    -0.032 A 
ATOM     20  C   UNL     1       5.960  -6.150  -2.047  0.00  0.00    +0.116 A 
ATOM     21  N   UNL     1       4.763  -6.388  -2.546  0.00  0.00    -0.240 NA
ATOM     22  C   UNL     1       7.481  -5.355  -0.221  0.00  0.00    +0.045 C 
ATOM     23  F   UNL     1      -5.315  -8.475  -4.830  0.00  0.00    -0.205 F 
ENDROOT
BRANCH   1  27
ATOM     24  C   UNL     1       0.777  -1.810  -1.336  0.00  0.00    +0.121 A 
ATOM     25  C   UNL     1       0.243  -2.669  -0.386  0.00  0.00    +0.046 A 
ATOM     26  C   UNL     1       0.351  -4.036  -0.554  0.00  0.00    +0.009 A 
ATOM     27  C   UNL     1       0.992  -4.548  -1.667  0.00  0.00    -0.022 A 
ATOM     28  C   UNL     1       1.525  -3.694  -2.615  0.00  0.00    +0.009 A 
ATOM     29  C   UNL     1       1.414  -2.327  -2.455  0.00  0.00    +0.046 A 
BRANCH  24  30
ATOM     30  O   UNL     1       0.671  -0.465  -1.174  0.00  0.00    -0.492 OA
BRANCH  30  32
ATOM     31  C   UNL     1      -0.019   1.526   0.010  0.00  0.00    +0.048 C 
ATOM     32  C   UNL     1       0.002  -0.004   0.002  0.00  0.00    +0.225 C 
ENDBRANCH  30  32
ENDBRANCH  24  30
ENDBRANCH   1  27
TORSDOF 3
