REMARK  Name = ZINC05450742
REMARK  5 active torsions:
REMARK  status: ('A' for Active; 'I' for Inactive)
REMARK    1  A    between atoms: C_1  and  C_2
REMARK    2  A    between atoms: C_12  and  C_13
REMARK    3  A    between atoms: C_12  and  N_51
REMARK    4  A    between atoms: N_15  and  C_16
REMARK    5  A    between atoms: C_21  and  C_22
REMARK                            x       y       z     vdW  Elec       q    Type
REMARK                         _______ _______ _______ _____ _____    ______ ____
ROOT
ATOM      1  C   UNL     1      -0.304  -2.147   3.585  0.00  0.00    -0.008 C 
ATOM      2  C   UNL     1      -0.859  -2.830   2.333  0.00  0.00    -0.040 C 
ATOM      3  C   UNL     1      -0.376  -2.094   1.111  0.00  0.00    -0.054 A 
ATOM      4  C   UNL     1      -0.385  -0.705   1.133  0.00  0.00    +0.051 A 
ATOM      5  C   UNL     1       0.041   0.010   0.030  0.00  0.00    +0.162 A 
ATOM      6  C   UNL     1       0.482  -0.662  -1.102  0.00  0.00    +0.162 A 
ATOM      7  C   UNL     1       0.495  -2.044  -1.122  0.00  0.00    +0.053 A 
ATOM      8  C   UNL     1       0.064  -2.760  -0.013  0.00  0.00    -0.044 A 
ATOM      9  C   UNL     1       0.097  -4.266  -0.078  0.00  0.00    +0.017 C 
ATOM     10  C   UNL     1      -0.782  -4.854   1.026  0.00  0.00    -0.073 C 
ATOM     11  O   UNL     1       0.899   0.050  -2.189  0.00  0.00    -0.488 OA
ATOM     12  C   UNL     1       2.113   0.786  -2.026  0.00  0.00    +0.232 C 
ATOM     13  C   UNL     1       1.841   2.138  -1.384  0.00  0.00    +0.082 C 
ATOM     14  C   UNL     1       1.312   2.009   0.035  0.00  0.00    +0.232 C 
ATOM     15  O   UNL     1       0.031   1.374   0.043  0.00  0.00    -0.488 OA
ATOM     16  N   UNL     1      -0.385  -4.224   2.303  0.00  0.00    +0.390 N 
ATOM     17  H   UNL     1       0.639  -4.232   2.377  0.00  0.00    -0.080 HD
ENDROOT
BRANCH  16  18
ATOM     18  C   UNL     1      -0.956  -4.979   3.440  0.00  0.00    +0.020 C 
BRANCH  18  19
ATOM     19  C   UNL     1      -0.303  -6.335   3.505  0.00  0.00    +0.201 C 
ATOM     20  O   UNL     1       0.535  -6.644   2.684  0.00  0.00    -0.278 OA
ATOM     21  N   UNL     1      -0.650  -7.205   4.474  0.00  0.00    -0.286 N 
ATOM     22  H   UNL     1      -1.272  -6.935   5.168  0.00  0.00    +0.155 HD
BRANCH  21  23
ATOM     23  C   UNL     1      -0.116  -8.493   4.479  0.00  0.00    +0.052 A 
ATOM     24  C   UNL     1       1.185  -8.710   4.048  0.00  0.00    +0.044 A 
ATOM     25  C   UNL     1       1.714  -9.986   4.058  0.00  0.00    +0.043 A 
ATOM     26  C   UNL     1       0.948 -11.059   4.489  0.00  0.00    +0.021 A 
ATOM     27  C   UNL     1      -0.348 -10.863   4.915  0.00  0.00    +0.022 A 
ATOM     28  C   UNL     1      -0.894  -9.577   4.914  0.00  0.00    +0.073 A 
ATOM     29 CL   UNL     1       3.344 -10.249   3.524  0.00  0.00    -0.083 Cl
BRANCH  28  30
ATOM     30  C   UNL     1      -2.240  -9.366   5.356  0.00  0.00    +0.101 C 
ATOM     31  N   UNL     1      -3.307  -9.199   5.706  0.00  0.00    -0.191 NA
ENDBRANCH  28  30
ENDBRANCH  21  23
ENDBRANCH  18  19
ENDBRANCH  16  18
TORSDOF 4
