REMARK  Name = ZINC58161477
REMARK  9 active torsions:
REMARK  status: ('A' for Active; 'I' for Inactive)
REMARK    1  A    between atoms: C_1  and  N_2
REMARK    2  A    between atoms: N_2  and  C_3
REMARK    3  A    between atoms: N_2  and  C_4
REMARK    4  A    between atoms: C_4  and  C_6
REMARK    5  A    between atoms: C_4  and  C_26
REMARK    6  A    between atoms: C_6  and  N_7
REMARK    7  A    between atoms: N_10  and  C_11
REMARK    8  A    between atoms: C_14  and  N_21
REMARK    9  A    between atoms: C_16  and  C_17
REMARK                            x       y       z     vdW  Elec       q    Type
REMARK                         _______ _______ _______ _____ _____    ______ ____
ROOT
ATOM      1  N   UNL     1       0.306  -1.458  -0.059  0.00  0.00    -0.300 N 
ATOM      2  C   UNL     1       0.897  -2.652  -0.262  0.00  0.00    +0.304 C 
ATOM      3  O   UNL     1       0.879  -3.161  -1.366  0.00  0.00    -0.253 OA
ATOM      4  N   UNL     1       1.509  -3.284   0.760  0.00  0.00    -0.269 N 
ATOM      5  H   UNL     1       0.321  -1.053   0.822  0.00  0.00    +0.150 HD
ATOM      6  H   UNL     1       1.453  -2.920   1.658  0.00  0.00    +0.156 HD
ENDROOT
BRANCH   4   7
ATOM      7  C   UNL     1       2.224  -4.464   0.526  0.00  0.00    +0.047 A 
ATOM      8  C   UNL     1       2.654  -4.773  -0.758  0.00  0.00    +0.026 A 
ATOM      9  C   UNL     1       3.360  -5.936  -0.988  0.00  0.00    +0.029 A 
ATOM     10  C   UNL     1       3.640  -6.798   0.064  0.00  0.00    +0.068 A 
ATOM     11  C   UNL     1       3.211  -6.490   1.347  0.00  0.00    +0.042 A 
ATOM     12  C   UNL     1       2.510  -5.323   1.579  0.00  0.00    +0.078 A 
BRANCH  10  13
ATOM     13  N   UNL     1       4.357  -7.981  -0.171  0.00  0.00    -0.220 N 
ATOM     14  C   UNL     1       4.922  -8.367  -1.331  0.00  0.00    +0.225 A 
ATOM     15  N   UNL     1       5.497  -9.526  -1.137  0.00  0.00    -0.222 NA
ATOM     16  C   UNL     1       5.322  -9.911   0.127  0.00  0.00    +0.245 A 
ATOM     17  N   UNL     1       4.635  -8.996   0.760  0.00  0.00    -0.154 NA
ENDBRANCH  10  13
BRANCH  12  18
ATOM     18  C   UNL     1       2.049  -4.985   2.974  0.00  0.00    +0.419 C 
ATOM     19  F   UNL     1       2.452  -5.994   3.855  0.00  0.00    -0.166 F 
ATOM     20  F   UNL     1       2.613  -3.768   3.369  0.00  0.00    -0.166 F 
ATOM     21  F   UNL     1       0.654  -4.881   2.991  0.00  0.00    -0.166 F 
ENDBRANCH  12  18
ENDBRANCH   4   7
BRANCH   1  22
ATOM     22  C   UNL     1      -0.359  -0.772  -1.170  0.00  0.00    +0.095 C 
BRANCH  22  23
ATOM     23  C   UNL     1      -1.053   0.488  -0.649  0.00  0.00    -0.020 C 
BRANCH  23  24
ATOM     24  C   UNL     1      -2.179   0.096   0.273  0.00  0.00    -0.052 A 
ATOM     25  C   UNL     1      -2.012   0.148   1.644  0.00  0.00    +0.009 A 
ATOM     26  C   UNL     1      -3.045  -0.211   2.446  0.00  0.00    +0.045 A 
ATOM     27  S   UNL     1      -4.304  -0.640   1.255  0.00  0.00    -0.105 S 
ATOM     28  C   UNL     1      -3.371  -0.306  -0.230  0.00  0.00    +0.047 A 
ENDBRANCH  23  24
BRANCH  23  30
ATOM     29  C   UNL     1      -2.297   2.439  -1.278  0.00  0.00    -0.096 C 
ATOM     30  N   UNL     1      -1.591   1.254  -1.781  0.00  0.00    +0.382 N 
ATOM     31  C   UNL     1      -0.488   1.675  -2.656  0.00  0.00    -0.096 C 
ATOM     32  H   UNL     1      -2.233   0.676  -2.303  0.00  0.00    -0.082 HD
ENDBRANCH  23  30
ENDBRANCH  22  23
ENDBRANCH   1  22
TORSDOF 7
