REMARK  Name = ZINC29002863
REMARK  4 active torsions:
REMARK  status: ('A' for Active; 'I' for Inactive)
REMARK    1  A    between atoms: C_1  and  C_2
REMARK    2  A    between atoms: C_2  and  C_25
REMARK    3  A    between atoms: C_7  and  N_8
REMARK    4  A    between atoms: N_8  and  C_9
REMARK                            x       y       z     vdW  Elec       q    Type
REMARK                         _______ _______ _______ _____ _____    ______ ____
ROOT
ATOM      1  N   UNL     1       5.520   3.354   4.691  0.00  0.00    -0.320 N 
ATOM      2  H   UNL     1       4.979   3.212   5.638  0.00  0.00    +0.152 HD
ENDROOT
BRANCH   1   3
ATOM      3  C   UNL     1       5.118   2.659   3.545  0.00  0.00    +0.035 A 
ATOM      4  C   UNL     1       5.801   2.838   2.349  0.00  0.00    +0.027 A 
ATOM      5  C   UNL     1       5.405   2.153   1.216  0.00  0.00    +0.051 A 
ATOM      6  C   UNL     1       4.328   1.286   1.271  0.00  0.00    +0.167 A 
ATOM      7  C   UNL     1       3.640   1.103   2.471  0.00  0.00    +0.169 A 
ATOM      8  C   UNL     1       4.036   1.789   3.604  0.00  0.00    +0.072 A 
ATOM      9  O   UNL     1       2.628   0.203   2.255  0.00  0.00    -0.447 OA
ATOM     10  C   UNL     1       2.435   0.242   0.839  0.00  0.00    +0.254 C 
ATOM     11  O   UNL     1       3.739   0.500   0.312  0.00  0.00    -0.448 OA
ATOM     12  C   UNL     1       1.424   1.319   0.426  0.00  0.00    +0.093 C 
ATOM     13  C   UNL     1       0.053   0.619   0.560  0.00  0.00    +0.008 C 
ATOM     14  C   UNL     1       0.321  -0.896   0.480  0.00  0.00    +0.008 C 
ATOM     15  C   UNL     1       1.846  -1.067   0.301  0.00  0.00    +0.093 C 
ENDBRANCH   1   3
BRANCH   1  22
ATOM     16  C   UNL     1       7.629   7.791   8.918  0.00  0.00    +0.012 C 
ATOM     17  C   UNL     1       7.233   6.983   7.681  0.00  0.00    -0.021 C 
ATOM     18  C   UNL     1       8.493   6.545   6.931  0.00  0.00    +0.086 C 
ATOM     19  C   UNL     1       8.101   5.725   5.729  0.00  0.00    +0.168 C 
ATOM     20  O   UNL     1       8.804   5.729   4.740  0.00  0.00    -0.292 OA
ATOM     21  C   UNL     1       6.916   4.949   5.748  0.00  0.00    +0.073 C 
ATOM     22  C   UNL     1       6.568   4.196   4.634  0.00  0.00    +0.087 C 
ATOM     23  C   UNL     1       6.078   4.939   6.891  0.00  0.00    +0.168 C 
ATOM     24  O   UNL     1       5.062   4.274   6.889  0.00  0.00    -0.292 OA
ATOM     25  C   UNL     1       6.445   5.743   8.111  0.00  0.00    +0.086 C 
ATOM     26  C   UNL     1       6.366   7.847   6.762  0.00  0.00    +0.012 C 
ENDBRANCH   1  22
TORSDOF 2
