REMARK  Name = ZINC04581665
REMARK  6 active torsions:
REMARK  status: ('A' for Active; 'I' for Inactive)
REMARK    1  A    between atoms: C_1  and  C_2
REMARK    2  A    between atoms: C_2  and  C_4
REMARK    3  A    between atoms: C_2  and  O_15
REMARK    4  A    between atoms: N_6  and  C_7
REMARK    5  A    between atoms: O_15  and  C_16
REMARK    6  A    between atoms: C_16  and  C_18
REMARK                            x       y       z     vdW  Elec       q    Type
REMARK                         _______ _______ _______ _____ _____    ______ ____
ROOT
ATOM      1  O   UNL     1       4.863   0.077  -0.041  0.00  0.00    -0.449 OA
ENDROOT
BRANCH   1   3
ATOM      2  C   UNL     1       6.562  -0.957   1.364  0.00  0.00    +0.062 C 
ATOM      3  C   UNL     1       6.099  -0.684  -0.068  0.00  0.00    +0.259 C 
BRANCH   3   4
ATOM      4  C   UNL     1       7.158   0.103  -0.797  0.00  0.00    +0.258 C 
ATOM      5  O   UNL     1       6.925   1.234  -1.169  0.00  0.00    -0.271 OA
ATOM      6  N   UNL     1       8.364  -0.449  -1.035  0.00  0.00    -0.281 N 
ATOM      7  H   UNL     1       8.573  -1.327  -0.681  0.00  0.00    +0.155 HD
BRANCH   6   8
ATOM      8  C   UNL     1       9.315   0.246  -1.793  0.00  0.00    +0.052 A 
ATOM      9  C   UNL     1       9.398   1.629  -1.706  0.00  0.00    +0.027 A 
ATOM     10  C   UNL     1      10.337   2.313  -2.453  0.00  0.00    +0.040 A 
ATOM     11  C   UNL     1      11.196   1.620  -3.289  0.00  0.00    +0.125 A 
ATOM     12  C   UNL     1      11.116   0.240  -3.378  0.00  0.00    +0.060 A 
ATOM     13  C   UNL     1      10.181  -0.448  -2.628  0.00  0.00    +0.065 A 
ATOM     14 CL   UNL     1      10.086  -2.178  -2.734  0.00  0.00    -0.082 Cl
ATOM     15  F   UNL     1      12.114   2.291  -4.020  0.00  0.00    -0.205 F 
ENDBRANCH   6   8
ENDBRANCH   3   4
ENDBRANCH   1   3
BRANCH   1  16
ATOM     16  C   UNL     1       3.713  -0.624  -0.021  0.00  0.00    +0.340 C 
ATOM     17  O   UNL     1       3.742  -1.839  -0.026  0.00  0.00    -0.245 OA
BRANCH  16  18
ATOM     18  C   UNL     1       2.420   0.082   0.007  0.00  0.00    +0.061 A 
ATOM     19  C   UNL     1       2.388   1.480   0.013  0.00  0.00    +0.016 A 
ATOM     20  C   UNL     1       1.177   2.136   0.037  0.00  0.00    +0.017 A 
ATOM     21  C   UNL     1      -0.007   1.411   0.056  0.00  0.00    +0.030 A 
ATOM     22  C   UNL     1       0.010   0.012   0.054  0.00  0.00    +0.048 A 
ATOM     23  C   UNL     1       1.228  -0.647   0.028  0.00  0.00    +0.039 A 
ATOM     24  N   UNL     1      -1.169  -0.730   0.084  0.00  0.00    -0.284 N 
ATOM     25  C   UNL     1      -2.375  -0.307  -0.286  0.00  0.00    +0.227 C 
ATOM     26  O   UNL     1      -3.303  -1.085  -0.210  0.00  0.00    -0.275 OA
ATOM     27  C   UNL     1      -2.651   1.082  -0.793  0.00  0.00    +0.170 C 
ATOM     28  S   UNL     1      -1.561   2.250   0.074  0.00  0.00    -0.114 S 
ATOM     29  H   UNL     1      -1.103  -1.643   0.404  0.00  0.00    +0.155 HD
ENDBRANCH  16  18
ENDBRANCH   1  16
TORSDOF 5
