REMARK  Name = ZINC64446967
REMARK  4 active torsions:
REMARK  status: ('A' for Active; 'I' for Inactive)
REMARK    1  A    between atoms: C_10  and  C_12
REMARK    2  A    between atoms: C_12  and  C_13
REMARK    3  A    between atoms: C_16  and  N_22
REMARK    4  A    between atoms: C_17  and  C_20
REMARK                            x       y       z     vdW  Elec       q    Type
REMARK                         _______ _______ _______ _____ _____    ______ ____
ROOT
ATOM      1  C   UNL     1       3.412  -2.075  -2.396  0.00  0.00    +0.124 C 
ENDROOT
BRANCH   1  11
ATOM      2  C   UNL     1      -0.017   1.377   0.010  0.00  0.00    +0.002 A 
ATOM      3  C   UNL     1       1.166   2.094   0.002  0.00  0.00    +0.001 A 
ATOM      4  C   UNL     1       2.377   1.426  -0.008  0.00  0.00    +0.016 A 
ATOM      5  C   UNL     1       2.401   0.041  -0.015  0.00  0.00    +0.030 A 
ATOM      6  C   UNL     1       1.213  -0.690  -0.015  0.00  0.00    +0.047 A 
ATOM      7  C   UNL     1       0.002  -0.004   0.002  0.00  0.00    +0.024 A 
ATOM      8  N   UNL     1       1.205  -2.081  -0.044  0.00  0.00    -0.284 N 
ATOM      9  C   UNL     1       2.221  -2.873  -0.370  0.00  0.00    +0.231 C 
ATOM     10  O   UNL     1       2.083  -4.071  -0.238  0.00  0.00    -0.274 OA
ATOM     11  C   UNL     1       3.534  -2.357  -0.897  0.00  0.00    +0.146 C 
ATOM     12  S   UNL     1       3.943  -0.819  -0.017  0.00  0.00    -0.110 S 
ATOM     13  H   UNL     1       0.373  -2.517   0.199  0.00  0.00    +0.155 HD
ENDBRANCH   1  11
BRANCH   1  14
ATOM     14  C   UNL     1       4.759  -1.677  -2.943  0.00  0.00    +0.251 C 
ATOM     15  O   UNL     1       5.717  -1.623  -2.210  0.00  0.00    -0.271 OA
ATOM     16  N   UNL     1       4.893  -1.379  -4.251  0.00  0.00    -0.185 N 
ATOM     17  C   UNL     1       6.051  -1.012  -4.872  0.00  0.00    +0.140 A 
ATOM     18  C   UNL     1       5.742  -0.800  -6.212  0.00  0.00    +0.111 A 
ATOM     19  C   UNL     1       4.357  -1.056  -6.364  0.00  0.00    +0.155 A 
ATOM     20  N   UNL     1       3.871  -1.401  -5.206  0.00  0.00    -0.169 NA
BRANCH  17  21
ATOM     21  N   UNL     1       7.290  -0.875  -4.285  0.00  0.00    -0.342 N 
ATOM     22  H   UNL     1       7.399  -1.048  -3.336  0.00  0.00    +0.144 HD
ATOM     23  H   UNL     1       8.054  -0.607  -4.819  0.00  0.00    +0.144 HD
ENDBRANCH  17  21
BRANCH  18  24
ATOM     24  C   UNL     1       6.651  -0.399  -7.242  0.00  0.00    +0.104 C 
ATOM     25  N   UNL     1       7.373  -0.081  -8.059  0.00  0.00    -0.191 NA
ENDBRANCH  18  24
ENDBRANCH   1  14
TORSDOF 4
