REMARK  Name = ZINC63157157
REMARK  4 active torsions:
REMARK  status: ('A' for Active; 'I' for Inactive)
REMARK    1  A    between atoms: C_1  and  C_2
REMARK    2  A    between atoms: C_2  and  C_3
REMARK    3  A    between atoms: C_2  and  C_4
REMARK    4  A    between atoms: C_10  and  C_12
REMARK                            x       y       z     vdW  Elec       q    Type
REMARK                         _______ _______ _______ _____ _____    ______ ____
ROOT
ATOM      1  C   UNL     1       0.707  -0.490  -1.238  0.00  0.00    +0.051 A 
ATOM      2  C   UNL     1       1.823  -1.263  -1.129  0.00  0.00    +0.093 A 
ATOM      3  C   UNL     1       2.459  -1.702  -2.309  0.00  0.00    +0.252 A 
ATOM      4  O   UNL     1       3.460  -2.396  -2.256  0.00  0.00    -0.268 OA
ATOM      5  N   UNL     1       1.935  -1.337  -3.499  0.00  0.00    -0.310 N 
ATOM      6  H   UNL     1       2.354  -1.626  -4.324  0.00  0.00    +0.170 HD
ATOM      7  C   UNL     1       0.828  -0.570  -3.538  0.00  0.00    +0.117 A 
ATOM      8  N   UNL     1       0.236  -0.168  -2.445  0.00  0.00    -0.238 NA
ENDROOT
BRANCH   7   9
ATOM      9  C   UNL     1       0.255  -0.171  -4.874  0.00  0.00    +0.085 C 
ATOM     10  C   UNL     1       0.983   1.072  -5.383  0.00  0.00    +0.016 C 
ATOM     11  C   UNL     1       0.248   1.587  -6.626  0.00  0.00    +0.006 C 
ATOM     12  C   UNL     1      -1.097   2.161  -6.187  0.00  0.00    +0.035 C 
ATOM     13  C   UNL     1      -1.840   1.172  -5.327  0.00  0.00    -0.044 A 
ATOM     14  C   UNL     1      -1.218   0.104  -4.721  0.00  0.00    -0.034 A 
ATOM     15  C   UNL     1      -1.960  -0.768  -3.936  0.00  0.00    +0.004 A 
ATOM     16  C   UNL     1      -3.315  -0.574  -3.760  0.00  0.00    +0.000 A 
ATOM     17  C   UNL     1      -3.939   0.497  -4.372  0.00  0.00    +0.000 A 
ATOM     18  C   UNL     1      -3.204   1.364  -5.152  0.00  0.00    +0.004 A 
ENDBRANCH   7   9
BRANCH   1  20
ATOM     19  C   UNL     1      -0.019   1.526   0.010  0.00  0.00    +0.014 C 
ATOM     20  C   UNL     1       0.002  -0.004   0.002  0.00  0.00    +0.032 C 
ATOM     21  C   UNL     1      -1.433  -0.534   0.013  0.00  0.00    +0.014 C 
ENDBRANCH   1  20
TORSDOF 2
