REMARK  Name = ZINC06860157
REMARK  10 active torsions:
REMARK  status: ('A' for Active; 'I' for Inactive)
REMARK    1  A    between atoms: C_1  and  C_2
REMARK    2  A    between atoms: C_8  and  C_27
REMARK    3  A    between atoms: C_9  and  C_11
REMARK    4  A    between atoms: C_16  and  C_26
REMARK    5  A    between atoms: C_17  and  C_19
REMARK    6  A    between atoms: C_19  and  O_21
REMARK    7  A    between atoms: O_21  and  C_22
REMARK    8  A    between atoms: C_22  and  C_23
REMARK    9  A    between atoms: C_23  and  C_24
REMARK   10  A    between atoms: C_23  and  C_25
REMARK                            x       y       z     vdW  Elec       q    Type
REMARK                         _______ _______ _______ _____ _____    ______ ____
ROOT
ATOM      1  C   UNL     1       5.973   0.909  -0.047  0.00  0.00    +0.285 C 
ATOM      2  O   UNL     1       6.651  -0.101  -0.058  0.00  0.00    -0.266 OA
ATOM      3  N   UNL     1       6.567   2.119  -0.047  0.00  0.00    -0.258 N 
ATOM      4  C   UNL     1       7.946   2.212  -0.058  0.00  0.00    +0.166 A 
ATOM      5  N   UNL     1       8.703   3.299  -0.065  0.00  0.00    -0.229 NA
ATOM      6  C   UNL     1      10.007   3.225  -0.072  0.00  0.00    +0.062 A 
ATOM      7  C   UNL     1      10.583   1.961  -0.083  0.00  0.00    +0.120 A 
ATOM      8  S   UNL     1       9.121   0.934  -0.075  0.00  0.00    -0.045 S 
ATOM      9  C   UNL     1      10.858   4.469  -0.074  0.00  0.00    +0.067 C 
ATOM     10  H   UNL     1       6.026   2.924  -0.038  0.00  0.00    +0.157 HD
ENDROOT
BRANCH   1  19
ATOM     11  C   UNL     1      -1.296  -0.770   0.010  0.00  0.00    +0.044 C 
ATOM     12  C   UNL     1       0.002  -0.004   0.002  0.00  0.00    -0.050 A 
ATOM     13  C   UNL     1      -0.017   1.384   0.010  0.00  0.00    +0.007 A 
ATOM     14  C   UNL     1       1.158   2.105   0.002  0.00  0.00    +0.047 A 
ATOM     15  C   UNL     1       2.378   1.439  -0.013  0.00  0.00    +0.136 A 
ATOM     16  C   UNL     1       2.391   0.032  -0.020  0.00  0.00    +0.024 A 
ATOM     17  C   UNL     1       1.189  -0.680  -0.013  0.00  0.00    +0.015 A 
ATOM     18  C   UNL     1       3.803  -0.351  -0.034  0.00  0.00    +0.008 A 
ATOM     19  C   UNL     1       4.508   0.810  -0.035  0.00  0.00    +0.194 A 
ATOM     20  O   UNL     1       3.658   1.858  -0.022  0.00  0.00    -0.450 OA
ATOM     21  C   UNL     1       4.361  -1.751  -0.046  0.00  0.00    +0.048 C 
ENDBRANCH   1  19
BRANCH   7  22
ATOM     22  C   UNL     1      11.993   1.578  -0.098  0.00  0.00    +0.348 C 
ATOM     23  O   UNL     1      12.857   2.435  -0.102  0.00  0.00    -0.244 OA
BRANCH  22  24
ATOM     24  O   UNL     1      12.338   0.274  -0.107  0.00  0.00    -0.460 OA
BRANCH  24  25
ATOM     25  C   UNL     1      13.735  -0.029  -0.121  0.00  0.00    +0.235 C 
BRANCH  25  26
ATOM     26  C   UNL     1      13.928  -1.546  -0.129  0.00  0.00    +0.020 C 
ATOM     27  C   UNL     1      15.417  -1.870  -0.270  0.00  0.00    +0.010 C 
ATOM     28  C   UNL     1      13.400  -2.135   1.180  0.00  0.00    +0.010 C 
ENDBRANCH  25  26
ENDBRANCH  24  25
ENDBRANCH  22  24
ENDBRANCH   7  22
TORSDOF 5
