REMARK  Name = ZINC37122440
REMARK  6 active torsions:
REMARK  status: ('A' for Active; 'I' for Inactive)
REMARK    1  A    between atoms: C_1  and  C_2
REMARK    2  A    between atoms: C_5  and  N_13
REMARK    3  A    between atoms: C_7  and  C_12
REMARK    4  A    between atoms: N_10  and  C_11
REMARK    5  A    between atoms: N_13  and  C_14
REMARK    6  A    between atoms: C_16  and  C_22
REMARK                            x       y       z     vdW  Elec       q    Type
REMARK                         _______ _______ _______ _____ _____    ______ ____
ROOT
ATOM      1  N   UNL     1      -3.498  -0.601   1.326  0.00  0.00    -0.339 N 
ATOM      2  H   UNL     1      -3.666  -1.413   1.830  0.00  0.00    +0.146 HD
ENDROOT
BRANCH   1   6
ATOM      3  C   UNL     1      -0.019   1.526   0.010  0.00  0.00    -0.013 C 
ATOM      4  C   UNL     1       0.002  -0.004   0.002  0.00  0.00    -0.070 C 
ATOM      5  C   UNL     1      -1.434  -0.533   0.011  0.00  0.00    +0.007 C 
ATOM      6  C   UNL     1      -2.146  -0.038   1.273  0.00  0.00    +0.070 C 
ATOM      7  C   UNL     1      -1.354  -0.487   2.504  0.00  0.00    -0.011 C 
ATOM      8  C   UNL     1       0.079   0.040   2.403  0.00  0.00    -0.074 C 
ATOM      9  N   UNL     1       0.713  -0.490   1.191  0.00  0.00    +0.380 N 
ATOM     10  C   UNL     1       2.112  -0.044   1.139  0.00  0.00    -0.096 C 
ATOM     11  C   UNL     1      -2.015   0.068   3.768  0.00  0.00    +0.007 C 
ATOM     12  H   UNL     1       0.684  -1.498   1.210  0.00  0.00    -0.082 HD
ENDBRANCH   1   6
BRANCH   1  13
ATOM     13  C   UNL     1      -4.547   0.032   0.648  0.00  0.00    +0.064 A 
ATOM     14  C   UNL     1      -4.305   1.186  -0.075  0.00  0.00    +0.043 A 
ATOM     15  C   UNL     1      -5.356   1.815  -0.751  0.00  0.00    +0.100 A 
ATOM     16  C   UNL     1      -6.645   1.273  -0.690  0.00  0.00    +0.140 A 
ATOM     17  C   UNL     1      -6.875   0.119   0.036  0.00  0.00    +0.079 A 
ATOM     18  C   UNL     1      -5.832  -0.504   0.699  0.00  0.00    +0.147 A 
ATOM     19  F   UNL     1      -6.062  -1.635   1.401  0.00  0.00    -0.203 F 
ATOM     20  F   UNL     1      -7.664   1.876  -1.340  0.00  0.00    -0.205 F 
BRANCH  15  21
ATOM     21  C   UNL     1      -5.107   3.044  -1.522  0.00  0.00    +0.389 C 
ATOM     22  O   UNL     1      -3.979   3.516  -1.574  0.00  0.00    -0.240 OA
ATOM     23  O   UNL     1      -6.027   3.593  -2.113  0.00  0.00    -0.240 OA
ENDBRANCH  15  21
ENDBRANCH   1  13
TORSDOF 3
