REMARK  Name = ZINC13177884
REMARK  6 active torsions:
REMARK  status: ('A' for Active; 'I' for Inactive)
REMARK    1  A    between atoms: C_1  and  C_2
REMARK    2  A    between atoms: C_2  and  C_4
REMARK    3  A    between atoms: C_2  and  O_16
REMARK    4  A    between atoms: N_6  and  C_7
REMARK    5  A    between atoms: C_12  and  C_13
REMARK    6  A    between atoms: O_16  and  C_17
REMARK                            x       y       z     vdW  Elec       q    Type
REMARK                         _______ _______ _______ _____ _____    ______ ____
ROOT
ATOM      1  C   UNL     1      -4.648   3.765  -0.847  0.00  0.00    +0.258 C 
ATOM      2  O   UNL     1      -4.386   4.862  -1.294  0.00  0.00    -0.271 OA
ATOM      3  N   UNL     1      -5.859   3.218  -1.070  0.00  0.00    -0.282 N 
ATOM      4  H   UNL     1      -6.091   2.370  -0.660  0.00  0.00    +0.155 HD
ENDROOT
BRANCH   3   5
ATOM      5  C   UNL     1      -6.778   3.869  -1.889  0.00  0.00    +0.048 A 
ATOM      6  C   UNL     1      -6.849   5.256  -1.892  0.00  0.00    +0.025 A 
ATOM      7  C   UNL     1      -7.760   5.900  -2.705  0.00  0.00    +0.017 A 
ATOM      8  C   UNL     1      -8.609   5.171  -3.523  0.00  0.00    +0.019 A 
ATOM      9  C   UNL     1      -8.552   3.793  -3.534  0.00  0.00    +0.032 A 
ATOM     10  C   UNL     1      -7.631   3.128  -2.720  0.00  0.00    +0.085 A 
ATOM     11 BR   UNL     1      -9.850   6.070  -4.631  0.00  0.00    -0.050 Br
BRANCH  10  12
ATOM     12  C   UNL     1      -7.561   1.656  -2.731  0.00  0.00    +0.388 C 
ATOM     13  O   UNL     1      -6.824   1.077  -1.957  0.00  0.00    -0.241 OA
ATOM     14  O   UNL     1      -8.312   0.952  -3.600  0.00  0.00    -0.241 OA
ENDBRANCH  10  12
ENDBRANCH   3   5
BRANCH   1  16
ATOM     15  C   UNL     1      -4.167   2.745   1.362  0.00  0.00    +0.062 C 
ATOM     16  C   UNL     1      -3.619   3.015  -0.041  0.00  0.00    +0.256 C 
BRANCH  16  17
ATOM     17  O   UNL     1      -2.427   3.797   0.055  0.00  0.00    -0.480 OA
BRANCH  17  18
ATOM     18  C   UNL     1      -1.247   3.123   0.078  0.00  0.00    +0.122 A 
ATOM     19  C   UNL     1      -1.239   1.737   0.131  0.00  0.00    +0.045 A 
ATOM     20  C   UNL     1      -0.038   1.055   0.161  0.00  0.00    +0.004 A 
ATOM     21  C   UNL     1       1.155   1.752   0.126  0.00  0.00    +0.000 A 
ATOM     22  C   UNL     1       1.150   3.133   0.067  0.00  0.00    +0.004 A 
ATOM     23  C   UNL     1      -0.048   3.820   0.043  0.00  0.00    +0.045 A 
ENDBRANCH  17  18
ENDBRANCH  16  17
ENDBRANCH   1  16
TORSDOF 5
