REMARK  Name = ZINC38612413
REMARK  9 active torsions:
REMARK  status: ('A' for Active; 'I' for Inactive)
REMARK    1  A    between atoms: C_1  and  C_2
REMARK    2  A    between atoms: C_7  and  C_29
REMARK    3  A    between atoms: C_9  and  N_12
REMARK    4  A    between atoms: C_13  and  C_15
REMARK    5  A    between atoms: C_15  and  C_16
REMARK    6  A    between atoms: C_15  and  C_22
REMARK    7  A    between atoms: C_15  and  O_28
REMARK    8  A    between atoms: C_29  and  O_31
REMARK    9  A    between atoms: O_31  and  C_32
REMARK                            x       y       z     vdW  Elec       q    Type
REMARK                         _______ _______ _______ _____ _____    ______ ____
ROOT
ATOM      1  N   UNL     1      -1.120  -4.503   3.575  0.00  0.00    -0.283 N 
ATOM      2  C   UNL     1      -1.034  -3.297   4.172  0.00  0.00    +0.258 C 
ATOM      3  O   UNL     1      -1.050  -2.287   3.503  0.00  0.00    -0.272 OA
ATOM      4  H   UNL     1      -1.169  -5.308   4.114  0.00  0.00    +0.155 HD
ENDROOT
BRANCH   1  12
ATOM      5  C   UNL     1      -1.122  -9.514   1.199  0.00  0.00    +0.044 C 
ATOM      6  C   UNL     1      -1.137  -8.056   0.819  0.00  0.00    -0.050 A 
ATOM      7  C   UNL     1      -1.158  -7.705  -0.533  0.00  0.00    +0.005 A 
ATOM      8  C   UNL     1      -1.172  -6.411  -0.937  0.00  0.00    +0.026 A 
ATOM      9  C   UNL     1      -1.166  -5.370   0.028  0.00  0.00    +0.045 A 
ATOM     10  N   UNL     1      -1.176  -4.059  -0.103  0.00  0.00    -0.367 N 
ATOM     11  C   UNL     1      -1.161  -3.445   1.228  0.00  0.00    +0.234 C 
ATOM     12  C   UNL     1      -1.140  -4.590   2.216  0.00  0.00    +0.053 C 
ATOM     13  C   UNL     1      -1.143  -5.745   1.453  0.00  0.00    +0.018 A 
ATOM     14  C   UNL     1      -1.134  -7.117   1.798  0.00  0.00    +0.015 A 
ATOM     15  H   UNL     1      -1.191  -3.578  -0.945  0.00  0.00    +0.161 HD
BRANCH  11  16
ATOM     16  C   UNL     1      -2.399  -2.608   1.427  0.00  0.00    +0.335 C 
ATOM     17  O   UNL     1      -3.472  -3.019   1.054  0.00  0.00    -0.248 OA
BRANCH  16  18
ATOM     18  O   UNL     1      -2.309  -1.407   2.019  0.00  0.00    -0.466 OA
ATOM     19  C   UNL     1      -3.522  -0.668   2.176  0.00  0.00    +0.280 C 
ENDBRANCH  16  18
ENDBRANCH  11  16
ENDBRANCH   1  12
BRANCH   2  20
ATOM     20  C   UNL     1      -0.918  -3.206   5.672  0.00  0.00    +0.192 C 
BRANCH  20  21
ATOM     21  C   UNL     1       0.528  -3.347   6.073  0.00  0.00    -0.003 A 
ATOM     22  C   UNL     1       1.516  -2.733   5.326  0.00  0.00    +0.007 A 
ATOM     23  C   UNL     1       2.842  -2.863   5.694  0.00  0.00    +0.000 A 
ATOM     24  C   UNL     1       3.180  -3.607   6.810  0.00  0.00    +0.000 A 
ATOM     25  C   UNL     1       2.192  -4.220   7.557  0.00  0.00    +0.000 A 
ATOM     26  C   UNL     1       0.866  -4.086   7.191  0.00  0.00    +0.007 A 
ENDBRANCH  20  21
BRANCH  20  27
ATOM     27  C   UNL     1      -1.439  -1.870   6.136  0.00  0.00    -0.003 A 
ATOM     28  C   UNL     1      -2.578  -1.806   6.917  0.00  0.00    +0.007 A 
ATOM     29  C   UNL     1      -3.056  -0.581   7.342  0.00  0.00    +0.000 A 
ATOM     30  C   UNL     1      -2.396   0.580   6.987  0.00  0.00    +0.000 A 
ATOM     31  C   UNL     1      -1.257   0.516   6.206  0.00  0.00    +0.000 A 
ATOM     32  C   UNL     1      -0.776  -0.709   5.784  0.00  0.00    +0.007 A 
ENDBRANCH  20  27
BRANCH  20  33
ATOM     33  O   UNL     1      -1.683  -4.251   6.274  0.00  0.00    -0.371 OA
ATOM     34  H   UNL     1      -2.626  -4.223   6.059  0.00  0.00    +0.212 HD
ENDBRANCH  20  33
ENDBRANCH   2  20
TORSDOF 7
