REMARK  Name = ZINC36993334
REMARK  2 active torsions:
REMARK  status: ('A' for Active; 'I' for Inactive)
REMARK    1  A    between atoms: C_5  and  N_8
REMARK    2  A    between atoms: N_8  and  C_9
REMARK                            x       y       z     vdW  Elec       q    Type
REMARK                         _______ _______ _______ _____ _____    ______ ____
ROOT
ATOM      1  C   UNL     1      -0.017   1.379   0.010  0.00  0.00    +0.048 A 
ATOM      2  C   UNL     1       1.175   2.086   0.002  0.00  0.00    +0.077 A 
ATOM      3  C   UNL     1       2.391   1.405  -0.014  0.00  0.00    +0.144 A 
ATOM      4  C   UNL     1       2.409   0.022  -0.021  0.00  0.00    +0.072 A 
ATOM      5  C   UNL     1       1.214  -0.685  -0.013  0.00  0.00    +0.049 A 
ATOM      6  C   UNL     1       0.002  -0.004   0.002  0.00  0.00    +0.064 A 
ATOM      7 CL   UNL     1      -1.490  -0.891   0.012  0.00  0.00    -0.082 Cl
ATOM      8  O   UNL     1       3.553   2.113  -0.023  0.00  0.00    -0.481 OA
ATOM      9  C   UNL     1       3.537   3.366  -0.711  0.00  0.00    +0.325 C 
ATOM     10  C   UNL     1       2.310   4.147  -0.313  0.00  0.00    +0.255 C 
ATOM     11  O   UNL     1       2.342   5.359  -0.284  0.00  0.00    -0.272 OA
ATOM     12  N   UNL     1       1.174   3.490   0.011  0.00  0.00    -0.280 N 
ATOM     13  H   UNL     1       0.371   3.981   0.245  0.00  0.00    +0.155 HD
ENDROOT
BRANCH   5  14
ATOM     14  N   UNL     1       1.229  -2.084  -0.020  0.00  0.00    -0.340 N 
ATOM     15  H   UNL     1       0.395  -2.578  -0.015  0.00  0.00    +0.146 HD
BRANCH  14  16
ATOM     16  C   UNL     1       2.506  -2.803  -0.036  0.00  0.00    +0.072 C 
ATOM     17  C   UNL     1       3.007  -2.903  -1.473  0.00  0.00    +0.033 C 
ATOM     18  C   UNL     1       4.461  -3.386  -1.486  0.00  0.00    +0.071 C 
ATOM     19  S   UNL     1       4.528  -5.053  -0.762  0.00  0.00    -0.161 S 
ATOM     20  C   UNL     1       3.669  -4.844   0.827  0.00  0.00    +0.071 C 
ATOM     21  C   UNL     1       2.309  -4.190   0.568  0.00  0.00    +0.033 C 
ENDBRANCH  14  16
ENDBRANCH   5  14
TORSDOF 2
