REMARK  Name = ZINC39843808
REMARK  4 active torsions:
REMARK  status: ('A' for Active; 'I' for Inactive)
REMARK    1  A    between atoms: N_9  and  N_10
REMARK    2  A    between atoms: C_15  and  C_18
REMARK    3  A    between atoms: C_18  and  C_19
REMARK    4  A    between atoms: C_19  and  O_20
REMARK                            x       y       z     vdW  Elec       q    Type
REMARK                         _______ _______ _______ _____ _____    ______ ____
ROOT
ATOM      1  C   UNL     1      -0.017   1.381   0.010  0.00  0.00    +0.017 A 
ATOM      2  C   UNL     1       1.161   2.101   0.002  0.00  0.00    +0.025 A 
ATOM      3  C   UNL     1       2.384   1.438  -0.013  0.00  0.00    +0.043 A 
ATOM      4  C   UNL     1       2.399   0.036  -0.021  0.00  0.00    +0.029 A 
ATOM      5  C   UNL     1       1.206  -0.680  -0.014  0.00  0.00    +0.027 A 
ATOM      6  C   UNL     1       0.002  -0.004   0.002  0.00  0.00    +0.019 A 
ATOM      7 BR   UNL     1      -1.623  -0.971   0.012  0.00  0.00    -0.050 Br
ATOM      8  C   UNL     1       3.823  -0.364  -0.036  0.00  0.00    +0.157 C 
ATOM      9  N   UNL     1       4.312  -1.593  -0.048  0.00  0.00    -0.142 NA
ATOM     10  C   UNL     1       4.575   0.897  -0.037  0.00  0.00    +0.269 C 
ATOM     11  O   UNL     1       5.788   1.006  -0.048  0.00  0.00    -0.268 OA
ATOM     12  N   UNL     1       3.691   1.909  -0.023  0.00  0.00    -0.280 N 
ATOM     13  H   UNL     1       3.935   2.848  -0.020  0.00  0.00    +0.155 HD
ENDROOT
BRANCH   9  14
ATOM     14  N   UNL     1       5.589  -1.779  -0.060  0.00  0.00    -0.126 NA
ATOM     15  C   UNL     1       6.081  -3.014  -0.072  0.00  0.00    +0.183 C 
ATOM     16  N   UNL     1       5.374  -4.182  -0.077  0.00  0.00    -0.263 N 
ATOM     17  C   UNL     1       5.963  -5.370  -0.088  0.00  0.00    +0.232 C 
ATOM     18  O   UNL     1       5.353  -6.418  -0.093  0.00  0.00    -0.274 OA
ATOM     19  C   UNL     1       7.482  -5.285  -0.095  0.00  0.00    +0.142 C 
ATOM     20  S   UNL     1       7.702  -3.460  -0.089  0.00  0.00    -0.076 S 
ATOM     21  H   UNL     1       4.404  -4.142  -0.073  0.00  0.00    +0.157 HD
BRANCH  19  22
ATOM     22  C   UNL     1       8.079  -5.926   1.159  0.00  0.00    +0.052 C 
BRANCH  22  23
ATOM     23  C   UNL     1       9.606  -5.930   1.053  0.00  0.00    +0.157 C 
BRANCH  23  24
ATOM     24  O   UNL     1      10.164  -6.529   2.224  0.00  0.00    -0.395 OA
ATOM     25  H   UNL     1      11.130  -6.565   2.225  0.00  0.00    +0.209 HD
ENDBRANCH  23  24
ENDBRANCH  22  23
ENDBRANCH  19  22
ENDBRANCH   9  14
TORSDOF 4
