REMARK  Name = ZINC41260224
REMARK  5 active torsions:
REMARK  status: ('A' for Active; 'I' for Inactive)
REMARK    1  A    between atoms: C_1  and  O_2
REMARK    2  A    between atoms: O_2  and  C_3
REMARK    3  A    between atoms: N_8  and  C_11
REMARK    4  A    between atoms: C_11  and  C_13
REMARK    5  A    between atoms: C_11  and  C_15
REMARK                            x       y       z     vdW  Elec       q    Type
REMARK                         _______ _______ _______ _____ _____    ______ ____
ROOT
ATOM      1  C   UNL     1       0.620  -0.613   1.032  0.00  0.00    +0.403 C 
ATOM      2  O   UNL     1       1.129   0.051   1.913  0.00  0.00    -0.226 OA
ATOM      3  N   UNL     1       0.674  -1.958   1.085  0.00  0.00    -0.265 N 
ATOM      4  C   UNL     1       0.070  -2.781   0.026  0.00  0.00    +0.126 C 
ATOM      5  C   UNL     1      -0.841  -3.825   0.680  0.00  0.00    +0.105 C 
ATOM      6  N   UNL     1      -0.079  -4.572   1.688  0.00  0.00    -0.281 NA
ATOM      7  C   UNL     1       0.378  -3.692   2.773  0.00  0.00    +0.105 C 
ATOM      8  C   UNL     1       1.344  -2.643   2.201  0.00  0.00    +0.126 C 
ENDROOT
BRANCH   1  10
ATOM      9  C   UNL     1      -0.017   1.425   0.010  0.00  0.00    +0.282 C 
ATOM     10  O   UNL     1       0.002  -0.004   0.002  0.00  0.00    -0.454 OA
ENDBRANCH   1  10
BRANCH   6  11
ATOM     11  C   UNL     1      -0.865  -5.695   2.217  0.00  0.00    +0.191 C 
BRANCH  11  12
ATOM     12  C   UNL     1      -0.052  -6.437   3.246  0.00  0.00    -0.016 A 
ATOM     13  C   UNL     1       1.299  -6.646   3.040  0.00  0.00    +0.007 A 
ATOM     14  C   UNL     1       2.046  -7.326   3.984  0.00  0.00    +0.020 A 
ATOM     15  C   UNL     1       1.440  -7.799   5.135  0.00  0.00    +0.041 A 
ATOM     16  C   UNL     1       0.088  -7.590   5.340  0.00  0.00    +0.020 A 
ATOM     17  C   UNL     1      -0.656  -6.904   4.399  0.00  0.00    +0.007 A 
ATOM     18 CL   UNL     1       2.377  -8.654   6.320  0.00  0.00    -0.084 Cl
ENDBRANCH  11  12
BRANCH  11  19
ATOM     19  C   UNL     1      -1.217  -6.609   1.118  0.00  0.00    +0.086 C 
ATOM     20  N   UNL     1      -1.488  -7.314   0.270  0.00  0.00    -0.195 NA
ENDBRANCH  11  19
ENDBRANCH   6  11
TORSDOF 4
