REMARK  Name = ZINC67535798
REMARK  9 active torsions:
REMARK  status: ('A' for Active; 'I' for Inactive)
REMARK    1  A    between atoms: C_1  and  C_2
REMARK    2  A    between atoms: C_3  and  C_9
REMARK    3  A    between atoms: C_4  and  C_8
REMARK    4  A    between atoms: N_5  and  C_7
REMARK    5  A    between atoms: C_9  and  C_11
REMARK    6  A    between atoms: C_9  and  N_12
REMARK    7  A    between atoms: N_15  and  C_16
REMARK    8  A    between atoms: C_16  and  C_17
REMARK    9  A    between atoms: C_17  and  C_18
REMARK                            x       y       z     vdW  Elec       q    Type
REMARK                         _______ _______ _______ _____ _____    ______ ____
ROOT
ATOM      1  N   UNL     1      -0.616   0.845  -2.745  0.00  0.00    -0.293 N 
ATOM      2  C   UNL     1      -1.168   1.100  -3.947  0.00  0.00    +0.300 C 
ATOM      3  O   UNL     1      -0.975   0.342  -4.878  0.00  0.00    -0.253 OA
ATOM      4  N   UNL     1      -1.935   2.195  -4.118  0.00  0.00    -0.299 N 
ATOM      5  H   UNL     1      -0.769   1.450  -2.002  0.00  0.00    +0.151 HD
ATOM      6  H   UNL     1      -2.088   2.800  -3.375  0.00  0.00    +0.150 HD
ENDROOT
BRANCH   1   7
ATOM      7  C   UNL     1       0.218  -0.346  -2.559  0.00  0.00    +0.105 C 
ATOM      8  C   UNL     1       1.648  -0.043  -3.010  0.00  0.00    +0.033 C 
BRANCH   7  11
ATOM      9  C   UNL     1      -0.183  -3.272  -1.411  0.00  0.00    +0.068 C 
ATOM     10  C   UNL     1       0.045  -2.025  -0.595  0.00  0.00    +0.065 A 
ATOM     11  C   UNL     1       0.222  -0.734  -1.103  0.00  0.00    +0.016 A 
ATOM     12  C   UNL     1       0.398   0.105  -0.056  0.00  0.00    +0.041 A 
ATOM     13  N   UNL     1       0.335  -0.630   1.075  0.00  0.00    -0.271 N 
ATOM     14  N   UNL     1       0.108  -1.963   0.710  0.00  0.00    -0.176 NA
ATOM     15  C   UNL     1       0.474  -0.121   2.442  0.00  0.00    +0.172 C 
ATOM     16  C   UNL     1       0.624   1.592  -0.137  0.00  0.00    +0.065 C 
ENDBRANCH   7  11
ENDBRANCH   1   7
BRANCH   4  17
ATOM     17  C   UNL     1      -2.535   2.473  -5.425  0.00  0.00    +0.110 C 
BRANCH  17  18
ATOM     18  C   UNL     1      -3.350   3.765  -5.348  0.00  0.00    +0.054 C 
BRANCH  18  19
ATOM     19  C   UNL     1      -3.968   4.051  -6.692  0.00  0.00    -0.041 A 
ATOM     20  C   UNL     1      -3.279   4.806  -7.622  0.00  0.00    +0.053 A 
ATOM     21  C   UNL     1      -3.845   5.070  -8.861  0.00  0.00    +0.164 A 
ATOM     22  C   UNL     1      -5.105   4.571  -9.165  0.00  0.00    +0.180 A 
ATOM     23  C   UNL     1      -5.793   3.814  -8.227  0.00  0.00    +0.086 A 
ATOM     24  C   UNL     1      -5.221   3.551  -6.995  0.00  0.00    +0.027 A 
ATOM     25 CL   UNL     1      -7.370   3.193  -8.602  0.00  0.00    -0.080 Cl
ATOM     26  O   UNL     1      -5.676   4.811 -10.378  0.00  0.00    -0.483 OA
ATOM     27  C   UNL     1      -5.119   5.881 -11.150  0.00  0.00    +0.270 C 
ATOM     28  C   UNL     1      -3.590   5.746 -11.126  0.00  0.00    +0.270 C 
ATOM     29  O   UNL     1      -3.155   5.819  -9.764  0.00  0.00    -0.485 OA
ENDBRANCH  18  19
ENDBRANCH  17  18
ENDBRANCH   4  17
TORSDOF 5
