REMARK  Name = ZINC20609275
REMARK  9 active torsions:
REMARK  status: ('A' for Active; 'I' for Inactive)
REMARK    1  A    between atoms: C_1  and  C_2
REMARK    2  A    between atoms: C_2  and  O_3
REMARK    3  A    between atoms: O_3  and  C_4
REMARK    4  A    between atoms: C_4  and  C_6
REMARK    5  A    between atoms: C_7  and  N_31
REMARK    6  A    between atoms: N_8  and  C_28
REMARK    7  A    between atoms: C_19  and  C_23
REMARK    8  A    between atoms: C_19  and  C_24
REMARK    9  A    between atoms: C_28  and  C_29
REMARK                            x       y       z     vdW  Elec       q    Type
REMARK                         _______ _______ _______ _____ _____    ______ ____
ROOT
ATOM      1  C   UNL     1      -2.500   1.423   2.857  0.00  0.00    +0.098 C 
ATOM      2  C   UNL     1      -1.830   0.805   1.831  0.00  0.00    +0.101 C 
ATOM      3  N   UNL     1      -0.925   1.498   1.070  0.00  0.00    -0.276 N 
ATOM      4  C   UNL     1      -0.387   2.699   1.539  0.00  0.00    +0.041 A 
ATOM      5  C   UNL     1       0.775   3.204   0.971  0.00  0.00    +0.024 A 
ATOM      6  C   UNL     1       1.309   4.392   1.430  0.00  0.00    +0.002 A 
ATOM      7  C   UNL     1       0.682   5.080   2.453  0.00  0.00    +0.000 A 
ATOM      8  C   UNL     1      -0.478   4.584   3.016  0.00  0.00    +0.007 A 
ATOM      9  C   UNL     1      -1.020   3.395   2.561  0.00  0.00    +0.000 A 
ATOM     10  C   UNL     1      -2.281   2.869   3.182  0.00  0.00    +0.160 C 
ATOM     11  C   UNL     1      -3.464   3.695   2.765  0.00  0.00    +0.059 C 
ATOM     12  C   UNL     1      -3.970   4.243   3.900  0.00  0.00    +0.118 C 
ATOM     13  C   UNL     1      -5.189   5.143   3.865  0.00  0.00    +0.081 C 
ATOM     14  C   UNL     1      -6.037   4.753   2.650  0.00  0.00    -0.021 C 
ATOM     15  C   UNL     1      -5.201   4.832   1.371  0.00  0.00    +0.086 C 
ATOM     16  C   UNL     1      -4.005   3.911   1.487  0.00  0.00    +0.165 C 
ATOM     17  O   UNL     1      -3.530   3.376   0.506  0.00  0.00    -0.292 OA
ATOM     18  C   UNL     1      -6.552   3.323   2.829  0.00  0.00    +0.012 C 
ATOM     19  C   UNL     1      -7.226   5.709   2.533  0.00  0.00    +0.012 C 
ATOM     20  O   UNL     1      -3.267   3.882   4.978  0.00  0.00    -0.429 OA
ATOM     21  C   UNL     1      -2.239   3.065   4.685  0.00  0.00    +0.332 C 
ATOM     22  O   UNL     1      -1.446   2.587   5.460  0.00  0.00    -0.249 OA
ENDROOT
BRANCH   2  23
ATOM     23  N   UNL     1      -2.069  -0.518   1.563  0.00  0.00    -0.346 N 
ATOM     24  H   UNL     1      -1.535  -1.018   0.742  0.00  0.00    +0.143 HD
ATOM     25  H   UNL     1      -2.794  -1.079   2.171  0.00  0.00    +0.143 HD
ENDBRANCH   2  23
BRANCH   1  26
ATOM     26  C   UNL     1      -3.411   0.682   3.620  0.00  0.00    +0.340 C 
ATOM     27  O   UNL     1      -3.517  -0.519   3.445  0.00  0.00    -0.245 OA
BRANCH  26  28
ATOM     28  O   UNL     1      -4.173   1.300   4.549  0.00  0.00    -0.462 OA
BRANCH  28  30
ATOM     29  C   UNL     1      -5.851   1.351   6.288  0.00  0.00    +0.048 C 
ATOM     30  C   UNL     1      -5.081   0.482   5.291  0.00  0.00    +0.229 C 
ENDBRANCH  28  30
ENDBRANCH  26  28
ENDBRANCH   1  26
BRANCH   3  31
ATOM     31  C   UNL     1      -0.515   0.974  -0.235  0.00  0.00    +0.200 C 
BRANCH  31  32
ATOM     32  C   UNL     1      -1.416   1.492  -1.277  0.00  0.00    -0.086 C 
ATOM     33  C   UNL     1      -2.135   1.906  -2.108  0.00  0.00    +0.005 C 
ENDBRANCH  31  32
ENDBRANCH   3  31
TORSDOF 6
