REMARK  Name = ZINC64622879
REMARK  6 active torsions:
REMARK  status: ('A' for Active; 'I' for Inactive)
REMARK    1  A    between atoms: C_1  and  C_2
REMARK    2  A    between atoms: C_5  and  C_8
REMARK    3  A    between atoms: N_25  and  C_26
REMARK    4  A    between atoms: C_31  and  C_32
REMARK    5  A    between atoms: C_32  and  O_34
REMARK    6  A    between atoms: O_34  and  C_35
REMARK                            x       y       z     vdW  Elec       q    Type
REMARK                         _______ _______ _______ _____ _____    ______ ____
ROOT
ATOM      1  C   UNL     1       0.085  -4.280  -0.002  0.00  0.00    +0.134 C 
ATOM      2  C   UNL     1       1.521  -4.793   0.150  0.00  0.00    +0.131 C 
ATOM      3  C   UNL     1       1.422  -6.290   0.415  0.00  0.00    -0.035 C 
ATOM      4  C   UNL     1       2.151  -6.886  -0.521  0.00  0.00    -0.001 A 
ATOM      5  C   UNL     1       2.492  -8.300  -0.745  0.00  0.00    +0.010 A 
ATOM      6  C   UNL     1       3.267  -8.565  -1.829  0.00  0.00    +0.001 A 
ATOM      7  C   UNL     1       3.732  -7.577  -2.702  0.00  0.00    +0.002 A 
ATOM      8  C   UNL     1       3.471  -6.252  -2.571  0.00  0.00    +0.026 A 
ATOM      9  C   UNL     1       2.669  -5.848  -1.464  0.00  0.00    +0.043 A 
ATOM     10  N   UNL     1       2.288  -4.641  -1.088  0.00  0.00    -0.375 N 
ATOM     11  C   UNL     1       0.560  -6.863   1.514  0.00  0.00    +0.052 C 
ATOM     12  C   UNL     1      -0.837  -6.237   1.353  0.00  0.00    +0.114 C 
ATOM     13  N   UNL     1      -0.702  -4.793   1.130  0.00  0.00    -0.276 N 
ATOM     14  C   UNL     1      -1.302  -3.929   1.973  0.00  0.00    +0.307 C 
ATOM     15  O   UNL     1      -1.288  -2.738   1.732  0.00  0.00    -0.252 OA
ATOM     16  N   UNL     1      -1.916  -4.386   3.082  0.00  0.00    -0.269 N 
ATOM     17  H   UNL     1      -1.868  -5.327   3.310  0.00  0.00    +0.156 HD
ATOM     18  H   UNL     1       2.471  -3.803  -1.542  0.00  0.00    +0.160 HD
ENDROOT
BRANCH   1  23
ATOM     19  C   UNL     1       0.059   1.498   0.055  0.00  0.00    +0.044 C 
ATOM     20  C   UNL     1       0.065  -0.009   0.040  0.00  0.00    -0.050 A 
ATOM     21  C   UNL     1       0.975  -0.703   0.816  0.00  0.00    +0.004 A 
ATOM     22  C   UNL     1       0.981  -2.086   0.802  0.00  0.00    +0.006 A 
ATOM     23  C   UNL     1       0.077  -2.773   0.013  0.00  0.00    -0.025 A 
ATOM     24  C   UNL     1      -0.832  -2.078  -0.761  0.00  0.00    +0.006 A 
ATOM     25  C   UNL     1      -0.841  -0.696  -0.745  0.00  0.00    +0.004 A 
ENDBRANCH   1  23
BRANCH  16  26
ATOM     26  C   UNL     1      -2.621  -3.506   3.899  0.00  0.00    +0.049 A 
ATOM     27  C   UNL     1      -2.169  -2.206   4.078  0.00  0.00    +0.024 A 
ATOM     28  C   UNL     1      -2.869  -1.336   4.889  0.00  0.00    +0.002 A 
ATOM     29  C   UNL     1      -4.025  -1.750   5.530  0.00  0.00    +0.001 A 
ATOM     30  C   UNL     1      -4.490  -3.037   5.365  0.00  0.00    +0.017 A 
ATOM     31  C   UNL     1      -3.795  -3.928   4.542  0.00  0.00    +0.080 A 
BRANCH  31  32
ATOM     32  C   UNL     1      -4.289  -5.304   4.356  0.00  0.00    +0.341 C 
ATOM     33  O   UNL     1      -3.634  -6.103   3.716  0.00  0.00    -0.245 OA
BRANCH  32  34
ATOM     34  O   UNL     1      -5.467  -5.675   4.894  0.00  0.00    -0.464 OA
ATOM     35  C   UNL     1      -5.885  -7.024   4.673  0.00  0.00    +0.280 C 
ENDBRANCH  32  34
ENDBRANCH  31  32
ENDBRANCH  16  26
TORSDOF 4
