REMARK  Name = ZINC05618231
REMARK  4 active torsions:
REMARK  status: ('A' for Active; 'I' for Inactive)
REMARK    1  A    between atoms: C_1  and  C_2
REMARK    2  A    between atoms: C_7  and  N_8
REMARK    3  A    between atoms: N_8  and  S_9
REMARK    4  A    between atoms: S_9  and  C_12
REMARK                            x       y       z     vdW  Elec       q    Type
REMARK                         _______ _______ _______ _____ _____    ______ ____
ROOT
ATOM      1  S   UNL     1       2.768   4.098  -0.037  0.00  0.00    +0.074 S 
ATOM      2  O   UNL     1       2.369   5.451   0.132  0.00  0.00    -0.150 OA
ATOM      3  O   UNL     1       1.862   3.082  -0.448  0.00  0.00    -0.150 OA
ENDROOT
BRANCH   1   4
ATOM      4  C   UNL     1       4.083   4.104  -1.210  0.00  0.00    +0.128 A 
ATOM      5  C   UNL     1       4.043   3.252  -2.298  0.00  0.00    +0.050 A 
ATOM      6  C   UNL     1       5.076   3.257  -3.218  0.00  0.00    +0.043 A 
ATOM      7  C   UNL     1       6.147   4.118  -3.052  0.00  0.00    +0.021 A 
ATOM      8  C   UNL     1       6.189   4.965  -1.961  0.00  0.00    +0.023 A 
ATOM      9  C   UNL     1       5.156   4.960  -1.041  0.00  0.00    +0.068 A 
ATOM     10 CL   UNL     1       5.206   6.029   0.326  0.00  0.00    -0.082 Cl
ATOM     11 CL   UNL     1       5.026   2.187  -4.584  0.00  0.00    -0.083 Cl
ENDBRANCH   1   4
BRANCH   1  12
ATOM     12  N   UNL     1       3.404   3.607   1.410  0.00  0.00    -0.216 N 
ATOM     13  H   UNL     1       3.463   4.231   2.151  0.00  0.00    +0.174 HD
BRANCH  12  20
ATOM     14  C   UNL     1       3.028   2.347   3.933  0.00  0.00    +0.046 C 
ATOM     15  C   UNL     1       3.693   1.641   2.780  0.00  0.00    -0.028 A 
ATOM     16  C   UNL     1       4.141   0.343   2.930  0.00  0.00    +0.006 A 
ATOM     17  C   UNL     1       4.751  -0.306   1.873  0.00  0.00    +0.020 A 
ATOM     18  C   UNL     1       4.915   0.341   0.661  0.00  0.00    +0.043 A 
ATOM     19  C   UNL     1       4.465   1.638   0.503  0.00  0.00    +0.044 A 
ATOM     20  C   UNL     1       3.857   2.295   1.565  0.00  0.00    +0.052 A 
ATOM     21 CL   UNL     1       5.681  -0.479  -0.664  0.00  0.00    -0.083 Cl
ENDBRANCH  12  20
ENDBRANCH   1  12
TORSDOF 3
