REMARK  Name = ZINC32818918
REMARK  5 active torsions:
REMARK  status: ('A' for Active; 'I' for Inactive)
REMARK    1  A    between atoms: C_1  and  C_2
REMARK    2  A    between atoms: C_2  and  C_9
REMARK    3  A    between atoms: C_12  and  N_15
REMARK    4  A    between atoms: N_15  and  S_16
REMARK    5  A    between atoms: S_16  and  C_19
REMARK                            x       y       z     vdW  Elec       q    Type
REMARK                         _______ _______ _______ _____ _____    ______ ____
ROOT
ATOM      1  C   UNL     1       3.377   3.049  -1.011  0.00  0.00    -0.015 A 
ATOM      2  C   UNL     1       3.386   2.175   0.060  0.00  0.00    +0.008 A 
ATOM      3  C   UNL     1       2.243   1.473   0.389  0.00  0.00    +0.025 A 
ATOM      4  C   UNL     1       1.084   1.646  -0.356  0.00  0.00    +0.048 A 
ATOM      5  C   UNL     1       1.080   2.522  -1.435  0.00  0.00    +0.025 A 
ATOM      6  C   UNL     1       2.225   3.224  -1.756  0.00  0.00    +0.008 A 
ENDROOT
BRANCH   1   8
ATOM      7  C   UNL     1       5.110   4.638  -0.174  0.00  0.00    +0.047 C 
ATOM      8  C   UNL     1       4.626   3.813  -1.368  0.00  0.00    +0.135 C 
ATOM      9  C   UNL     1       5.712   2.867  -1.842  0.00  0.00    +0.248 C 
ATOM     10  O   UNL     1       6.231   1.972  -1.210  0.00  0.00    -0.273 OA
ATOM     11  N   UNL     1       5.982   3.230  -3.112  0.00  0.00    -0.238 N 
ATOM     12  C   UNL     1       5.226   4.262  -3.502  0.00  0.00    +0.307 C 
ATOM     13  O   UNL     1       5.288   4.766  -4.606  0.00  0.00    -0.252 OA
ATOM     14  N   UNL     1       4.388   4.679  -2.535  0.00  0.00    -0.282 N 
ATOM     15  H   UNL     1       6.748   2.689  -3.687  0.00  0.00    +0.159 HD
ATOM     16  H   UNL     1       3.635   5.479  -2.482  0.00  0.00    +0.152 HD
ENDBRANCH   1   8
BRANCH   4  17
ATOM     17  N   UNL     1      -0.073   0.938  -0.026  0.00  0.00    -0.216 N 
ATOM     18  H   UNL     1      -0.394   0.088  -0.647  0.00  0.00    +0.174 HD
BRANCH  17  19
ATOM     19  S   UNL     1      -0.963   1.377   1.300  0.00  0.00    +0.072 S 
ATOM     20  O   UNL     1      -2.093   0.516   1.334  0.00  0.00    -0.150 OA
ATOM     21  O   UNL     1      -0.051   1.479   2.385  0.00  0.00    -0.150 OA
BRANCH  19  22
ATOM     22  C   UNL     1      -1.576   3.002   1.002  0.00  0.00    +0.110 A 
ATOM     23  C   UNL     1      -2.818   3.175   0.421  0.00  0.00    +0.030 A 
ATOM     24  C   UNL     1      -3.300   4.449   0.187  0.00  0.00    +0.023 A 
ATOM     25  C   UNL     1      -2.539   5.551   0.533  0.00  0.00    +0.059 A 
ATOM     26  C   UNL     1      -1.294   5.377   1.114  0.00  0.00    +0.061 A 
ATOM     27  C   UNL     1      -0.816   4.101   1.353  0.00  0.00    +0.050 A 
ATOM     28 CL   UNL     1      -0.338   6.759   1.548  0.00  0.00    -0.082 Cl
ATOM     29 CL   UNL     1      -3.143   7.152   0.238  0.00  0.00    -0.082 Cl
ENDBRANCH  19  22
ENDBRANCH  17  19
ENDBRANCH   4  17
TORSDOF 4
