REMARK  Name = ZINC12193295
REMARK  4 active torsions:
REMARK  status: ('A' for Active; 'I' for Inactive)
REMARK    1  A    between atoms: C_1  and  C_2
REMARK    2  A    between atoms: C_2  and  C_20
REMARK    3  A    between atoms: N_8  and  S_9
REMARK    4  A    between atoms: S_9  and  C_12
REMARK                            x       y       z     vdW  Elec       q    Type
REMARK                         _______ _______ _______ _____ _____    ______ ____
ROOT
ATOM      1  S   UNL     1      -1.555   2.237   0.022  0.00  0.00    +0.062 S 
ATOM      2  O   UNL     1      -1.304   3.526  -0.523  0.00  0.00    -0.153 OA
ATOM      3  O   UNL     1      -2.519   1.352  -0.529  0.00  0.00    -0.153 OA
ENDROOT
BRANCH   1  11
ATOM      4  C   UNL     1      -3.419   0.497   1.336  0.00  0.00    +0.041 C 
ATOM      5  C   UNL     1      -2.788   1.475   2.330  0.00  0.00    +0.134 C 
ATOM      6  C   UNL     1      -3.872   2.222   3.071  0.00  0.00    +0.329 C 
ATOM      7  O   UNL     1      -5.014   1.826   3.073  0.00  0.00    -0.249 OA
ATOM      8  O   UNL     1      -3.524   3.349   3.729  0.00  0.00    -0.462 OA
ATOM      9  C   UNL     1      -2.791   4.336   2.950  0.00  0.00    +0.249 C 
ATOM     10  C   UNL     1      -1.552   3.674   2.337  0.00  0.00    +0.151 C 
ATOM     11  N   UNL     1      -1.975   2.468   1.607  0.00  0.00    -0.157 NA
ATOM     12  C   UNL     1      -1.913   0.712   3.327  0.00  0.00    +0.041 C 
ENDBRANCH   1  11
BRANCH   1  13
ATOM     13  C   UNL     1      -0.017   1.378   0.010  0.00  0.00    +0.107 A 
ATOM     14  C   UNL     1       1.171   2.086   0.002  0.00  0.00    +0.030 A 
ATOM     15  C   UNL     1       2.378   1.413  -0.013  0.00  0.00    +0.023 A 
ATOM     16  C   UNL     1       2.398   0.030  -0.021  0.00  0.00    +0.059 A 
ATOM     17  C   UNL     1       1.209  -0.679  -0.013  0.00  0.00    +0.061 A 
ATOM     18  C   UNL     1       0.002  -0.004   0.002  0.00  0.00    +0.050 A 
ATOM     19 CL   UNL     1       1.234  -2.415  -0.022  0.00  0.00    -0.082 Cl
ATOM     20 CL   UNL     1       3.914  -0.816  -0.039  0.00  0.00    -0.082 Cl
ENDBRANCH   1  13
TORSDOF 2
