REMARK  Name = ZINC12754523
REMARK  7 active torsions:
REMARK  status: ('A' for Active; 'I' for Inactive)
REMARK    1  A    between atoms: C_1  and  C_2
REMARK    2  A    between atoms: C_2  and  C_3
REMARK    3  A    between atoms: C_2  and  C_4
REMARK    4  A    between atoms: C_4  and  C_6
REMARK    5  A    between atoms: C_4  and  N_20
REMARK    6  A    between atoms: C_14  and  N_17
REMARK    7  A    between atoms: C_21  and  C_23
REMARK                            x       y       z     vdW  Elec       q    Type
REMARK                         _______ _______ _______ _____ _____    ______ ____
ROOT
ATOM      1  C   UNL     1       0.026   1.088   2.483  0.00  0.00    +0.162 C 
ENDROOT
BRANCH   1   2
ATOM      2  C   UNL     1      -0.583   1.676   3.729  0.00  0.00    +0.240 C 
ATOM      3  O   UNL     1      -1.717   1.383   4.046  0.00  0.00    -0.273 OA
ATOM      4  N   UNL     1       0.131   2.527   4.492  0.00  0.00    -0.269 N 
ATOM      5  C   UNL     1       1.539   2.869   4.276  0.00  0.00    +0.118 C 
ATOM      6  C   UNL     1       1.889   3.864   5.394  0.00  0.00    +0.056 C 
ATOM      7  C   UNL     1       0.608   4.014   6.184  0.00  0.00    -0.024 A 
ATOM      8  C   UNL     1      -0.365   3.218   5.602  0.00  0.00    +0.042 A 
ATOM      9  C   UNL     1      -1.642   3.186   6.166  0.00  0.00    +0.056 A 
ATOM     10  C   UNL     1      -1.929   3.946   7.280  0.00  0.00    +0.128 A 
ATOM     11  C   UNL     1      -0.952   4.742   7.850  0.00  0.00    +0.033 A 
ATOM     12  C   UNL     1       0.316   4.775   7.300  0.00  0.00    +0.008 A 
BRANCH  10  13
ATOM     13  N   UNL     1      -3.287   3.911   7.867  0.00  0.00    +0.056 N 
ATOM     14  O   UNL     1      -3.542   4.582   8.851  0.00  0.00    -0.126 OA
ATOM     15  O   UNL     1      -4.148   3.210   7.367  0.00  0.00    -0.126 OA
ENDBRANCH  10  13
ENDBRANCH   1   2
BRANCH   1  16
ATOM     16  N   UNL     1      -0.436  -0.292   2.317  0.00  0.00    -0.300 N 
ATOM     17  C   UNL     1       0.307  -1.173   1.619  0.00  0.00    +0.247 C 
ATOM     18  O   UNL     1       1.362  -0.823   1.127  0.00  0.00    -0.270 OA
ATOM     19  H   UNL     1      -1.278  -0.572   2.709  0.00  0.00    +0.150 HD
BRANCH  17  20
ATOM     20  C   UNL     1      -0.159  -2.564   1.452  0.00  0.00    +0.072 A 
ATOM     21  C   UNL     1      -1.368  -2.972   2.020  0.00  0.00    +0.016 A 
ATOM     22  C   UNL     1      -1.800  -4.271   1.856  0.00  0.00    +0.001 A 
ATOM     23  C   UNL     1      -1.035  -5.175   1.139  0.00  0.00    +0.003 A 
ATOM     24  C   UNL     1       0.165  -4.782   0.577  0.00  0.00    +0.039 A 
ATOM     25  C   UNL     1       0.610  -3.481   0.728  0.00  0.00    +0.135 A 
ATOM     26  F   UNL     1       1.783  -3.098   0.180  0.00  0.00    -0.205 F 
ENDBRANCH  17  20
ENDBRANCH   1  16
BRANCH   1  28
ATOM     27  C   UNL     1       0.309   1.387   0.018  0.00  0.00    +0.009 C 
ATOM     28  C   UNL     1      -0.396   1.917   1.268  0.00  0.00    +0.012 C 
ATOM     29  C   UNL     1      -0.009   3.381   1.490  0.00  0.00    +0.009 C 
ENDBRANCH   1  28
TORSDOF 5
