REMARK  Name = ZINC62782471
REMARK  3 active torsions:
REMARK  status: ('A' for Active; 'I' for Inactive)
REMARK    1  A    between atoms: C_1  and  C_2
REMARK    2  A    between atoms: C_8  and  C_10
REMARK    3  A    between atoms: C_10  and  C_15
REMARK                            x       y       z     vdW  Elec       q    Type
REMARK                         _______ _______ _______ _____ _____    ______ ____
ROOT
ATOM      1  C   UNL     1       0.052  -2.695   2.509  0.00  0.00    +0.053 C 
ATOM      2  C   UNL     1       1.286  -3.542   2.881  0.00  0.00    +0.019 C 
ATOM      3  C   UNL     1       2.235  -2.543   3.586  0.00  0.00    +0.001 C 
ATOM      4  C   UNL     1       1.258  -1.660   4.402  0.00  0.00    +0.001 C 
ATOM      5  C   UNL     1       0.034  -1.498   3.477  0.00  0.00    +0.019 C 
ENDROOT
BRANCH   1  13
ATOM      6  C   UNL     1       0.152   1.042  -0.637  0.00  0.00    +0.066 C 
ATOM      7  C   UNL     1       0.215  -0.445  -0.396  0.00  0.00    +0.045 A 
ATOM      8  C   UNL     1       0.373  -1.300  -1.444  0.00  0.00    +0.093 A 
ATOM      9  C   UNL     1       0.429  -2.684  -1.183  0.00  0.00    +0.252 A 
ATOM     10  O   UNL     1       0.570  -3.484  -2.093  0.00  0.00    -0.268 OA
ATOM     11  N   UNL     1       0.323  -3.106   0.095  0.00  0.00    -0.310 N 
ATOM     12  H   UNL     1       0.359  -4.053   0.299  0.00  0.00    +0.170 HD
ATOM     13  C   UNL     1       0.168  -2.208   1.088  0.00  0.00    +0.120 A 
ATOM     14  N   UNL     1       0.122  -0.925   0.847  0.00  0.00    -0.238 NA
ENDBRANCH   1  13
BRANCH   1  15
ATOM     15  C   UNL     1      -1.205  -3.510   2.674  0.00  0.00    -0.034 A 
ATOM     16  C   UNL     1      -2.107  -3.608   1.631  0.00  0.00    +0.004 A 
ATOM     17  C   UNL     1      -3.259  -4.357   1.782  0.00  0.00    +0.000 A 
ATOM     18  C   UNL     1      -3.509  -5.007   2.976  0.00  0.00    +0.000 A 
ATOM     19  C   UNL     1      -2.607  -4.910   4.018  0.00  0.00    +0.000 A 
ATOM     20  C   UNL     1      -1.452  -4.165   3.866  0.00  0.00    +0.004 A 
ENDBRANCH   1  15
TORSDOF 2
