REMARK  Name = ZINC36389851
REMARK  4 active torsions:
REMARK  status: ('A' for Active; 'I' for Inactive)
REMARK    1  A    between atoms: N_11  and  C_17
REMARK    2  A    between atoms: C_13  and  O_16
REMARK    3  A    between atoms: C_17  and  C_18
REMARK    4  A    between atoms: C_22  and  C_31
REMARK                            x       y       z     vdW  Elec       q    Type
REMARK                         _______ _______ _______ _____ _____    ______ ____
ROOT
ATOM      1  C   UNL     1       4.814   1.051   1.765  0.00  0.00    +0.201 C 
ENDROOT
BRANCH   1  12
ATOM      2  C   UNL     1       0.025   1.365  -0.051  0.00  0.00    +0.001 A 
ATOM      3  C   UNL     1       1.216   2.085  -0.044  0.00  0.00    +0.001 A 
ATOM      4  C   UNL     1       2.421   1.450  -0.000  0.00  0.00    +0.010 A 
ATOM      5  C   UNL     1       2.480   0.053   0.095  0.00  0.00    +0.003 A 
ATOM      6  C   UNL     1       1.269  -0.677  -0.051  0.00  0.00    -0.016 A 
ATOM      7  C   UNL     1       0.040   0.004  -0.057  0.00  0.00    +0.008 A 
ATOM      8  C   UNL     1       1.324  -2.069  -0.225  0.00  0.00    +0.009 A 
ATOM      9  C   UNL     1       2.520  -2.710  -0.175  0.00  0.00    +0.006 A 
ATOM     10  C   UNL     1       3.704  -2.023   0.109  0.00  0.00    -0.023 A 
ATOM     11  C   UNL     1       3.674  -0.658   0.322  0.00  0.00    +0.041 A 
ATOM     12  N   UNL     1       4.830  -0.045   0.798  0.00  0.00    -0.318 N 
ATOM     13  C   UNL     1       6.117  -0.598   0.338  0.00  0.00    +0.137 C 
ATOM     14  C   UNL     1       6.135  -2.065   0.789  0.00  0.00    +0.136 C 
ATOM     15  C   UNL     1       4.982  -2.816   0.135  0.00  0.00    +0.070 C 
BRANCH  14  16
ATOM     16  O   UNL     1       7.377  -2.663   0.407  0.00  0.00    -0.390 OA
ATOM     17  H   UNL     1       7.460  -3.593   0.660  0.00  0.00    +0.210 HD
ENDBRANCH  14  16
ENDBRANCH   1  12
BRANCH   1  18
ATOM     18  C   UNL     1       4.869   0.488   3.162  0.00  0.00    +0.237 C 
ATOM     19  O   UNL     1       4.814  -0.711   3.336  0.00  0.00    -0.274 OA
ATOM     20  N   UNL     1       4.978   1.318   4.218  0.00  0.00    -0.263 N 
ATOM     21  C   UNL     1       4.912   2.780   4.049  0.00  0.00    +0.168 C 
ATOM     22  C   UNL     1       4.053   3.341   5.192  0.00  0.00    +0.276 C 
ATOM     23  O   UNL     1       4.644   2.967   6.439  0.00  0.00    -0.476 OA
ATOM     24  C   UNL     1       4.982   1.663   6.614  0.00  0.00    +0.143 A 
ATOM     25  C   UNL     1       5.151   0.819   5.521  0.00  0.00    +0.078 A 
ATOM     26  C   UNL     1       5.495  -0.509   5.715  0.00  0.00    +0.027 A 
ATOM     27  C   UNL     1       5.662  -0.997   6.998  0.00  0.00    +0.002 A 
ATOM     28  C   UNL     1       5.487  -0.160   8.085  0.00  0.00    +0.004 A 
ATOM     29  C   UNL     1       5.156   1.165   7.896  0.00  0.00    +0.047 A 
BRANCH  22  30
ATOM     30  C   UNL     1       3.994   4.843   5.088  0.00  0.00    +0.253 C 
ATOM     31  O   UNL     1       4.487   5.531   5.956  0.00  0.00    -0.272 OA
ATOM     32  N   UNL     1       3.392   5.422   4.030  0.00  0.00    -0.326 N 
ATOM     33  H   UNL     1       2.998   4.872   3.335  0.00  0.00    +0.145 HD
ATOM     34  H   UNL     1       3.354   6.389   3.963  0.00  0.00    +0.145 HD
ENDBRANCH  22  30
ENDBRANCH   1  18
TORSDOF 4
