REMARK  Name = ZINC22582826
REMARK  10 active torsions:
REMARK  status: ('A' for Active; 'I' for Inactive)
REMARK    1  A    between atoms: C_1  and  C_2
REMARK    2  A    between atoms: C_5  and  C_8
REMARK    3  A    between atoms: C_8  and  C_10
REMARK    4  A    between atoms: C_8  and  N_25
REMARK    5  A    between atoms: C_10  and  N_11
REMARK    6  A    between atoms: C_12  and  C_14
REMARK    7  A    between atoms: N_16  and  C_17
REMARK    8  A    between atoms: C_19  and  C_24
REMARK    9  A    between atoms: C_22  and  C_23
REMARK   10  A    between atoms: N_28  and  C_31
REMARK                            x       y       z     vdW  Elec       q    Type
REMARK                         _______ _______ _______ _____ _____    ______ ____
ROOT
ATOM      1  C   UNL     1      -0.581   3.199  -3.641  0.00  0.00    +0.128 C 
ENDROOT
BRANCH   1   2
ATOM      2  N   UNL     1      -1.223   3.731  -4.845  0.00  0.00    -0.306 N 
ATOM      3  C   UNL     1      -0.601   3.640  -6.037  0.00  0.00    +0.299 C 
ATOM      4  O   UNL     1       0.491   3.117  -6.113  0.00  0.00    -0.265 OA
ATOM      5  H   UNL     1      -2.213   4.206  -4.776  0.00  0.00    +0.149 HD
BRANCH   3   6
ATOM      6  C   UNL     1      -1.256   4.183  -7.265  0.00  0.00    +0.303 C 
ATOM      7  O   UNL     1      -2.349   4.706  -7.189  0.00  0.00    -0.265 OA
ATOM      8  N   UNL     1      -0.634   4.091  -8.457  0.00  0.00    -0.278 N 
ATOM      9  H   UNL     1       0.390   3.693  -8.514  0.00  0.00    +0.155 HD
BRANCH   8  10
ATOM     10  C   UNL     1      -1.290   4.502  -9.620  0.00  0.00    +0.037 A 
ATOM     11  C   UNL     1      -2.676   4.595  -9.642  0.00  0.00    +0.027 A 
ATOM     12  C   UNL     1      -3.321   5.005 -10.793  0.00  0.00    -0.049 A 
ATOM     13  C   UNL     1      -2.589   5.314 -11.925  0.00  0.00    +0.004 A 
ATOM     14  C   UNL     1      -1.210   5.217 -11.908  0.00  0.00    +0.005 A 
ATOM     15  C   UNL     1      -0.558   4.812 -10.759  0.00  0.00    -0.029 A 
ATOM     16  C   UNL     1       0.945   4.708 -10.742  0.00  0.00    +0.045 C 
ATOM     17  C   UNL     1      -4.824   5.111 -10.816  0.00  0.00    +0.044 C 
ENDBRANCH   8  10
ENDBRANCH   3   6
ENDBRANCH   1   2
BRANCH   1  18
ATOM     18  C   UNL     1      -1.536   3.330  -2.453  0.00  0.00    +0.104 C 
BRANCH  18  19
ATOM     19  N   UNL     1      -0.923   2.726  -1.262  0.00  0.00    -0.297 NA
ATOM     20  C   UNL     1      -0.670   1.293  -1.470  0.00  0.00    +0.066 C 
ATOM     21  C   UNL     1       0.040   0.719  -0.242  0.00  0.00    -0.064 C 
ATOM     22  N   UNL     1      -0.794   0.937   0.949  0.00  0.00    +0.379 N 
ATOM     23  C   UNL     1      -1.047   2.369   1.156  0.00  0.00    -0.064 C 
ATOM     24  C   UNL     1      -1.757   2.943  -0.072  0.00  0.00    +0.066 C 
ATOM     25  C   UNL     1      -0.180   0.332   2.139  0.00  0.00    -0.096 C 
ATOM     26  H   UNL     1      -1.762   0.441   0.781  0.00  0.00    -0.082 HD
ENDBRANCH  18  19
BRANCH  18  31
ATOM     27  C   UNL     1      -2.600   8.919  -1.442  0.00  0.00    +0.044 C 
ATOM     28  C   UNL     1      -2.322   7.462  -1.706  0.00  0.00    -0.050 A 
ATOM     29  C   UNL     1      -3.240   6.699  -2.404  0.00  0.00    +0.003 A 
ATOM     30  C   UNL     1      -2.985   5.362  -2.646  0.00  0.00    +0.005 A 
ATOM     31  C   UNL     1      -1.813   4.788  -2.189  0.00  0.00    -0.029 A 
ATOM     32  C   UNL     1      -0.898   5.550  -1.487  0.00  0.00    +0.005 A 
ATOM     33  C   UNL     1      -1.151   6.888  -1.250  0.00  0.00    +0.003 A 
ENDBRANCH  18  31
ENDBRANCH   1  18
TORSDOF 6
