REMARK  Name = ZINC64069780
REMARK  8 active torsions:
REMARK  status: ('A' for Active; 'I' for Inactive)
REMARK    1  A    between atoms: C_1  and  C_2
REMARK    2  A    between atoms: C_7  and  C_25
REMARK    3  A    between atoms: C_9  and  C_12
REMARK    4  A    between atoms: C_12  and  C_13
REMARK    5  A    between atoms: N_15  and  C_16
REMARK    6  A    between atoms: C_16  and  C_18
REMARK    7  A    between atoms: C_16  and  C_19
REMARK    8  A    between atoms: C_22  and  C_24
REMARK                            x       y       z     vdW  Elec       q    Type
REMARK                         _______ _______ _______ _____ _____    ______ ____
ROOT
ATOM      1  C   UNL     1       0.055  -2.799   3.641  0.00  0.00    +0.129 C 
ENDROOT
BRANCH   1   9
ATOM      2  C   UNL     1      -4.799  -3.339   0.841  0.00  0.00    +0.044 C 
ATOM      3  C   UNL     1      -3.315  -3.371   0.580  0.00  0.00    -0.050 A 
ATOM      4  C   UNL     1      -2.857  -3.597  -0.726  0.00  0.00    +0.005 A 
ATOM      5  C   UNL     1      -1.545  -3.640  -1.040  0.00  0.00    +0.026 A 
ATOM      6  C   UNL     1      -0.558  -3.453  -0.034  0.00  0.00    +0.043 A 
ATOM      7  N   UNL     1       0.752  -3.451  -0.086  0.00  0.00    -0.378 N 
ATOM      8  C   UNL     1       1.273  -3.208   1.264  0.00  0.00    +0.104 C 
ATOM      9  C   UNL     1       0.061  -3.061   2.156  0.00  0.00    -0.030 C 
ATOM     10  C   UNL     1      -1.016  -3.212   1.353  0.00  0.00    -0.000 A 
ATOM     11  C   UNL     1      -2.461  -3.175   1.609  0.00  0.00    +0.013 A 
ATOM     12  C   UNL     1       2.126  -4.393   1.722  0.00  0.00    +0.035 C 
ATOM     13  H   UNL     1       1.288  -3.587  -0.883  0.00  0.00    +0.160 HD
ENDBRANCH   1   9
BRANCH   1  14
ATOM     14  C   UNL     1       0.161  -1.317   3.890  0.00  0.00    +0.218 C 
ATOM     15  O   UNL     1       0.137  -0.542   2.957  0.00  0.00    -0.275 OA
ATOM     16  N   UNL     1       0.283  -0.853   5.149  0.00  0.00    -0.305 N 
ATOM     17  H   UNL     1       0.303  -1.472   5.895  0.00  0.00    +0.149 HD
BRANCH  16  18
ATOM     18  C   UNL     1       0.386   0.589   5.392  0.00  0.00    +0.136 C 
ATOM     19  C   UNL     1      -1.016   1.196   5.460  0.00  0.00    +0.036 C 
BRANCH  18  20
ATOM     20  C   UNL     1       1.101   0.829   6.696  0.00  0.00    +0.125 A 
ATOM     21  C   UNL     1       2.007   1.796   6.930  0.00  0.00    +0.047 A 
ATOM     22  C   UNL     1       2.418   1.654   8.276  0.00  0.00    +0.045 A 
ATOM     23  C   UNL     1       1.739   0.610   8.783  0.00  0.00    +0.102 A 
ATOM     24  O   UNL     1       0.939   0.117   7.824  0.00  0.00    -0.463 OA
ATOM     25  C   UNL     1       1.853   0.085  10.191  0.00  0.00    +0.086 C 
ENDBRANCH  18  20
ENDBRANCH  16  18
ENDBRANCH   1  14
TORSDOF 4
