REMARK  Name = ZINC36880184
REMARK  2 active torsions:
REMARK  status: ('A' for Active; 'I' for Inactive)
REMARK    1  A    between atoms: C_7  and  N_8
REMARK    2  A    between atoms: N_11  and  C_12
REMARK                            x       y       z     vdW  Elec       q    Type
REMARK                         _______ _______ _______ _____ _____    ______ ____
ROOT
ATOM      1  N   UNL     1      -1.369  -0.510   0.102  0.00  0.00    -0.297 N 
ATOM      2  C   UNL     1      -1.599  -1.738   0.608  0.00  0.00    +0.300 C 
ATOM      3  O   UNL     1      -0.669  -2.425   0.982  0.00  0.00    -0.253 OA
ATOM      4  N   UNL     1      -2.861  -2.204   0.700  0.00  0.00    -0.294 N 
ATOM      5  H   UNL     1      -2.111   0.038  -0.197  0.00  0.00    +0.151 HD
ATOM      6  H   UNL     1      -3.603  -1.655   0.401  0.00  0.00    +0.151 HD
ENDROOT
BRANCH   4   7
ATOM      7  C   UNL     1      -3.111  -3.538   1.250  0.00  0.00    +0.037 C 
ATOM      8  C   UNL     1      -2.587  -3.604   2.686  0.00  0.00    +0.029 C 
ATOM      9  C   UNL     1      -2.848  -4.998   3.261  0.00  0.00    -0.008 C 
ATOM     10  C   UNL     1      -4.352  -5.279   3.253  0.00  0.00    +0.007 C 
ATOM     11  C   UNL     1      -4.876  -5.213   1.817  0.00  0.00    -0.008 C 
ATOM     12  C   UNL     1      -4.614  -3.820   1.242  0.00  0.00    +0.029 C 
ATOM     13  C   UNL     1      -4.156  -6.260   0.963  0.00  0.00    +0.007 C 
ATOM     14  C   UNL     1      -2.652  -5.978   0.971  0.00  0.00    -0.008 C 
ATOM     15  C   UNL     1      -2.129  -6.044   2.407  0.00  0.00    +0.007 C 
ATOM     16  C   UNL     1      -2.391  -4.585   0.396  0.00  0.00    +0.029 C 
ENDBRANCH   4   7
BRANCH   1  23
ATOM     17  C   UNL     1      -0.019   1.525   0.010  0.00  0.00    +0.030 C 
ATOM     18  C   UNL     1       1.419   2.054  -0.001  0.00  0.00    +0.076 C 
ATOM     19  C   UNL     1       2.146   1.447  -1.180  0.00  0.00    +0.133 C 
ATOM     20  O   UNL     1       2.748   2.143  -1.962  0.00  0.00    -0.297 OA
ATOM     21  C   UNL     1       2.099  -0.055  -1.356  0.00  0.00    +0.076 C 
ATOM     22  C   UNL     1       0.637  -0.507  -1.296  0.00  0.00    +0.030 C 
ATOM     23  C   UNL     1       0.002  -0.004   0.002  0.00  0.00    +0.075 C 
ENDBRANCH   1  23
TORSDOF 2
