REMARK  Name = ZINC33732235
REMARK  5 active torsions:
REMARK  status: ('A' for Active; 'I' for Inactive)
REMARK    1  A    between atoms: C_1  and  C_2
REMARK    2  A    between atoms: C_7  and  C_9
REMARK    3  A    between atoms: C_7  and  C_10
REMARK    4  A    between atoms: N_11  and  S_13
REMARK    5  A    between atoms: S_13  and  C_16
REMARK                            x       y       z     vdW  Elec       q    Type
REMARK                         _______ _______ _______ _____ _____    ______ ____
ROOT
ATOM      1  C   UNL     1      -0.019   1.532   0.011  0.00  0.00    +0.012 C 
ATOM      2  C   UNL     1       0.002  -0.004   0.002  0.00  0.00    -0.016 C 
ATOM      3  C   UNL     1      -1.426  -0.615  -0.029  0.00  0.00    +0.028 C 
ATOM      4  C   UNL     1      -1.084  -2.048  -0.507  0.00  0.00    +0.081 C 
ATOM      5  C   UNL     1      -0.495  -2.791   0.691  0.00  0.00    +0.027 C 
ATOM      6  C   UNL     1       0.724  -2.107   1.283  0.00  0.00    -0.033 C 
ATOM      7  C   UNL     1       0.726  -0.591   1.212  0.00  0.00    +0.014 C 
ATOM      8  C   UNL     1       1.999  -2.669   0.639  0.00  0.00    +0.011 C 
ATOM      9  C   UNL     1       0.781  -2.494   2.782  0.00  0.00    +0.011 C 
ATOM     10  N   UNL     1      -0.028  -1.873  -1.524  0.00  0.00    -0.173 NA
ATOM     11  C   UNL     1       0.625  -0.576  -1.292  0.00  0.00    +0.116 C 
ENDROOT
BRANCH  10  12
ATOM     12  S   UNL     1       0.354  -2.950  -2.723  0.00  0.00    +0.061 S 
ATOM     13  O   UNL     1       1.703  -2.689  -3.088  0.00  0.00    -0.153 OA
ATOM     14  O   UNL     1      -0.081  -4.227  -2.276  0.00  0.00    -0.153 OA
BRANCH  12  15
ATOM     15  C   UNL     1      -0.634  -2.543  -4.124  0.00  0.00    +0.106 A 
ATOM     16  C   UNL     1      -1.881  -3.118  -4.280  0.00  0.00    +0.031 A 
ATOM     17  C   UNL     1      -2.658  -2.799  -5.378  0.00  0.00    +0.040 A 
ATOM     18  C   UNL     1      -2.186  -1.903  -6.322  0.00  0.00    +0.124 A 
ATOM     19  C   UNL     1      -0.936  -1.327  -6.165  0.00  0.00    +0.040 A 
ATOM     20  C   UNL     1      -0.164  -1.644  -5.063  0.00  0.00    +0.031 A 
ATOM     21  F   UNL     1      -2.944  -1.591  -7.396  0.00  0.00    -0.205 F 
ENDBRANCH  12  15
ENDBRANCH  10  12
TORSDOF 2
