REMARK  Name = ZINC16649330
REMARK  7 active torsions:
REMARK  status: ('A' for Active; 'I' for Inactive)
REMARK    1  A    between atoms: C_1  and  C_2
REMARK    2  A    between atoms: C_4  and  C_25
REMARK    3  A    between atoms: C_9  and  C_24
REMARK    4  A    between atoms: C_10  and  C_13
REMARK    5  A    between atoms: C_13  and  N_14
REMARK    6  A    between atoms: C_16  and  C_23
REMARK    7  A    between atoms: C_19  and  C_22
REMARK                            x       y       z     vdW  Elec       q    Type
REMARK                         _______ _______ _______ _____ _____    ______ ____
ROOT
ATOM      1  C   UNL     1      -6.271   3.030   1.851  0.00  0.00    +0.044 C 
ATOM      2  C   UNL     1      -4.816   2.791   2.159  0.00  0.00    -0.048 A 
ATOM      3  C   UNL     1      -4.349   2.983   3.457  0.00  0.00    +0.007 A 
ATOM      4  C   UNL     1      -3.038   2.775   3.766  0.00  0.00    -0.037 A 
ATOM      5  C   UNL     1      -2.147   2.362   2.765  0.00  0.00    +0.048 A 
ATOM      6  C   UNL     1      -2.619   2.165   1.444  0.00  0.00    +0.051 A 
ATOM      7  C   UNL     1      -3.978   2.390   1.164  0.00  0.00    +0.029 A 
ATOM      8  N   UNL     1      -1.772   1.777   0.485  0.00  0.00    -0.358 N 
ATOM      9  C   UNL     1      -0.502   1.559   0.734  0.00  0.00    +0.021 A 
ATOM     10  C   UNL     1       0.035   1.730   2.003  0.00  0.00    +0.033 A 
ATOM     11  C   UNL     1      -0.781   2.135   3.045  0.00  0.00    +0.194 A 
ATOM     12  O   UNL     1      -0.284   2.311   4.294  0.00  0.00    -0.287 OA
ATOM     13  C   UNL     1       0.399   1.117  -0.390  0.00  0.00    +0.064 C 
ATOM     14  C   UNL     1      -2.549   2.988   5.175  0.00  0.00    +0.044 C 
ATOM     15  H   UNL     1      -2.135   1.633  -0.544  0.00  0.00    +0.166 HD
ENDROOT
BRANCH  10  16
ATOM     16  C   UNL     1       1.500   1.475   2.245  0.00  0.00    +0.125 C 
BRANCH  16  17
ATOM     17  N   UNL     1       1.719   0.038   2.460  0.00  0.00    -0.293 NA
ATOM     18  C   UNL     1       1.208  -0.383   3.773  0.00  0.00    +0.116 C 
ATOM     19  C   UNL     1       1.402  -1.893   3.929  0.00  0.00    +0.130 C 
ATOM     20  O   UNL     1       2.785  -2.212   3.759  0.00  0.00    -0.371 OA
ATOM     21  C   UNL     1       3.315  -1.817   2.490  0.00  0.00    +0.130 C 
ATOM     22  C   UNL     1       3.141  -0.306   2.319  0.00  0.00    +0.116 C 
ATOM     23  C   UNL     1       4.802  -2.171   2.424  0.00  0.00    +0.039 C 
ATOM     24  C   UNL     1       0.946  -2.325   5.325  0.00  0.00    +0.039 C 
ENDBRANCH  16  17
ENDBRANCH  10  16
TORSDOF 2
