REMARK  Name = ZINC09169112
REMARK  8 active torsions:
REMARK  status: ('A' for Active; 'I' for Inactive)
REMARK    1  A    between atoms: C_1  and  C_2
REMARK    2  A    between atoms: C_2  and  O_3
REMARK    3  A    between atoms: O_3  and  C_4
REMARK    4  A    between atoms: C_7  and  S_11
REMARK    5  A    between atoms: S_11  and  N_14
REMARK    6  A    between atoms: N_14  and  C_15
REMARK    7  A    between atoms: C_23  and  C_27
REMARK    8  A    between atoms: C_23  and  C_28
REMARK                            x       y       z     vdW  Elec       q    Type
REMARK                         _______ _______ _______ _____ _____    ______ ____
ROOT
ATOM      1  N   UNL     1      -1.133   3.909  -4.383  0.00  0.00    -0.216 N 
ATOM      2  H   UNL     1      -0.967   3.653  -5.304  0.00  0.00    +0.174 HD
ENDROOT
BRANCH   1   3
ATOM      3  C   UNL     1      -1.450   2.934  -3.432  0.00  0.00    +0.052 A 
ATOM      4  C   UNL     1      -2.491   3.149  -2.539  0.00  0.00    +0.026 A 
ATOM      5  C   UNL     1      -2.808   2.186  -1.599  0.00  0.00    +0.029 A 
ATOM      6  C   UNL     1      -2.084   1.006  -1.548  0.00  0.00    +0.076 A 
ATOM      7  C   UNL     1      -1.036   0.788  -2.440  0.00  0.00    +0.143 A 
ATOM      8  C   UNL     1      -0.722   1.752  -3.383  0.00  0.00    +0.072 A 
ATOM      9  O   UNL     1      -0.323  -0.367  -2.374  0.00  0.00    -0.489 OA
ATOM     10  C   UNL     1       0.611  -0.495  -1.310  0.00  0.00    +0.244 C 
ATOM     11  C   UNL     1       0.002  -0.004   0.002  0.00  0.00    +0.076 C 
ATOM     12  C   UNL     1      -1.405  -0.524   0.143  0.00  0.00    +0.226 C 
ATOM     13  O   UNL     1      -1.648  -1.423   0.919  0.00  0.00    -0.275 OA
ATOM     14  N   UNL     1      -2.396   0.018  -0.601  0.00  0.00    -0.282 N 
ATOM     15  C   UNL     1      -0.019   1.526   0.010  0.00  0.00    +0.024 C 
ATOM     16  C   UNL     1       0.848  -0.506   1.174  0.00  0.00    +0.024 C 
ATOM     17  H   UNL     1      -3.314  -0.274  -0.481  0.00  0.00    +0.155 HD
ENDBRANCH   1   3
BRANCH   1  18
ATOM     18  S   UNL     1      -1.044   5.502  -3.938  0.00  0.00    +0.072 S 
ATOM     19  O   UNL     1      -0.682   6.230  -5.104  0.00  0.00    -0.150 OA
ATOM     20  O   UNL     1      -2.224   5.784  -3.199  0.00  0.00    -0.150 OA
BRANCH  18  24
ATOM     21  C   UNL     1       2.417   5.891  -1.042  0.00  0.00    +0.156 A 
ATOM     22  C   UNL     1       1.143   5.617  -0.569  0.00  0.00    +0.050 A 
ATOM     23  C   UNL     1       0.088   5.503  -1.455  0.00  0.00    +0.032 A 
ATOM     24  C   UNL     1       0.303   5.653  -2.812  0.00  0.00    +0.111 A 
ATOM     25  C   UNL     1       1.572   5.927  -3.288  0.00  0.00    +0.071 A 
ATOM     26  C   UNL     1       2.631   6.046  -2.405  0.00  0.00    +0.167 A 
ATOM     27  F   UNL     1       3.871   6.314  -2.869  0.00  0.00    -0.202 F 
BRANCH  21  28
ATOM     28  O   UNL     1       3.456   6.008  -0.172  0.00  0.00    -0.489 OA
BRANCH  28  30
ATOM     29  C   UNL     1       4.444   6.003   2.033  0.00  0.00    +0.048 C 
ATOM     30  C   UNL     1       3.162   5.836   1.216  0.00  0.00    +0.226 C 
ENDBRANCH  28  30
ENDBRANCH  21  28
ENDBRANCH  18  24
ENDBRANCH   1  18
TORSDOF 5
