REMARK  Name = ZINC13299482
REMARK  7 active torsions:
REMARK  status: ('A' for Active; 'I' for Inactive)
REMARK    1  A    between atoms: C_1  and  N_2
REMARK    2  A    between atoms: N_2  and  C_3
REMARK    3  A    between atoms: N_2  and  S_4
REMARK    4  A    between atoms: S_4  and  C_7
REMARK    5  A    between atoms: C_10  and  N_15
REMARK    6  A    between atoms: C_11  and  C_13
REMARK    7  A    between atoms: N_15  and  C_16
REMARK                            x       y       z     vdW  Elec       q    Type
REMARK                         _______ _______ _______ _____ _____    ______ ____
ROOT
ATOM      1  C   UNL     1      -0.822   2.071   1.468  0.00  0.00    +0.106 A 
ATOM      2  C   UNL     1      -1.698   1.076   1.873  0.00  0.00    +0.030 A 
ATOM      3  C   UNL     1      -2.521   1.271   2.963  0.00  0.00    +0.025 A 
ATOM      4  C   UNL     1      -2.476   2.469   3.665  0.00  0.00    +0.042 A 
ATOM      5  C   UNL     1      -1.590   3.479   3.257  0.00  0.00    +0.086 A 
ATOM      6  C   UNL     1      -0.759   3.264   2.153  0.00  0.00    +0.045 A 
ENDROOT
BRANCH   1   7
ATOM      7  S   UNL     1       0.221   1.806   0.073  0.00  0.00    +0.060 S 
ATOM      8  O   UNL     1       0.366   0.399  -0.063  0.00  0.00    -0.153 OA
ATOM      9  O   UNL     1       1.335   2.675   0.228  0.00  0.00    -0.153 OA
BRANCH   7  11
ATOM     10  C   UNL     1      -0.478   3.718  -1.706  0.00  0.00    +0.131 C 
ATOM     11  N   UNL     1      -0.605   2.328  -1.263  0.00  0.00    -0.183 NA
ATOM     12  C   UNL     1      -1.464   1.399  -2.002  0.00  0.00    +0.131 C 
ENDBRANCH   7  11
ENDBRANCH   1   7
BRANCH   5  13
ATOM     13  C   UNL     1      -1.532   4.755   3.991  0.00  0.00    +0.388 C 
ATOM     14  O   UNL     1      -2.175   4.899   5.012  0.00  0.00    -0.241 OA
ATOM     15  O   UNL     1      -0.765   5.763   3.530  0.00  0.00    -0.241 OA
ENDBRANCH   5  13
BRANCH   4  16
ATOM     16  N   UNL     1      -3.302   2.667   4.763  0.00  0.00    -0.340 N 
ATOM     17  H   UNL     1      -3.212   3.470   5.299  0.00  0.00    +0.146 HD
BRANCH  16  18
ATOM     18  C   UNL     1      -4.310   1.663   5.111  0.00  0.00    +0.071 C 
ATOM     19  C   UNL     1      -3.669   0.575   5.975  0.00  0.00    +0.022 C 
ATOM     20  C   UNL     1      -4.721  -0.474   6.339  0.00  0.00    +0.005 C 
ATOM     21  C   UNL     1      -5.857   0.192   7.118  0.00  0.00    -0.008 C 
ATOM     22  C   UNL     1      -6.910  -0.857   7.482  0.00  0.00    +0.004 C 
ATOM     23  C   UNL     1      -7.468  -1.484   6.203  0.00  0.00    +0.000 C 
ATOM     24  C   UNL     1      -8.110  -0.396   5.340  0.00  0.00    +0.000 C 
ATOM     25  C   UNL     1      -7.057   0.653   4.976  0.00  0.00    +0.004 C 
ATOM     26  C   UNL     1      -6.498   1.280   6.254  0.00  0.00    -0.006 C 
ATOM     27  C   UNL     1      -5.446   2.329   5.890  0.00  0.00    +0.026 C 
ENDBRANCH  16  18
ENDBRANCH   4  16
TORSDOF 5
