REMARK  Name = ZINC06394678
REMARK  6 active torsions:
REMARK  status: ('A' for Active; 'I' for Inactive)
REMARK    1  A    between atoms: C_1  and  C_2
REMARK    2  A    between atoms: C_5  and  C_7
REMARK    3  A    between atoms: C_5  and  O_10
REMARK    4  A    between atoms: C_11  and  C_13
REMARK    5  A    between atoms: C_15  and  C_19
REMARK    6  A    between atoms: N_16  and  C_18
REMARK                            x       y       z     vdW  Elec       q    Type
REMARK                         _______ _______ _______ _____ _____    ______ ____
ROOT
ATOM      1  C   UNL     1      -4.552   6.767   0.058  0.00  0.00    +0.062 C 
ATOM      2  C   UNL     1      -4.463   5.263   0.049  0.00  0.00    +0.039 C 
ATOM      3  N   UNL     1      -3.384   4.594   0.047  0.00  0.00    -0.184 NA
ATOM      4  N   UNL     1      -3.560   3.212   0.033  0.00  0.00    -0.150 N 
ATOM      5  C   UNL     1      -5.003   2.921   0.037  0.00  0.00    +0.222 C 
ATOM      6  C   UNL     1      -5.647   4.322   0.047  0.00  0.00    +0.115 C 
ATOM      7  C   UNL     1      -2.573   2.294   0.024  0.00  0.00    +0.290 C 
ATOM      8  O   UNL     1      -2.845   1.109   0.018  0.00  0.00    -0.266 OA
ENDROOT
BRANCH   7   9
ATOM      9  C   UNL     1      -1.162   2.728   0.022  0.00  0.00    +0.163 A 
ATOM     10  C   UNL     1      -0.024   1.887   0.012  0.00  0.00    +0.080 A 
ATOM     11  C   UNL     1       1.043   2.721   0.007  0.00  0.00    +0.156 A 
ATOM     12  N   UNL     1       0.560   3.988   0.018  0.00  0.00    -0.261 N 
ATOM     13  N   UNL     1      -0.724   3.971   0.030  0.00  0.00    -0.165 NA
ATOM     14  C   UNL     1       1.383   5.200   0.017  0.00  0.00    +0.173 C 
ATOM     15 BR   UNL     1       0.002  -0.004   0.002  0.00  0.00    -0.046 Br
BRANCH  11  16
ATOM     16  C   UNL     1       2.495   2.317  -0.009  0.00  0.00    +0.435 C 
ATOM     17  F   UNL     1       2.957   2.185   1.305  0.00  0.00    -0.164 F 
ATOM     18  F   UNL     1       2.632   1.095  -0.676  0.00  0.00    -0.164 F 
ATOM     19  F   UNL     1       3.244   3.296  -0.671  0.00  0.00    -0.164 F 
ENDBRANCH  11  16
ENDBRANCH   7   9
BRANCH   5  20
ATOM     20  C   UNL     1      -5.401   2.149  -1.223  0.00  0.00    +0.393 C 
ATOM     21  F   UNL     1      -4.721   0.927  -1.257  0.00  0.00    -0.204 F 
ATOM     22  F   UNL     1      -6.780   1.915  -1.210  0.00  0.00    -0.204 F 
ENDBRANCH   5  20
BRANCH   5  23
ATOM     23  O   UNL     1      -5.367   2.189   1.209  0.00  0.00    -0.365 OA
ATOM     24  H   UNL     1      -4.932   1.330   1.288  0.00  0.00    +0.212 HD
ENDBRANCH   5  23
TORSDOF 4
