REMARK  Name = ZINC67565801
REMARK  7 active torsions:
REMARK  status: ('A' for Active; 'I' for Inactive)
REMARK    1  A    between atoms: C_1  and  C_2
REMARK    2  A    between atoms: C_2  and  C_3
REMARK    3  A    between atoms: C_3  and  C_4
REMARK    4  A    between atoms: N_6  and  C_7
REMARK    5  A    between atoms: C_14  and  C_16
REMARK    6  A    between atoms: C_25  and  C_29
REMARK    7  A    between atoms: C_27  and  C_28
REMARK                            x       y       z     vdW  Elec       q    Type
REMARK                         _______ _______ _______ _____ _____    ______ ____
ROOT
ATOM      1  C   UNL     1       1.324  -4.120   2.395  0.00  0.00    +0.090 C 
ATOM      2  C   UNL     1       2.451  -4.599   3.313  0.00  0.00    +0.025 C 
ATOM      3  C   UNL     1       2.520  -6.127   3.284  0.00  0.00    +0.021 C 
ATOM      4  C   UNL     1       1.199  -6.704   3.801  0.00  0.00    +0.108 C 
ATOM      5  N   UNL     1       0.095  -6.135   3.015  0.00  0.00    -0.292 N 
ATOM      6  C   UNL     1      -0.012  -4.675   2.901  0.00  0.00    +0.130 C 
ATOM      7  C   UNL     1      -0.802  -6.939   2.410  0.00  0.00    +0.302 C 
ATOM      8  O   UNL     1      -1.759  -6.458   1.840  0.00  0.00    -0.265 OA
ENDROOT
BRANCH   7   9
ATOM      9  C   UNL     1      -0.618  -8.421   2.441  0.00  0.00    +0.306 C 
ATOM     10  O   UNL     1       0.096  -8.961   1.622  0.00  0.00    -0.265 OA
ATOM     11  N   UNL     1      -1.246  -9.158   3.379  0.00  0.00    -0.263 N 
ATOM     12  C   UNL     1      -2.180  -8.528   4.322  0.00  0.00    +0.114 C 
ATOM     13  C   UNL     1      -1.877  -9.079   5.722  0.00  0.00    +0.024 C 
ATOM     14  C   UNL     1      -2.145 -10.583   5.729  0.00  0.00    +0.039 C 
ATOM     15  C   UNL     1      -1.431 -11.252   4.584  0.00  0.00    -0.023 A 
ATOM     16  C   UNL     1      -1.021 -10.537   3.468  0.00  0.00    +0.040 A 
ATOM     17  C   UNL     1      -0.374 -11.186   2.423  0.00  0.00    +0.027 A 
ATOM     18  C   UNL     1      -0.141 -12.545   2.492  0.00  0.00    -0.048 A 
ATOM     19  C   UNL     1      -0.551 -13.259   3.603  0.00  0.00    +0.007 A 
ATOM     20  C   UNL     1      -1.188 -12.613   4.650  0.00  0.00    -0.045 A 
ATOM     21  C   UNL     1      -1.633 -13.397   5.857  0.00  0.00    +0.044 C 
ATOM     22  C   UNL     1       0.560 -13.249   1.359  0.00  0.00    +0.044 C 
ENDBRANCH   7   9
BRANCH   1  25
ATOM     23  C   UNL     1       0.755  -1.996   1.347  0.00  0.00    +0.213 C 
ATOM     24  O   UNL     1       0.322  -2.613   0.397  0.00  0.00    -0.276 OA
ATOM     25  N   UNL     1       1.278  -2.656   2.399  0.00  0.00    -0.311 N 
ATOM     26  H   UNL     1       1.625  -2.162   3.158  0.00  0.00    +0.149 HD
BRANCH  23  27
ATOM     27  C   UNL     1       0.708  -0.489   1.350  0.00  0.00    +0.095 C 
BRANCH  27  29
ATOM     28  C   UNL     1       0.025   1.534   0.053  0.00  0.00    +0.004 C 
ATOM     29  C   UNL     1       0.072   0.004   0.050  0.00  0.00    +0.006 C 
ENDBRANCH  27  29
ENDBRANCH  23  27
ENDBRANCH   1  25
TORSDOF 4
