REMARK  Name = ZINC12946697
REMARK  8 active torsions:
REMARK  status: ('A' for Active; 'I' for Inactive)
REMARK    1  A    between atoms: C_1  and  C_2
REMARK    2  A    between atoms: C_2  and  C_4
REMARK    3  A    between atoms: C_2  and  N_46
REMARK    4  A    between atoms: C_7  and  N_10
REMARK    5  A    between atoms: C_15  and  N_46
REMARK    6  A    between atoms: C_16  and  C_17
REMARK    7  A    between atoms: C_16  and  N_46
REMARK    8  A    between atoms: N_19  and  C_20
REMARK                            x       y       z     vdW  Elec       q    Type
REMARK                         _______ _______ _______ _____ _____    ______ ____
ROOT
ATOM      1  C   UNL     1      -0.108   0.629   0.010  0.00  0.00    -0.095 C 
ATOM      2  N   UNL     1      -0.720   1.214   1.222  0.00  0.00    +0.388 N 
ATOM      3  H   UNL     1      -1.680   0.861   1.315  0.00  0.00    -0.081 HD
ENDROOT
BRANCH   2   5
ATOM      4  C   UNL     1       0.005  -0.703   2.561  0.00  0.00    -0.008 C 
ATOM      5  C   UNL     1       0.054   0.819   2.418  0.00  0.00    -0.041 C 
BRANCH   5   6
ATOM      6  C   UNL     1      -0.566   1.458   3.635  0.00  0.00    -0.061 A 
ATOM      7  C   UNL     1      -1.940   1.452   3.793  0.00  0.00    +0.004 A 
ATOM      8  C   UNL     1      -2.510   2.031   4.909  0.00  0.00    +0.028 A 
ATOM      9  C   UNL     1      -1.704   2.630   5.868  0.00  0.00    +0.067 A 
ATOM     10  C   UNL     1      -0.325   2.638   5.704  0.00  0.00    +0.028 A 
ATOM     11  C   UNL     1       0.240   2.052   4.588  0.00  0.00    +0.004 A 
BRANCH   9  12
ATOM     12  N   UNL     1      -2.280   3.223   7.000  0.00  0.00    -0.220 N 
ATOM     13  C   UNL     1      -3.593   3.298   7.292  0.00  0.00    +0.225 A 
ATOM     14  N   UNL     1      -3.719   3.925   8.434  0.00  0.00    -0.222 NA
ATOM     15  C   UNL     1      -2.517   4.272   8.894  0.00  0.00    +0.245 A 
ATOM     16  N   UNL     1      -1.604   3.864   8.051  0.00  0.00    -0.154 NA
ENDBRANCH   9  12
ENDBRANCH   5   6
ENDBRANCH   2   5
BRANCH   2  17
ATOM     17  C   UNL     1      -0.758   2.687   1.108  0.00  0.00    +0.019 C 
BRANCH  17  18
ATOM     18  C   UNL     1      -1.728   3.065   0.018  0.00  0.00    +0.201 C 
ATOM     19  O   UNL     1      -2.307   2.200  -0.605  0.00  0.00    -0.278 OA
ATOM     20  N   UNL     1      -1.950   4.364  -0.265  0.00  0.00    -0.286 N 
ATOM     21  H   UNL     1      -1.534   5.056   0.273  0.00  0.00    +0.155 HD
BRANCH  20  22
ATOM     22  C   UNL     1      -2.782   4.714  -1.335  0.00  0.00    +0.052 A 
ATOM     23  C   UNL     1      -3.884   3.929  -1.646  0.00  0.00    +0.025 A 
ATOM     24  C   UNL     1      -4.706   4.281  -2.698  0.00  0.00    +0.002 A 
ATOM     25  C   UNL     1      -4.427   5.407  -3.450  0.00  0.00    +0.002 A 
ATOM     26  C   UNL     1      -3.327   6.189  -3.147  0.00  0.00    +0.022 A 
ATOM     27  C   UNL     1      -2.503   5.846  -2.091  0.00  0.00    +0.062 A 
ATOM     28 CL   UNL     1      -1.123   6.827  -1.712  0.00  0.00    -0.082 Cl
ENDBRANCH  20  22
ENDBRANCH  17  18
ENDBRANCH   2  17
TORSDOF 6
