REMARK  Name = ZINC05749372
REMARK  4 active torsions:
REMARK  status: ('A' for Active; 'I' for Inactive)
REMARK    1  A    between atoms: C_6  and  C_7
REMARK    2  A    between atoms: N_8  and  N_9
REMARK    3  A    between atoms: C_10  and  C_12
REMARK    4  A    between atoms: C_15  and  N_19
REMARK                            x       y       z     vdW  Elec       q    Type
REMARK                         _______ _______ _______ _____ _____    ______ ____
ROOT
ATOM      1  N   UNL     1       2.278   5.621   0.009  0.00  0.00    -0.203 N 
ATOM      2  C   UNL     1       3.439   6.306   0.002  0.00  0.00    +0.265 C 
ATOM      3  O   UNL     1       4.498   5.707  -0.011  0.00  0.00    -0.268 OA
ATOM      4  H   UNL     1       1.434   6.099   0.020  0.00  0.00    +0.178 HD
ENDROOT
BRANCH   2   5
ATOM      5  C   UNL     1       3.426   7.783   0.010  0.00  0.00    +0.057 A 
ATOM      6  C   UNL     1       2.213   8.474   0.025  0.00  0.00    +0.017 A 
ATOM      7  C   UNL     1       2.208   9.852   0.032  0.00  0.00    +0.033 A 
ATOM      8  C   UNL     1       3.402  10.553   0.025  0.00  0.00    +0.128 A 
ATOM      9  C   UNL     1       4.608   9.877   0.011  0.00  0.00    +0.053 A 
ATOM     10  C   UNL     1       4.628   8.495   0.008  0.00  0.00    +0.055 A 
ATOM     11 CL   UNL     1       6.143   7.647  -0.004  0.00  0.00    -0.083 Cl
BRANCH   8  12
ATOM     12  N   UNL     1       3.387  12.033   0.034  0.00  0.00    +0.056 N 
ATOM     13  O   UNL     1       2.327  12.632   0.048  0.00  0.00    -0.126 OA
ATOM     14  O   UNL     1       4.436  12.652   0.029  0.00  0.00    -0.126 OA
ENDBRANCH   8  12
ENDBRANCH   2   5
BRANCH   1  16
ATOM     15  C   UNL     1       1.173   3.562   0.009  0.00  0.00    +0.138 C 
ATOM     16  N   UNL     1       2.291   4.221   0.002  0.00  0.00    -0.187 NA
BRANCH  15  22
ATOM     17  C   UNL     1       2.400   1.397  -0.014  0.00  0.00    +0.012 A 
ATOM     18  C   UNL     1       2.406   0.018  -0.022  0.00  0.00    +0.040 A 
ATOM     19  C   UNL     1       1.211  -0.684  -0.014  0.00  0.00    +0.137 A 
ATOM     20  C   UNL     1       0.002  -0.004   0.002  0.00  0.00    +0.054 A 
ATOM     21  C   UNL     1      -0.017   1.375   0.010  0.00  0.00    +0.027 A 
ATOM     22  C   UNL     1       1.186   2.087   0.002  0.00  0.00    -0.004 A 
ATOM     23 BR   UNL     1      -1.623  -0.970   0.012  0.00  0.00    -0.047 Br
ATOM     24  F   UNL     1       1.224  -2.034  -0.021  0.00  0.00    -0.204 F 
ENDBRANCH  15  22
ENDBRANCH   1  16
TORSDOF 4
