REMARK  Name = ZINC08187065
REMARK  6 active torsions:
REMARK  status: ('A' for Active; 'I' for Inactive)
REMARK    1  A    between atoms: C_1  and  C_2
REMARK    2  A    between atoms: C_2  and  C_3
REMARK    3  A    between atoms: C_3  and  C_21
REMARK    4  A    between atoms: N_6  and  C_10
REMARK    5  A    between atoms: C_10  and  N_49
REMARK    6  A    between atoms: C_18  and  C_20
REMARK                            x       y       z     vdW  Elec       q    Type
REMARK                         _______ _______ _______ _____ _____    ______ ____
ROOT
ATOM      1  C   UNL     1       1.390  -1.953   0.248  0.00  0.00    +0.138 C 
ATOM      2  C   UNL     1       1.179  -2.360   1.693  0.00  0.00    +0.249 C 
ATOM      3  O   UNL     1       1.766  -1.938   2.666  0.00  0.00    -0.272 OA
ATOM      4  N   UNL     1       0.199  -3.290   1.667  0.00  0.00    -0.241 N 
ATOM      5  C   UNL     1      -0.228  -3.524   0.420  0.00  0.00    +0.308 C 
ATOM      6  O   UNL     1      -1.102  -4.322   0.144  0.00  0.00    -0.252 OA
ATOM      7  N   UNL     1       0.419  -2.778  -0.493  0.00  0.00    -0.281 N 
ATOM      8  H   UNL     1       0.275  -2.781  -1.452  0.00  0.00    +0.152 HD
ENDROOT
BRANCH   1   9
ATOM      9  C   UNL     1       1.093  -0.488   0.060  0.00  0.00    -0.015 A 
ATOM     10  C   UNL     1      -0.199  -0.073  -0.209  0.00  0.00    +0.006 A 
ATOM     11  C   UNL     1      -0.471   1.271  -0.380  0.00  0.00    +0.000 A 
ATOM     12  C   UNL     1       0.547   2.201  -0.282  0.00  0.00    +0.000 A 
ATOM     13  C   UNL     1       1.838   1.786  -0.013  0.00  0.00    +0.000 A 
ATOM     14  C   UNL     1       2.111   0.442   0.158  0.00  0.00    +0.006 A 
ENDBRANCH   1   9
BRANCH   1  16
ATOM     15  C   UNL     1       3.050  -3.783  -0.124  0.00  0.00    +0.007 C 
ATOM     16  C   UNL     1       2.818  -2.272  -0.198  0.00  0.00    +0.037 C 
ENDBRANCH   1  16
BRANCH   4  17
ATOM     17  C   UNL     1      -0.329  -3.962   2.857  0.00  0.00    +0.043 C 
BRANCH  17  27
ATOM     18  C   UNL     1      -1.975  -2.210   2.567  0.00  0.00    -0.071 C 
ATOM     19  C   UNL     1      -2.639  -1.050   3.328  0.00  0.00    +0.024 C 
ATOM     20  C   UNL     1      -3.359  -1.630   4.502  0.00  0.00    -0.010 A 
ATOM     21  C   UNL     1      -3.215  -2.889   5.004  0.00  0.00    -0.051 A 
ATOM     22  C   UNL     1      -3.998  -3.210   6.111  0.00  0.00    +0.010 A 
ATOM     23  C   UNL     1      -4.844  -2.291   6.631  0.00  0.00    +0.045 A 
ATOM     24  S   UNL     1      -4.572  -0.889   5.557  0.00  0.00    -0.101 S 
ATOM     25  C   UNL     1      -2.232  -3.854   4.348  0.00  0.00    -0.038 C 
ATOM     26  C   UNL     1      -1.469  -4.622   5.428  0.00  0.00    -0.008 C 
ATOM     27  N   UNL     1      -1.266  -3.059   3.553  0.00  0.00    +0.395 N 
ATOM     28  H   UNL     1      -0.734  -2.454   4.189  0.00  0.00    -0.079 HD
ENDBRANCH  17  27
ENDBRANCH   4  17
TORSDOF 4
