REMARK  Name = ZINC20177046
REMARK  9 active torsions:
REMARK  status: ('A' for Active; 'I' for Inactive)
REMARK    1  A    between atoms: C_1  and  C_2
REMARK    2  A    between atoms: C_2  and  O_3
REMARK    3  A    between atoms: O_3  and  C_4
REMARK    4  A    between atoms: C_9  and  C_10
REMARK    5  A    between atoms: N_11  and  N_12
REMARK    6  A    between atoms: C_13  and  C_15
REMARK    7  A    between atoms: C_15  and  C_17
REMARK    8  A    between atoms: C_15  and  O_18
REMARK    9  A    between atoms: O_18  and  C_19
REMARK                            x       y       z     vdW  Elec       q    Type
REMARK                         _______ _______ _______ _____ _____    ______ ____
ROOT
ATOM      1  N   UNL     1      -3.611  -0.829   0.322  0.00  0.00    -0.204 N 
ATOM      2  C   UNL     1      -4.799  -0.193   0.296  0.00  0.00    +0.273 C 
ATOM      3  O   UNL     1      -4.849   1.006   0.474  0.00  0.00    -0.270 OA
ATOM      4  H   UNL     1      -3.566  -1.916   0.160  0.00  0.00    +0.177 HD
ENDROOT
BRANCH   1   6
ATOM      5  C   UNL     1      -1.290  -0.719   0.580  0.00  0.00    +0.142 C 
ATOM      6  N   UNL     1      -2.434  -0.106   0.554  0.00  0.00    -0.188 NA
BRANCH   5  12
ATOM      7  C   UNL     1      -0.105   1.427   1.030  0.00  0.00    +0.129 A 
ATOM      8  C   UNL     1       1.065   2.134   1.259  0.00  0.00    +0.047 A 
ATOM      9  C   UNL     1       2.279   1.474   1.284  0.00  0.00    +0.019 A 
ATOM     10  C   UNL     1       2.337   0.105   1.081  0.00  0.00    +0.019 A 
ATOM     11  C   UNL     1       1.181  -0.613   0.852  0.00  0.00    +0.028 A 
ATOM     12  C   UNL     1      -0.052   0.042   0.824  0.00  0.00    +0.037 A 
ATOM     13 BR   UNL     1       4.006  -0.782   1.117  0.00  0.00    -0.050 Br
BRANCH   7  14
ATOM     14  O   UNL     1      -1.298   2.076   1.000  0.00  0.00    -0.492 OA
BRANCH  14  16
ATOM     15  C   UNL     1      -2.701   4.038   1.149  0.00  0.00    +0.048 C 
ATOM     16  C   UNL     1      -1.275   3.488   1.219  0.00  0.00    +0.226 C 
ENDBRANCH  14  16
ENDBRANCH   7  14
ENDBRANCH   5  12
ENDBRANCH   1   6
BRANCH   2  17
ATOM     17  C   UNL     1      -6.065  -0.971   0.046  0.00  0.00    +0.257 C 
ATOM     18  C   UNL     1      -6.302  -1.945   1.202  0.00  0.00    +0.062 C 
BRANCH  17  19
ATOM     19  O   UNL     1      -7.168  -0.068  -0.050  0.00  0.00    -0.480 OA
BRANCH  19  20
ATOM     20  C   UNL     1      -8.250  -0.488  -0.756  0.00  0.00    +0.122 A 
ATOM     21  C   UNL     1      -8.287  -1.796  -1.250  0.00  0.00    +0.046 A 
ATOM     22  C   UNL     1      -9.356  -2.246  -1.960  0.00  0.00    +0.012 A 
ATOM     23  C   UNL     1     -10.442  -1.387  -2.203  0.00  0.00    -0.018 A 
ATOM     24  C   UNL     1     -11.563  -1.820  -2.933  0.00  0.00    +0.008 A 
ATOM     25  C   UNL     1     -12.597  -0.962  -3.150  0.00  0.00    +0.001 A 
ATOM     26  C   UNL     1     -12.563   0.342  -2.659  0.00  0.00    +0.001 A 
ATOM     27  C   UNL     1     -11.495   0.796  -1.949  0.00  0.00    +0.008 A 
ATOM     28  C   UNL     1     -10.408  -0.061  -1.704  0.00  0.00    -0.014 A 
ATOM     29  C   UNL     1      -9.291   0.370  -0.970  0.00  0.00    +0.054 A 
ENDBRANCH  19  20
ENDBRANCH  17  19
ENDBRANCH   2  17
TORSDOF 7
