REMARK  Name = ZINC08569183
REMARK  9 active torsions:
REMARK  status: ('A' for Active; 'I' for Inactive)
REMARK    1  A    between atoms: C_1  and  C_2
REMARK    2  A    between atoms: C_2  and  O_3
REMARK    3  A    between atoms: O_3  and  C_4
REMARK    4  A    between atoms: C_5  and  C_12
REMARK    5  A    between atoms: C_9  and  O_10
REMARK    6  A    between atoms: O_10  and  C_11
REMARK    7  A    between atoms: C_15  and  C_26
REMARK    8  A    between atoms: C_21  and  N_25
REMARK    9  A    between atoms: C_22  and  C_23
REMARK                            x       y       z     vdW  Elec       q    Type
REMARK                         _______ _______ _______ _____ _____    ______ ____
ROOT
ATOM      1  C   UNL     1       2.948  -1.733  -0.088  0.00  0.00    +0.105 C 
ATOM      2  C   UNL     1       4.270  -1.922  -0.785  0.00  0.00    +0.055 A 
ATOM      3  C   UNL     1       4.714  -1.388  -2.001  0.00  0.00    +0.107 A 
ATOM      4  N   UNL     1       5.941  -1.829  -2.213  0.00  0.00    -0.170 NA
ATOM      5  N   UNL     1       6.306  -2.654  -1.138  0.00  0.00    -0.246 N 
ATOM      6  H   UNL     1       7.155  -3.112  -1.034  0.00  0.00    +0.192 HD
ATOM      7  C   UNL     1       5.270  -2.697  -0.274  0.00  0.00    +0.223 A 
ATOM      8  O   UNL     1       5.154  -3.357   0.905  0.00  0.00    -0.423 OA
ATOM      9  C   UNL     1       4.127  -3.021   1.711  0.00  0.00    +0.200 C 
ATOM     10  C   UNL     1       3.075  -2.268   1.317  0.00  0.00    +0.098 C 
ENDROOT
BRANCH   1  12
ATOM     11  C   UNL     1       0.777  -1.811  -1.336  0.00  0.00    +0.166 A 
ATOM     12  C   UNL     1       1.872  -2.488  -0.825  0.00  0.00    +0.011 A 
ATOM     13  C   UNL     1       1.978  -3.857  -0.990  0.00  0.00    +0.008 A 
ATOM     14  C   UNL     1       0.993  -4.552  -1.666  0.00  0.00    +0.004 A 
ATOM     15  C   UNL     1      -0.102  -3.883  -2.180  0.00  0.00    +0.049 A 
ATOM     16  C   UNL     1      -0.217  -2.512  -2.012  0.00  0.00    +0.162 A 
BRANCH  16  17
ATOM     17  O   UNL     1      -1.297  -1.853  -2.511  0.00  0.00    -0.491 OA
ATOM     18  C   UNL     1      -2.278  -2.637  -3.193  0.00  0.00    +0.277 C 
ENDBRANCH  16  17
BRANCH  11  19
ATOM     19  O   UNL     1       0.671  -0.465  -1.174  0.00  0.00    -0.488 OA
BRANCH  19  21
ATOM     20  C   UNL     1      -0.019   1.526   0.010  0.00  0.00    +0.048 C 
ATOM     21  C   UNL     1       0.002  -0.004   0.002  0.00  0.00    +0.226 C 
ENDBRANCH  19  21
ENDBRANCH  11  19
ENDBRANCH   1  12
BRANCH   3  22
ATOM     22  C   UNL     1       3.946  -0.488  -2.889  0.00  0.00    +0.040 A 
ATOM     23  C   UNL     1       4.396   0.541  -3.671  0.00  0.00    +0.018 A 
ATOM     24  C   UNL     1       3.483   1.248  -4.424  0.00  0.00    +0.008 A 
ATOM     25  C   UNL     1       2.171   0.903  -4.369  0.00  0.00    +0.046 A 
ATOM     26  S   UNL     1       2.193  -0.469  -3.227  0.00  0.00    -0.095 S 
ENDBRANCH   3  22
BRANCH   9  27
ATOM     27  N   UNL     1       4.151  -3.467   3.009  0.00  0.00    -0.328 N 
ATOM     28  H   UNL     1       4.893  -4.009   3.322  0.00  0.00    +0.145 HD
ATOM     29  H   UNL     1       3.427  -3.241   3.613  0.00  0.00    +0.145 HD
ENDBRANCH   9  27
BRANCH  10  30
ATOM     30  C   UNL     1       2.045  -1.969   2.265  0.00  0.00    +0.101 C 
ATOM     31  N   UNL     1       1.227  -1.732   3.017  0.00  0.00    -0.191 NA
ENDBRANCH  10  30
TORSDOF 7
