REMARK  Name = ZINC56624944
REMARK  6 active torsions:
REMARK  status: ('A' for Active; 'I' for Inactive)
REMARK    1  A    between atoms: C_1  and  C_2
REMARK    2  A    between atoms: N_16  and  C_17
REMARK    3  A    between atoms: C_17  and  C_18
REMARK    4  A    between atoms: C_18  and  C_20
REMARK    5  A    between atoms: C_18  and  N_21
REMARK    6  A    between atoms: C_25  and  C_28
REMARK                            x       y       z     vdW  Elec       q    Type
REMARK                         _______ _______ _______ _____ _____    ______ ____
ROOT
ATOM      1  C   UNL     1       0.630  -5.684  -2.020  0.00  0.00    +0.066 C 
ATOM      2  C   UNL     1       0.929  -4.367  -1.353  0.00  0.00    +0.047 A 
ATOM      3  C   UNL     1       0.406  -3.206  -1.815  0.00  0.00    +0.071 A 
ATOM      4  S   UNL     1       1.098  -2.041  -0.652  0.00  0.00    -0.060 S 
ATOM      5  C   UNL     1       1.967  -3.137   0.285  0.00  0.00    +0.161 A 
ATOM      6  N   UNL     1       1.708  -4.293  -0.289  0.00  0.00    -0.230 NA
ATOM      7  N   UNL     1       2.759  -2.884   1.394  0.00  0.00    -0.308 N 
ATOM      8  C   UNL     1       2.887  -1.494   1.859  0.00  0.00    +0.108 C 
ATOM      9  C   UNL     1       2.795  -1.373   3.382  0.00  0.00    +0.038 C 
ATOM     10  C   UNL     1       1.710  -2.284   3.919  0.00  0.00    +0.111 C 
ATOM     11  N   UNL     1       2.297  -3.606   4.139  0.00  0.00    -0.284 N 
ATOM     12  C   UNL     1       2.476  -4.586   3.125  0.00  0.00    +0.128 C 
ATOM     13  C   UNL     1       3.417  -4.004   2.042  0.00  0.00    +0.126 C 
ATOM     14  C   UNL     1       2.695  -3.916   5.389  0.00  0.00    +0.302 C 
ATOM     15  O   UNL     1       3.098  -5.035   5.638  0.00  0.00    -0.253 OA
ATOM     16  N   UNL     1       2.646  -2.984   6.362  0.00  0.00    -0.301 N 
ATOM     17  H   UNL     1       2.259  -2.114   6.181  0.00  0.00    +0.150 HD
ENDROOT
BRANCH  16  18
ATOM     18  C   UNL     1       3.179  -3.287   7.692  0.00  0.00    +0.090 C 
BRANCH  18  19
ATOM     19  C   UNL     1       2.887  -2.119   8.636  0.00  0.00    -0.054 C 
ATOM     20  C   UNL     1       3.330  -2.485  10.054  0.00  0.00    -0.012 C 
BRANCH  19  21
ATOM     21  N   UNL     1       1.445  -1.834   8.632  0.00  0.00    +0.383 N 
ATOM     22  C   UNL     1       1.184  -0.629   9.428  0.00  0.00    -0.078 C 
ATOM     23  C   UNL     1      -0.305  -0.282   9.360  0.00  0.00    -0.018 C 
ATOM     24  C   UNL     1      -1.122  -1.451   9.918  0.00  0.00    -0.001 C 
ATOM     25  C   UNL     1      -0.785  -2.719   9.129  0.00  0.00    -0.031 C 
ATOM     26  C   UNL     1       0.721  -2.976   9.205  0.00  0.00    -0.075 C 
ATOM     27  C   UNL     1      -1.538  -3.909   9.728  0.00  0.00    +0.005 C 
ATOM     28  H   UNL     1       1.136  -1.683   7.684  0.00  0.00    -0.081 HD
ENDBRANCH  19  21
ENDBRANCH  18  19
ENDBRANCH  16  18
TORSDOF 3
