REMARK  Name = ZINC52305905
REMARK  5 active torsions:
REMARK  status: ('A' for Active; 'I' for Inactive)
REMARK    1  A    between atoms: C_1  and  C_2
REMARK    2  A    between atoms: C_5  and  N_8
REMARK    3  A    between atoms: C_9  and  S_17
REMARK    4  A    between atoms: C_11  and  C_13
REMARK    5  A    between atoms: S_17  and  N_20
REMARK                            x       y       z     vdW  Elec       q    Type
REMARK                         _______ _______ _______ _____ _____    ______ ____
ROOT
ATOM      1  N   UNL     1       0.089  -4.173  -0.048  0.00  0.00    -0.213 N 
ATOM      2  C   UNL     1       0.770  -4.963   0.812  0.00  0.00    +0.197 A 
ATOM      3  C   UNL     1       0.481  -6.249   0.506  0.00  0.00    +0.083 A 
ATOM      4  C   UNL     1      -0.406  -6.245  -0.576  0.00  0.00    +0.168 A 
ATOM      5  N   UNL     1      -0.646  -5.001  -0.905  0.00  0.00    -0.161 NA
ENDROOT
BRANCH   1  10
ATOM      6  C   UNL     1       0.175   1.502  -0.151  0.00  0.00    +0.044 C 
ATOM      7  C   UNL     1       0.152  -0.005  -0.123  0.00  0.00    -0.050 A 
ATOM      8  C   UNL     1       1.330  -0.710   0.049  0.00  0.00    +0.005 A 
ATOM      9  C   UNL     1       1.312  -2.091   0.074  0.00  0.00    +0.028 A 
ATOM     10  C   UNL     1       0.111  -2.771  -0.072  0.00  0.00    +0.068 A 
ATOM     11  C   UNL     1      -1.070  -2.060  -0.244  0.00  0.00    +0.028 A 
ATOM     12  C   UNL     1      -1.046  -0.680  -0.264  0.00  0.00    +0.005 A 
ENDBRANCH   1  10
BRANCH   4  13
ATOM     13  C   UNL     1      -0.990  -7.463  -1.244  0.00  0.00    +0.436 C 
ATOM     14  F   UNL     1      -2.191  -7.810  -0.615  0.00  0.00    -0.164 F 
ATOM     15  F   UNL     1      -1.235  -7.183  -2.593  0.00  0.00    -0.164 F 
ATOM     16  F   UNL     1      -0.087  -8.527  -1.145  0.00  0.00    -0.164 F 
ENDBRANCH   4  13
BRANCH   2  17
ATOM     17  S   UNL     1       1.843  -4.418   2.099  0.00  0.00    +0.073 S 
ATOM     18  O   UNL     1       3.138  -4.301   1.527  0.00  0.00    -0.152 OA
ATOM     19  O   UNL     1       1.190  -3.329   2.737  0.00  0.00    -0.152 OA
BRANCH  17  20
ATOM     20  N   UNL     1       1.928  -5.638   3.216  0.00  0.00    -0.202 NA
ATOM     21  H   UNL     1       1.431  -6.459   3.076  0.00  0.00    +0.144 HD
ATOM     22  H   UNL     1       2.474  -5.532   4.010  0.00  0.00    +0.144 HD
ENDBRANCH  17  20
ENDBRANCH   2  17
TORSDOF 4
