REMARK  Name = ZINC07002861
REMARK  11 active torsions:
REMARK  status: ('A' for Active; 'I' for Inactive)
REMARK    1  A    between atoms: C_1  and  C_2
REMARK    2  A    between atoms: C_8  and  C_20
REMARK    3  A    between atoms: C_12  and  C_13
REMARK    4  A    between atoms: C_13  and  O_15
REMARK    5  A    between atoms: O_15  and  C_16
REMARK    6  A    between atoms: C_16  and  C_17
REMARK    7  A    between atoms: C_17  and  O_18
REMARK    8  A    between atoms: O_18  and  C_19
REMARK    9  A    between atoms: C_20  and  N_54
REMARK   10  A    between atoms: C_22  and  C_29
REMARK   11  A    between atoms: C_25  and  C_28
REMARK                            x       y       z     vdW  Elec       q    Type
REMARK                         _______ _______ _______ _____ _____    ______ ____
ROOT
ATOM      1  C   UNL     1      -2.847  -0.025   0.029  0.00  0.00    +0.046 C 
ATOM      2  C   UNL     1      -2.602   1.462   0.035  0.00  0.00    -0.015 A 
ATOM      3  C   UNL     1      -1.296   1.956   0.019  0.00  0.00    +0.076 A 
ATOM      4  C   UNL     1      -0.014   1.214   0.009  0.00  0.00    +0.260 A 
ATOM      5  O   UNL     1       0.002  -0.004   0.002  0.00  0.00    -0.267 OA
ATOM      6  N   UNL     1       1.133   1.921   0.002  0.00  0.00    -0.312 N 
ATOM      7  H   UNL     1       2.007   1.435  -0.009  0.00  0.00    +0.170 HD
ATOM      8  C   UNL     1       1.126   3.276   0.008  0.00  0.00    +0.094 A 
ATOM      9  N   UNL     1       0.015   3.961   0.022  0.00  0.00    -0.229 NA
ATOM     10  C   UNL     1      -1.170   3.365   0.030  0.00  0.00    +0.116 A 
ATOM     11  S   UNL     1      -2.854   3.924   0.049  0.00  0.00    -0.062 S 
ATOM     12  C   UNL     1      -3.656   2.329   0.049  0.00  0.00    +0.102 A 
ENDROOT
BRANCH  12  13
ATOM     13  C   UNL     1      -5.088   2.026   0.062  0.00  0.00    +0.346 C 
ATOM     14  O   UNL     1      -5.465   0.870   0.060  0.00  0.00    -0.244 OA
BRANCH  13  15
ATOM     15  O   UNL     1      -5.990   3.030   0.075  0.00  0.00    -0.458 OA
BRANCH  15  16
ATOM     16  C   UNL     1      -7.393   2.655   0.088  0.00  0.00    +0.260 C 
BRANCH  16  17
ATOM     17  C   UNL     1      -8.257   3.917   0.102  0.00  0.00    +0.200 C 
BRANCH  17  18
ATOM     18  O   UNL     1      -8.069   4.638  -1.117  0.00  0.00    -0.380 OA
ATOM     19  C   UNL     1      -8.836   5.841  -1.206  0.00  0.00    +0.194 C 
ENDBRANCH  17  18
ENDBRANCH  16  17
ENDBRANCH  15  16
ENDBRANCH  13  15
ENDBRANCH  12  13
BRANCH   8  20
ATOM     20  C   UNL     1       2.440   4.014   0.000  0.00  0.00    -0.003 C 
BRANCH  20  28
ATOM     21  C   UNL     1       1.534   5.890  -1.232  0.00  0.00    -0.075 C 
ATOM     22  C   UNL     1       1.158   7.370  -1.128  0.00  0.00    -0.031 C 
ATOM     23  C   UNL     1       2.423   8.197  -0.884  0.00  0.00    +0.003 C 
ATOM     24  C   UNL     1       3.112   7.699   0.389  0.00  0.00    -0.031 C 
ATOM     25  C   UNL     1       3.432   6.210   0.241  0.00  0.00    -0.075 C 
ATOM     26  C   UNL     1       2.182   7.905   1.587  0.00  0.00    +0.005 C 
ATOM     27  C   UNL     1       0.495   7.822  -2.431  0.00  0.00    +0.005 C 
ATOM     28  N   UNL     1       2.171   5.467   0.033  0.00  0.00    +0.385 N 
ATOM     29  H   UNL     1       1.532   5.670   0.811  0.00  0.00    -0.081 HD
ENDBRANCH  20  28
ENDBRANCH   8  20
TORSDOF 7
