REMARK  Name = ZINC48694022
REMARK  1 active torsions:
REMARK  status: ('A' for Active; 'I' for Inactive)
REMARK    1  A    between atoms: C_6  and  C_7
REMARK                            x       y       z     vdW  Elec       q    Type
REMARK                         _______ _______ _______ _____ _____    ______ ____
ROOT
ATOM      1  C   UNL     1      -1.293  -0.775   0.010  0.00  0.00    +0.108 C 
ATOM      2  C   UNL     1      -1.597  -1.274   1.438  0.00  0.00    +0.029 C 
ATOM      3  C   UNL     1      -2.193  -2.686   1.193  0.00  0.00    +0.021 C 
ATOM      4  C   UNL     1      -1.364  -3.166  -0.024  0.00  0.00    +0.110 C 
ATOM      5  N   UNL     1      -1.175  -1.959  -0.854  0.00  0.00    -0.278 N 
ATOM      6  C   UNL     1      -0.936  -1.942  -2.180  0.00  0.00    +0.308 C 
ATOM      7  O   UNL     1      -0.797  -0.883  -2.760  0.00  0.00    -0.252 OA
ATOM      8  N   UNL     1      -0.850  -3.101  -2.864  0.00  0.00    -0.247 N 
ATOM      9  C   UNL     1      -0.603  -3.084  -4.232  0.00  0.00    +0.189 A 
ATOM     10  N   UNL     1      -0.420  -2.052  -5.031  0.00  0.00    -0.126 NA
ATOM     11  N   UNL     1      -0.202  -2.195  -6.268  0.00  0.00    -0.148 NA
ATOM     12  C   UNL     1      -0.156  -3.411  -6.774  0.00  0.00    +0.183 A 
ATOM     13  S   UNL     1      -0.453  -4.379  -5.301  0.00  0.00    -0.039 S 
ATOM     14  H   UNL     1      -0.961  -3.946  -2.401  0.00  0.00    +0.158 HD
ENDROOT
BRANCH   1  20
ATOM     15  C   UNL     1      -0.017   1.378   0.010  0.00  0.00    +0.006 A 
ATOM     16  C   UNL     1       1.171   2.086   0.002  0.00  0.00    +0.015 A 
ATOM     17  C   UNL     1       2.378   1.411  -0.013  0.00  0.00    +0.018 A 
ATOM     18  C   UNL     1       2.396   0.027  -0.021  0.00  0.00    +0.015 A 
ATOM     19  C   UNL     1       1.208  -0.679  -0.013  0.00  0.00    +0.006 A 
ATOM     20  C   UNL     1       0.002  -0.004   0.002  0.00  0.00    -0.027 A 
ATOM     21 BR   UNL     1       4.003   2.378  -0.024  0.00  0.00    -0.050 Br
ENDBRANCH   1  20
TORSDOF 1
