REMARK  Name = ZINC67548296
REMARK  10 active torsions:
REMARK  status: ('A' for Active; 'I' for Inactive)
REMARK    1  A    between atoms: C_1  and  C_2
REMARK    2  A    between atoms: C_2  and  C_3
REMARK    3  A    between atoms: C_2  and  C_4
REMARK    4  A    between atoms: C_2  and  C_5
REMARK    5  A    between atoms: C_5  and  C_7
REMARK    6  A    between atoms: C_5  and  N_12
REMARK    7  A    between atoms: C_13  and  C_15
REMARK    8  A    between atoms: C_17  and  N_25
REMARK    9  A    between atoms: C_19  and  S_21
REMARK   10  A    between atoms: S_21  and  C_24
REMARK                            x       y       z     vdW  Elec       q    Type
REMARK                         _______ _______ _______ _____ _____    ______ ____
ROOT
ATOM      1  N   UNL     1       0.010  -0.012  -2.444  0.00  0.00    -0.304 N 
ATOM      2  C   UNL     1      -1.042  -0.701  -2.929  0.00  0.00    +0.245 C 
ATOM      3  O   UNL     1      -1.404  -1.724  -2.382  0.00  0.00    -0.270 OA
ATOM      4  H   UNL     1       0.298   0.805  -2.880  0.00  0.00    +0.150 HD
ENDROOT
BRANCH   2   5
ATOM      5  C   UNL     1      -1.758  -0.211  -4.127  0.00  0.00    +0.041 A 
ATOM      6  C   UNL     1      -1.342   0.961  -4.761  0.00  0.00    +0.046 A 
ATOM      7  C   UNL     1      -2.013   1.412  -5.878  0.00  0.00    +0.129 A 
ATOM      8  C   UNL     1      -3.097   0.706  -6.370  0.00  0.00    +0.059 A 
ATOM      9  C   UNL     1      -3.514  -0.456  -5.746  0.00  0.00    +0.091 A 
ATOM     10  C   UNL     1      -2.847  -0.921  -4.631  0.00  0.00    +0.040 A 
BRANCH   9  11
ATOM     11  S   UNL     1      -4.895  -1.347  -6.381  0.00  0.00    -0.006 S 
ATOM     12  O   UNL     1      -5.421  -2.046  -5.261  0.00  0.00    -0.170 OA
ATOM     13  O   UNL     1      -5.676  -0.372  -7.058  0.00  0.00    -0.170 OA
ATOM     14  C   UNL     1      -4.187  -2.518  -7.572  0.00  0.00    +0.200 C 
ENDBRANCH   9  11
BRANCH   7  15
ATOM     15  N   UNL     1      -1.574   2.655  -6.552  0.00  0.00    +0.057 N 
ATOM     16  O   UNL     1      -0.628   3.273  -6.123  0.00  0.00    -0.126 OA
ATOM     17  O   UNL     1      -2.161   3.052  -7.531  0.00  0.00    -0.126 OA
ENDBRANCH   7  15
ENDBRANCH   2   5
BRANCH   1  18
ATOM     18  C   UNL     1       0.718  -0.497  -1.257  0.00  0.00    +0.115 C 
BRANCH  18  19
ATOM     19  C   UNL     1       2.132   0.024  -1.268  0.00  0.00    +0.010 A 
ATOM     20  C   UNL     1       3.279  -0.612  -0.927  0.00  0.00    +0.013 A 
ATOM     21  C   UNL     1       4.477   0.071  -1.016  0.00  0.00    +0.008 A 
ATOM     22  C   UNL     1       4.469   1.358  -1.442  0.00  0.00    +0.045 A 
ATOM     23  S   UNL     1       2.731   1.638  -1.739  0.00  0.00    -0.100 S 
ENDBRANCH  18  19
BRANCH  18  25
ATOM     24  C   UNL     1      -0.019   1.526   0.010  0.00  0.00    +0.013 C 
ATOM     25  C   UNL     1       0.002  -0.004   0.002  0.00  0.00    -0.015 C 
ATOM     26  C   UNL     1       0.742  -0.511   1.242  0.00  0.00    +0.013 C 
ATOM     27  C   UNL     1      -1.433  -0.534   0.013  0.00  0.00    +0.013 C 
ENDBRANCH  18  25
ENDBRANCH   1  18
TORSDOF 6
