REMARK  Name = ZINC44767337
REMARK  6 active torsions:
REMARK  status: ('A' for Active; 'I' for Inactive)
REMARK    1  A    between atoms: C_1  and  C_2
REMARK    2  A    between atoms: C_2  and  C_3
REMARK    3  A    between atoms: C_3  and  C_4
REMARK    4  A    between atoms: C_3  and  C_6
REMARK    5  A    between atoms: C_3  and  C_8
REMARK    6  A    between atoms: C_4  and  C_5
REMARK                            x       y       z     vdW  Elec       q    Type
REMARK                         _______ _______ _______ _____ _____    ______ ____
ROOT
ATOM      1  C   UNL     1      -1.489  -2.042  -0.024  0.00  0.00    +0.236 C 
ATOM      2  O   UNL     1      -0.465  -2.687   0.058  0.00  0.00    -0.274 OA
ATOM      3  N   UNL     1      -2.673  -2.672  -0.157  0.00  0.00    -0.292 N 
ATOM      4  C   UNL     1      -3.920  -1.921  -0.385  0.00  0.00    +0.136 C 
ATOM      5  C   UNL     1      -4.655  -2.533  -1.581  0.00  0.00    +0.179 C 
ATOM      6  O   UNL     1      -4.779  -3.948  -1.404  0.00  0.00    -0.373 OA
ATOM      7  C   UNL     1      -3.526  -4.623  -1.325  0.00  0.00    +0.139 C 
ATOM      8  C   UNL     1      -2.772  -4.136  -0.087  0.00  0.00    +0.105 C 
ATOM      9  C   UNL     1      -1.385  -4.776  -0.070  0.00  0.00    +0.025 C 
ATOM     10  C   UNL     1      -1.543  -6.298   0.003  0.00  0.00    +0.002 C 
ATOM     11  C   UNL     1      -2.335  -6.800  -1.205  0.00  0.00    +0.003 C 
ATOM     12  C   UNL     1      -3.713  -6.134  -1.216  0.00  0.00    +0.033 C 
ENDROOT
BRANCH   1  13
ATOM     13  C   UNL     1      -1.437  -0.537   0.024  0.00  0.00    +0.133 C 
BRANCH  13  15
ATOM     14  C   UNL     1       0.062   1.446   0.273  0.00  0.00    +0.006 C 
ATOM     15  C   UNL     1       0.010  -0.082   0.225  0.00  0.00    +0.028 C 
ENDBRANCH  13  15
BRANCH  13  16
ATOM     16  C   UNL     1      -2.296  -0.033   1.185  0.00  0.00    +0.028 C 
ATOM     17  C   UNL     1      -1.788  -0.638   2.495  0.00  0.00    +0.006 C 
ENDBRANCH  13  16
BRANCH  13  18
ATOM     18  C   UNL     1      -1.952   0.012  -1.242  0.00  0.00    +0.079 C 
ATOM     19  N   UNL     1      -2.350   0.435  -2.218  0.00  0.00    -0.195 NA
ENDBRANCH  13  18
ENDBRANCH   1  13
TORSDOF 4
