REMARK  Name = ZINC04097884
REMARK  10 active torsions:
REMARK  status: ('A' for Active; 'I' for Inactive)
REMARK    1  A    between atoms: C_1  and  C_2
REMARK    2  A    between atoms: C_5  and  O_34
REMARK    3  A    between atoms: C_7  and  C_29
REMARK    4  A    between atoms: C_10  and  C_11
REMARK    5  A    between atoms: C_10  and  C_12
REMARK    6  A    between atoms: C_29  and  O_30
REMARK    7  A    between atoms: O_30  and  C_31
REMARK    8  A    between atoms: C_31  and  C_33
REMARK    9  A    between atoms: O_34  and  C_35
REMARK   10  A    between atoms: C_35  and  C_37
REMARK                            x       y       z     vdW  Elec       q    Type
REMARK                         _______ _______ _______ _____ _____    ______ ____
ROOT
ATOM      1  C   UNL     1      -0.086   2.363   2.730  0.00  0.00    +0.008 C 
ATOM      2  C   UNL     1       1.421   2.248   2.476  0.00  0.00    -0.002 C 
ATOM      3  C   UNL     1       2.176   3.012   3.556  0.00  0.00    +0.049 C 
ATOM      4  C   UNL     1       3.682   2.915   3.303  0.00  0.00    +0.189 C 
ATOM      5  C   UNL     1       4.014   3.565   1.960  0.00  0.00    +0.076 C 
ATOM      6  C   UNL     1       3.227   2.892   0.841  0.00  0.00    +0.013 C 
ATOM      7  C   UNL     1       1.736   2.780   1.077  0.00  0.00    +0.001 C 
ATOM      8  C   UNL     1       1.000   4.098   0.841  0.00  0.00    +0.014 C 
ATOM      9  C   UNL     1       3.567   3.542  -0.498  0.00  0.00    +0.005 C 
ATOM     10  C   UNL     1       5.044   3.285  -0.820  0.00  0.00    +0.003 C 
ATOM     11  C   UNL     1       5.935   3.891   0.265  0.00  0.00    +0.038 C 
ATOM     12  C   UNL     1       5.505   3.370   1.639  0.00  0.00    +0.105 C 
ATOM     13  C   UNL     1       6.216   2.140   2.190  0.00  0.00    +0.196 C 
ATOM     14  O   UNL     1       6.439   3.453   2.711  0.00  0.00    -0.367 OA
ENDROOT
BRANCH   7  15
ATOM     15  C   UNL     1       1.163   1.750   0.074  0.00  0.00    +0.130 C 
ATOM     16  C   UNL     1       1.907   0.412   0.222  0.00  0.00    +0.046 C 
ATOM     17  C   UNL     1       2.514   0.136  -1.170  0.00  0.00    +0.086 C 
ATOM     18  C   UNL     1       1.994  -1.205  -1.661  0.00  0.00    +0.020 C 
ATOM     19  C   UNL     1       0.912  -0.972  -2.372  0.00  0.00    +0.187 C 
ATOM     20  O   UNL     1       0.586   0.338  -2.449  0.00  0.00    -0.471 OA
ATOM     21  C   UNL     1       1.741   1.120  -2.098  0.00  0.00    +0.314 C 
ATOM     22  O   UNL     1       1.358   2.217  -1.264  0.00  0.00    -0.337 OA
ENDBRANCH   7  15
BRANCH   5  23
ATOM     23  C   UNL     1       3.751   5.069   2.047  0.00  0.00    +0.245 C 
BRANCH  23  24
ATOM     24  O   UNL     1       4.629   5.656   3.043  0.00  0.00    -0.464 OA
BRANCH  24  25
ATOM     25  C   UNL     1       4.524   6.980   3.243  0.00  0.00    +0.304 C 
ATOM     26  O   UNL     1       3.725   7.625   2.606  0.00  0.00    -0.251 OA
ATOM     27  C   UNL     1       5.403   7.660   4.260  0.00  0.00    +0.136 C 
ENDBRANCH  24  25
ENDBRANCH  23  24
ENDBRANCH   5  23
BRANCH   4  28
ATOM     28  O   UNL     1       4.390   3.603   4.368  0.00  0.00    -0.461 OA
BRANCH  28  29
ATOM     29  C   UNL     1       4.729   2.875   5.444  0.00  0.00    +0.304 C 
ATOM     30  O   UNL     1       4.445   1.702   5.493  0.00  0.00    -0.251 OA
ATOM     31  C   UNL     1       5.465   3.521   6.589  0.00  0.00    +0.136 C 
ENDBRANCH  28  29
ENDBRANCH   4  28
TORSDOF 6
