REMARK  Name = ZINC67518656
REMARK  2 active torsions:
REMARK  status: ('A' for Active; 'I' for Inactive)
REMARK    1  A    between atoms: C_1  and  C_2
REMARK    2  A    between atoms: C_15  and  C_17
REMARK                            x       y       z     vdW  Elec       q    Type
REMARK                         _______ _______ _______ _____ _____    ______ ____
ROOT
ATOM      1  C   UNL     1       0.848   0.969   3.067  0.00  0.00    +0.007 C 
ATOM      2  C   UNL     1       0.680  -0.419   2.446  0.00  0.00    -0.014 C 
ATOM      3  C   UNL     1       1.076  -0.369   0.969  0.00  0.00    +0.005 C 
ATOM      4  C   UNL     1       0.895  -1.756   0.349  0.00  0.00    +0.023 C 
ATOM      5  C   UNL     1       1.790  -2.765   1.074  0.00  0.00    +0.079 C 
ATOM      6  C   UNL     1       1.430  -2.793   2.561  0.00  0.00    +0.010 C 
ATOM      7  C   UNL     1       1.578  -1.418   3.177  0.00  0.00    +0.008 C 
ATOM      8  C   UNL     1      -0.014  -3.266   2.726  0.00  0.00    +0.007 C 
ATOM      9  C   UNL     1      -0.150  -4.689   2.177  0.00  0.00    +0.019 C 
ATOM     10  C   UNL     1       0.206  -4.696   0.688  0.00  0.00    +0.108 C 
ATOM     11  N   UNL     1       1.550  -4.100   0.503  0.00  0.00    -0.298 N 
ATOM     12  C   UNL     1       2.528  -4.756  -0.153  0.00  0.00    +0.219 C 
ATOM     13  O   UNL     1       2.343  -5.891  -0.540  0.00  0.00    -0.275 OA
ENDROOT
BRANCH  12  14
ATOM     14  C   UNL     1       3.851  -4.080  -0.405  0.00  0.00    +0.078 C 
ATOM     15  C   UNL     1       3.742  -3.194  -1.648  0.00  0.00    +0.032 C 
ATOM     16  C   UNL     1       5.078  -2.481  -1.881  0.00  0.00    +0.108 C 
ATOM     17  N   UNL     1       6.145  -3.489  -1.950  0.00  0.00    -0.300 N 
ATOM     18  C   UNL     1       6.281  -4.451  -0.848  0.00  0.00    +0.108 C 
ATOM     19  C   UNL     1       4.932  -5.141  -0.626  0.00  0.00    +0.032 C 
ATOM     20  C   UNL     1       7.006  -3.531  -3.033  0.00  0.00    +0.218 A 
ATOM     21  N   UNL     1       6.861  -2.647  -4.009  0.00  0.00    -0.223 NA
ATOM     22  C   UNL     1       7.667  -2.660  -5.058  0.00  0.00    +0.116 A 
ATOM     23  C   UNL     1       8.671  -3.613  -5.127  0.00  0.00    +0.039 A 
ATOM     24  C   UNL     1       8.794  -4.522  -4.089  0.00  0.00    +0.116 A 
ATOM     25  N   UNL     1       7.958  -4.452  -3.066  0.00  0.00    -0.223 NA
ENDBRANCH  12  14
TORSDOF 1
