REMARK  Name = ZINC45631119
REMARK  8 active torsions:
REMARK  status: ('A' for Active; 'I' for Inactive)
REMARK    1  A    between atoms: C_1  and  C_2
REMARK    2  A    between atoms: C_2  and  C_4
REMARK    3  A    between atoms: C_2  and  N_15
REMARK    4  A    between atoms: N_6  and  C_7
REMARK    5  A    between atoms: N_18  and  C_21
REMARK    6  A    between atoms: C_21  and  C_22
REMARK    7  A    between atoms: N_24  and  C_25
REMARK    8  A    between atoms: C_25  and  C_26
REMARK                            x       y       z     vdW  Elec       q    Type
REMARK                         _______ _______ _______ _____ _____    ______ ____
ROOT
ATOM      1  N   UNL     1       0.568  -0.605   1.214  0.00  0.00    +0.389 N 
ATOM      2  C   UNL     1       0.536  -2.065   1.060  0.00  0.00    -0.062 C 
ATOM      3  C   UNL     1       1.175  -2.722   2.285  0.00  0.00    +0.066 C 
ATOM      4  N   UNL     1       0.436  -2.324   3.492  0.00  0.00    -0.298 NA
ATOM      5  C   UNL     1       0.439  -0.863   3.647  0.00  0.00    +0.066 C 
ATOM      6  C   UNL     1      -0.194  -0.221   2.410  0.00  0.00    -0.062 C 
ATOM      7  H   UNL     1       1.524  -0.298   1.313  0.00  0.00    -0.081 HD
ENDROOT
BRANCH   1   9
ATOM      8  C   UNL     1      -0.122   1.538   0.249  0.00  0.00    -0.004 C 
ATOM      9  C   UNL     1      -0.029   0.026   0.030  0.00  0.00    +0.017 C 
BRANCH   9  10
ATOM     10  C   UNL     1       0.831  -0.254  -1.176  0.00  0.00    +0.203 C 
ATOM     11  O   UNL     1       1.950  -0.701  -1.032  0.00  0.00    -0.277 OA
ATOM     12  N   UNL     1       0.357  -0.010  -2.413  0.00  0.00    -0.286 N 
ATOM     13  H   UNL     1      -0.507   0.417  -2.526  0.00  0.00    +0.155 HD
BRANCH  12  14
ATOM     14  C   UNL     1       1.111  -0.370  -3.536  0.00  0.00    +0.053 A 
ATOM     15  C   UNL     1       2.497  -0.307  -3.492  0.00  0.00    +0.044 A 
ATOM     16  C   UNL     1       3.239  -0.664  -4.602  0.00  0.00    +0.043 A 
ATOM     17  C   UNL     1       2.602  -1.085  -5.756  0.00  0.00    +0.021 A 
ATOM     18  C   UNL     1       1.222  -1.149  -5.803  0.00  0.00    +0.023 A 
ATOM     19  C   UNL     1       0.474  -0.799  -4.694  0.00  0.00    +0.062 A 
ATOM     20 CL   UNL     1      -1.259  -0.886  -4.752  0.00  0.00    -0.082 Cl
ATOM     21 CL   UNL     1       4.973  -0.585  -4.549  0.00  0.00    -0.083 Cl
ENDBRANCH  12  14
ENDBRANCH   9  10
ENDBRANCH   1   9
BRANCH   4  22
ATOM     22  C   UNL     1       0.985  -2.981   4.686  0.00  0.00    +0.180 C 
BRANCH  22  23
ATOM     23  C   UNL     1       0.064  -2.748   5.855  0.00  0.00    +0.227 C 
ATOM     24  O   UNL     1      -0.950  -2.100   5.709  0.00  0.00    -0.274 OA
ATOM     25  N   UNL     1       0.367  -3.262   7.064  0.00  0.00    -0.311 N 
ATOM     26  H   UNL     1       1.178  -3.781   7.181  0.00  0.00    +0.149 HD
BRANCH  25  27
ATOM     27  C   UNL     1      -0.529  -3.036   8.201  0.00  0.00    +0.131 C 
BRANCH  27  28
ATOM     28  C   UNL     1       0.034  -3.709   9.426  0.00  0.00    -0.016 C 
ATOM     29  C   UNL     1       0.237  -3.017  10.519  0.00  0.00    +0.005 C 
ENDBRANCH  27  28
ENDBRANCH  25  27
ENDBRANCH  22  23
ENDBRANCH   4  22
TORSDOF 7
