REMARK  Name = ZINC64931017
REMARK  7 active torsions:
REMARK  status: ('A' for Active; 'I' for Inactive)
REMARK    1  A    between atoms: C_1  and  C_2
REMARK    2  A    between atoms: C_3  and  S_8
REMARK    3  A    between atoms: C_4  and  C_7
REMARK    4  A    between atoms: S_8  and  N_11
REMARK    5  A    between atoms: C_15  and  C_17
REMARK    6  A    between atoms: C_20  and  C_22
REMARK    7  A    between atoms: N_24  and  C_25
REMARK                            x       y       z     vdW  Elec       q    Type
REMARK                         _______ _______ _______ _____ _____    ______ ____
ROOT
ATOM      1  C   UNL     1       1.979  -1.733  -3.776  0.00  0.00    +0.121 A 
ATOM      2  N   UNL     1       2.385  -1.688  -2.523  0.00  0.00    -0.144 NA
ATOM      3  N   UNL     1       2.390  -2.713  -1.783  0.00  0.00    -0.136 NA
ATOM      4  C   UNL     1       1.972  -3.869  -2.290  0.00  0.00    +0.187 A 
ATOM      5  S   UNL     1       1.554  -3.354  -3.950  0.00  0.00    -0.044 S 
ENDROOT
BRANCH   1  10
ATOM      6  N   UNL     1       1.227   0.545  -4.205  0.00  0.00    -0.167 NA
ATOM      7  C   UNL     1       2.167   1.681  -4.184  0.00  0.00    +0.110 C 
ATOM      8  C   UNL     1       3.189   1.370  -5.307  0.00  0.00    +0.019 C 
ATOM      9  C   UNL     1       3.331  -0.170  -5.181  0.00  0.00    +0.029 C 
ATOM     10  C   UNL     1       1.907  -0.620  -4.789  0.00  0.00    +0.137 C 
BRANCH   6  11
ATOM     11  S   UNL     1      -0.335   0.575  -3.655  0.00  0.00    +0.067 S 
ATOM     12  O   UNL     1      -0.441   1.702  -2.796  0.00  0.00    -0.153 OA
ATOM     13  O   UNL     1      -0.638  -0.744  -3.222  0.00  0.00    -0.153 OA
BRANCH  11  16
ATOM     14  C   UNL     1      -1.609  -1.541  -5.891  0.00  0.00    +0.071 C 
ATOM     15  C   UNL     1      -1.868  -0.057  -5.944  0.00  0.00    +0.107 A 
ATOM     16  C   UNL     1      -1.370   0.901  -5.043  0.00  0.00    +0.170 A 
ATOM     17  C   UNL     1      -1.822   2.111  -5.425  0.00  0.00    +0.161 A 
ATOM     18  O   UNL     1      -2.577   1.943  -6.521  0.00  0.00    -0.358 OA
ATOM     19  N   UNL     1      -2.588   0.562  -6.836  0.00  0.00    -0.081 NA
ATOM     20  C   UNL     1      -1.532   3.422  -4.741  0.00  0.00    +0.091 C 
ENDBRANCH  11  16
ENDBRANCH   6  11
ENDBRANCH   1  10
BRANCH   4  21
ATOM     21  C   UNL     1       1.875  -5.197  -1.660  0.00  0.00    +0.275 C 
ATOM     22  O   UNL     1       1.461  -6.145  -2.300  0.00  0.00    -0.268 OA
ATOM     23  N   UNL     1       2.244  -5.362  -0.374  0.00  0.00    -0.280 N 
ATOM     24  H   UNL     1       2.498  -4.593   0.160  0.00  0.00    +0.155 HD
BRANCH  23  25
ATOM     25  C   UNL     1       2.261  -6.641   0.190  0.00  0.00    +0.034 A 
ATOM     26  C   UNL     1       1.920  -6.818   1.525  0.00  0.00    +0.025 A 
ATOM     27  C   UNL     1       1.937  -8.082   2.079  0.00  0.00    +0.022 A 
ATOM     28  C   UNL     1       2.295  -9.173   1.306  0.00  0.00    +0.041 A 
ATOM     29  C   UNL     1       2.636  -9.000  -0.024  0.00  0.00    +0.022 A 
ATOM     30  C   UNL     1       2.615  -7.739  -0.585  0.00  0.00    +0.025 A 
ATOM     31 CL   UNL     1       2.316 -10.762   2.007  0.00  0.00    -0.084 Cl
ENDBRANCH  23  25
ENDBRANCH   4  21
TORSDOF 5
