REMARK  Name = ZINC20484704
REMARK  3 active torsions:
REMARK  status: ('A' for Active; 'I' for Inactive)
REMARK    1  A    between atoms: C_1  and  C_2
REMARK    2  A    between atoms: C_7  and  N_8
REMARK    3  A    between atoms: C_9  and  C_11
REMARK                            x       y       z     vdW  Elec       q    Type
REMARK                         _______ _______ _______ _____ _____    ______ ____
ROOT
ATOM      1  C   UNL     1       3.558   5.820   0.269  0.00  0.00    +0.175 A 
ATOM      2  C   UNL     1       2.245   5.343   0.317  0.00  0.00    +0.069 A 
ATOM      3  C   UNL     1       2.361   4.000   0.015  0.00  0.00    +0.178 A 
ATOM      4  O   UNL     1       3.649   3.767  -0.178  0.00  0.00    -0.353 OA
ATOM      5  N   UNL     1       4.310   4.781  -0.038  0.00  0.00    -0.073 NA
ATOM      6  C   UNL     1       1.143   3.175  -0.029  0.00  0.00    +0.062 A 
ATOM      7  C   UNL     1       1.171   1.790  -0.048  0.00  0.00    +0.015 A 
ATOM      8  C   UNL     1      -0.018   1.084  -0.046  0.00  0.00    +0.001 A 
ATOM      9  C   UNL     1      -1.225   1.760  -0.032  0.00  0.00    +0.004 A 
ATOM     10  C   UNL     1      -1.262   3.141  -0.015  0.00  0.00    +0.046 A 
ATOM     11  C   UNL     1      -0.083   3.869  -0.024  0.00  0.00    +0.132 A 
ATOM     12  O   UNL     1      -0.112   5.224  -0.039  0.00  0.00    -0.486 OA
ATOM     13  C   UNL     1       0.920   5.978   0.607  0.00  0.00    +0.270 C 
ENDROOT
BRANCH   1  15
ATOM     14  N   UNL     1       5.322   7.516   0.429  0.00  0.00    -0.280 N 
ATOM     15  C   UNL     1       4.012   7.210   0.513  0.00  0.00    +0.270 C 
ATOM     16  O   UNL     1       3.204   8.074   0.789  0.00  0.00    -0.268 OA
ATOM     17  H   UNL     1       6.063   6.719   0.269  0.00  0.00    +0.155 HD
BRANCH  14  24
ATOM     18  C   UNL     1       7.984   8.018   1.298  0.00  0.00    +0.045 C 
ATOM     19  C   UNL     1       7.030   9.136   0.966  0.00  0.00    -0.029 A 
ATOM     20  C   UNL     1       7.439  10.450   1.078  0.00  0.00    +0.005 A 
ATOM     21  C   UNL     1       6.564  11.477   0.772  0.00  0.00    +0.000 A 
ATOM     22  C   UNL     1       5.278  11.191   0.353  0.00  0.00    +0.002 A 
ATOM     23  C   UNL     1       4.864   9.879   0.233  0.00  0.00    +0.023 A 
ATOM     24  C   UNL     1       5.739   8.845   0.545  0.00  0.00    +0.037 A 
ENDBRANCH  14  24
ENDBRANCH   1  15
TORSDOF 2
