REMARK  Name = ZINC46278604
REMARK  9 active torsions:
REMARK  status: ('A' for Active; 'I' for Inactive)
REMARK    1  A    between atoms: C_1  and  C_2
REMARK    2  A    between atoms: C_2  and  N_3
REMARK    3  A    between atoms: N_3  and  C_4
REMARK    4  A    between atoms: N_3  and  C_6
REMARK    5  A    between atoms: C_4  and  C_5
REMARK    6  A    between atoms: C_6  and  C_8
REMARK    7  A    between atoms: C_6  and  C_9
REMARK    8  A    between atoms: C_9  and  N_10
REMARK    9  A    between atoms: C_19  and  C_21
REMARK                            x       y       z     vdW  Elec       q    Type
REMARK                         _______ _______ _______ _____ _____    ______ ____
ROOT
ATOM      1  N   UNL     1      -3.434  -1.945  -1.133  0.00  0.00    -0.301 N 
ATOM      2  C   UNL     1      -4.719  -2.259  -1.391  0.00  0.00    +0.302 C 
ATOM      3  O   UNL     1      -5.383  -2.840  -0.555  0.00  0.00    -0.253 OA
ATOM      4  N   UNL     1      -5.268  -1.929  -2.577  0.00  0.00    -0.283 N 
ATOM      5  C   UNL     1      -4.447  -1.331  -3.640  0.00  0.00    +0.128 C 
ATOM      6  C   UNL     1      -4.589  -2.185  -4.907  0.00  0.00    +0.127 C 
ATOM      7  N   UNL     1      -6.018  -2.417  -5.160  0.00  0.00    -0.294 N 
ATOM      8  C   UNL     1      -6.838  -3.014  -4.096  0.00  0.00    +0.127 C 
ATOM      9  C   UNL     1      -6.695  -2.165  -2.832  0.00  0.00    +0.128 C 
ATOM     10  C   UNL     1      -6.567  -2.086  -6.346  0.00  0.00    +0.250 C 
ATOM     11  O   UNL     1      -5.864  -1.669  -7.245  0.00  0.00    -0.270 OA
ATOM     12  H   UNL     1      -2.925  -1.419  -1.769  0.00  0.00    +0.150 HD
ENDROOT
BRANCH  10  13
ATOM     13  C   UNL     1      -8.022  -2.232  -6.552  0.00  0.00    +0.073 A 
ATOM     14  C   UNL     1      -8.644  -3.460  -6.320  0.00  0.00    +0.036 A 
ATOM     15  C   UNL     1     -10.004  -3.589  -6.515  0.00  0.00    +0.042 A 
ATOM     16  C   UNL     1     -10.753  -2.503  -6.939  0.00  0.00    +0.023 A 
ATOM     17  C   UNL     1     -10.146  -1.284  -7.170  0.00  0.00    +0.040 A 
ATOM     18  C   UNL     1      -8.784  -1.139  -6.975  0.00  0.00    +0.136 A 
ATOM     19  F   UNL     1      -8.192   0.055  -7.196  0.00  0.00    -0.205 F 
ATOM     20 CL   UNL     1     -10.778  -5.116  -6.228  0.00  0.00    -0.084 Cl
ENDBRANCH  10  13
BRANCH   1  21
ATOM     21  C   UNL     1      -2.804  -2.400   0.110  0.00  0.00    +0.090 C 
BRANCH  21  22
ATOM     22  C   UNL     1      -1.399  -1.805   0.217  0.00  0.00    -0.054 C 
ATOM     23  C   UNL     1      -0.777  -2.205   1.556  0.00  0.00    -0.012 C 
BRANCH  22  24
ATOM     24  N   UNL     1      -1.478  -0.341   0.131  0.00  0.00    +0.382 N 
ATOM     25  H   UNL     1      -1.946  -0.079  -0.724  0.00  0.00    -0.081 HD
BRANCH  24  27
ATOM     26  C   UNL     1      -2.424   1.687   1.126  0.00  0.00    -0.017 C 
ATOM     27  C   UNL     1      -2.234   0.176   1.280  0.00  0.00    -0.082 C 
ENDBRANCH  24  27
BRANCH  24  28
ATOM     28  C   UNL     1      -0.123   0.225   0.141  0.00  0.00    -0.082 C 
ATOM     29  C   UNL     1       0.628  -0.228  -1.113  0.00  0.00    -0.017 C 
ENDBRANCH  24  28
ENDBRANCH  22  24
ENDBRANCH  21  22
ENDBRANCH   1  21
TORSDOF 6
