REMARK  Name = ZINC40156350
REMARK  11 active torsions:
REMARK  status: ('A' for Active; 'I' for Inactive)
REMARK    1  A    between atoms: C_1  and  C_2
REMARK    2  A    between atoms: C_3  and  C_32
REMARK    3  A    between atoms: C_4  and  C_31
REMARK    4  A    between atoms: C_7  and  C_8
REMARK    5  A    between atoms: C_14  and  C_16
REMARK    6  A    between atoms: C_24  and  O_26
REMARK    7  A    between atoms: O_26  and  C_27
REMARK    8  A    between atoms: C_27  and  C_28
REMARK    9  A    between atoms: C_27  and  C_29
REMARK   10  A    between atoms: C_27  and  C_30
REMARK   11  A    between atoms: C_32  and  C_34
REMARK                            x       y       z     vdW  Elec       q    Type
REMARK                         _______ _______ _______ _____ _____    ______ ____
ROOT
ATOM      1  C   UNL     1       0.032  -0.378   2.473  0.00  0.00    +0.264 C 
ATOM      2  O   UNL     1      -0.013   0.810   2.731  0.00  0.00    -0.268 OA
ATOM      3  N   UNL     1       0.154  -1.280   3.468  0.00  0.00    -0.285 N 
ATOM      4  C   UNL     1       0.190  -2.744   3.301  0.00  0.00    +0.109 C 
ATOM      5  C   UNL     1       0.939  -3.267   4.552  0.00  0.00    +0.021 C 
ATOM      6  C   UNL     1       0.419  -2.304   5.652  0.00  0.00    +0.033 C 
ATOM      7  C   UNL     1       0.281  -0.965   4.899  0.00  0.00    +0.162 C 
ENDROOT
BRANCH   7   8
ATOM      8  C   UNL     1       1.504  -0.115   5.130  0.00  0.00    +0.236 C 
ATOM      9  O   UNL     1       2.208   0.202   4.195  0.00  0.00    -0.274 OA
ATOM     10  N   UNL     1       1.815   0.293   6.377  0.00  0.00    -0.297 N 
ATOM     11  C   UNL     1       0.974  -0.089   7.520  0.00  0.00    +0.127 C 
ATOM     12  C   UNL     1       1.856  -0.781   8.567  0.00  0.00    +0.130 C 
ATOM     13  N   UNL     1       3.042   0.053   8.807  0.00  0.00    -0.264 N 
ATOM     14  C   UNL     1       3.883   0.434   7.664  0.00  0.00    +0.130 C 
ATOM     15  C   UNL     1       3.004   1.122   6.617  0.00  0.00    +0.127 C 
ATOM     16  C   UNL     1       3.353   0.460  10.054  0.00  0.00    +0.403 C 
ATOM     17  O   UNL     1       2.650   0.139  10.991  0.00  0.00    -0.226 OA
BRANCH  16  18
ATOM     18  O   UNL     1       4.443   1.224  10.260  0.00  0.00    -0.445 OA
BRANCH  18  19
ATOM     19  C   UNL     1       4.712   1.619  11.606  0.00  0.00    +0.107 C 
ATOM     20  C   UNL     1       4.912   0.375  12.473  0.00  0.00    +0.055 C 
ATOM     21  C   UNL     1       5.980   2.475  11.642  0.00  0.00    +0.055 C 
ATOM     22  C   UNL     1       3.533   2.432  12.145  0.00  0.00    +0.055 C 
ENDBRANCH  18  19
ENDBRANCH  16  18
ENDBRANCH   7   8
BRANCH   1  29
ATOM     23  C   UNL     1       0.075   1.476  -0.033  0.00  0.00    +0.047 C 
ATOM     24  C   UNL     1      -0.029  -0.028  -0.022  0.00  0.00    -0.010 A 
ATOM     25  C   UNL     1      -0.120  -0.874  -1.153  0.00  0.00    +0.041 A 
ATOM     26  C   UNL     1      -0.196  -2.175  -0.680  0.00  0.00    +0.024 A 
ATOM     27  N   UNL     1      -0.155  -2.139   0.660  0.00  0.00    -0.354 N 
ATOM     28  H   UNL     1      -0.192  -2.914   1.243  0.00  0.00    +0.166 HD
ATOM     29  C   UNL     1      -0.047  -0.831   1.079  0.00  0.00    +0.106 A 
ATOM     30  C   UNL     1      -0.306  -3.416  -1.527  0.00  0.00    +0.064 C 
BRANCH  25  31
ATOM     31  C   UNL     1      -0.131  -0.455  -2.558  0.00  0.00    +0.162 C 
ATOM     32  O   UNL     1      -1.187  -0.296  -3.135  0.00  0.00    -0.292 OA
ATOM     33  C   UNL     1       1.168  -0.220  -3.285  0.00  0.00    +0.091 C 
ENDBRANCH  25  31
ENDBRANCH   1  29
TORSDOF 5
