REMARK  Name = ZINC51052417
REMARK  1 active torsions:
REMARK  status: ('A' for Active; 'I' for Inactive)
REMARK    1  A    between atoms: C_7  and  C_23
REMARK                            x       y       z     vdW  Elec       q    Type
REMARK                         _______ _______ _______ _____ _____    ______ ____
ROOT
ATOM      1  C   UNL     1      -0.016   1.337   0.009  0.00  0.00    +0.033 C 
ATOM      2  C   UNL     1       0.002  -0.004   0.002  0.00  0.00    +0.031 C 
ATOM      3  C   UNL     1      -1.248  -0.784   0.004  0.00  0.00    +0.090 C 
ATOM      4  C   UNL     1      -1.182  -2.119   0.198  0.00  0.00    +0.249 C 
ATOM      5  O   UNL     1      -2.319  -2.853   0.237  0.00  0.00    -0.270 OA
ATOM      6  N   UNL     1       0.041  -2.739   0.358  0.00  0.00    -0.213 N 
ATOM      7  C   UNL     1       0.131  -4.204   0.386  0.00  0.00    +0.235 C 
ATOM      8  N   UNL     1       1.244  -4.602   1.252  0.00  0.00    -0.224 NA
ATOM      9  C   UNL     1       2.247  -3.797   1.472  0.00  0.00    +0.222 C 
ATOM     10  N   UNL     1       2.273  -2.544   0.984  0.00  0.00    -0.184 NA
ATOM     11  C   UNL     1       1.196  -2.007   0.455  0.00  0.00    +0.199 C 
ATOM     12  N   UNL     1       1.214  -0.715  -0.013  0.00  0.00    -0.287 N 
ATOM     13  N   UNL     1       3.312  -4.244   2.229  0.00  0.00    -0.269 N 
ATOM     14  C   UNL     1       4.499  -3.451   2.561  0.00  0.00    +0.118 C 
ATOM     15  C   UNL     1       5.381  -4.380   3.410  0.00  0.00    +0.056 C 
ATOM     16  C   UNL     1       4.599  -5.672   3.496  0.00  0.00    -0.024 A 
ATOM     17  C   UNL     1       3.413  -5.518   2.795  0.00  0.00    +0.040 A 
ATOM     18  C   UNL     1       2.516  -6.586   2.738  0.00  0.00    +0.024 A 
ATOM     19  C   UNL     1       2.808  -7.774   3.374  0.00  0.00    +0.002 A 
ATOM     20  C   UNL     1       3.992  -7.916   4.073  0.00  0.00    +0.000 A 
ATOM     21  C   UNL     1       4.889  -6.866   4.128  0.00  0.00    +0.005 A 
ATOM     22  H   UNL     1       2.032  -0.308  -0.339  0.00  0.00    +0.155 HD
ENDROOT
BRANCH   7  23
ATOM     23  C   UNL     1       0.368  -4.720  -1.010  0.00  0.00    -0.003 A 
ATOM     24  C   UNL     1      -0.119  -4.020  -2.098  0.00  0.00    +0.007 A 
ATOM     25  C   UNL     1       0.098  -4.493  -3.379  0.00  0.00    +0.002 A 
ATOM     26  C   UNL     1       0.802  -5.666  -3.572  0.00  0.00    +0.020 A 
ATOM     27  C   UNL     1       1.290  -6.367  -2.484  0.00  0.00    +0.041 A 
ATOM     28  C   UNL     1       1.078  -5.890  -1.203  0.00  0.00    +0.027 A 
ATOM     29 CL   UNL     1       2.175  -7.841  -2.726  0.00  0.00    -0.084 Cl
ENDBRANCH   7  23
TORSDOF 1
