REMARK  Name = ZINC64308411
REMARK  6 active torsions:
REMARK  status: ('A' for Active; 'I' for Inactive)
REMARK    1  A    between atoms: C_1  and  C_2
REMARK    2  A    between atoms: C_4  and  C_23
REMARK    3  A    between atoms: C_6  and  C_8
REMARK    4  A    between atoms: C_11  and  S_13
REMARK    5  A    between atoms: S_13  and  C_14
REMARK    6  A    between atoms: C_14  and  C_15
REMARK                            x       y       z     vdW  Elec       q    Type
REMARK                         _______ _______ _______ _____ _____    ______ ____
ROOT
ATOM      1  C   UNL     1       0.052  -2.845   2.457  0.00  0.00    +0.249 A 
ATOM      2  N   UNL     1       0.076  -4.149   2.588  0.00  0.00    -0.106 NA
ATOM      3  N   UNL     1       0.084  -4.453   3.838  0.00  0.00    -0.101 NA
ATOM      4  C   UNL     1       0.066  -3.353   4.555  0.00  0.00    +0.278 A 
ATOM      5  O   UNL     1       0.051  -2.314   3.699  0.00  0.00    -0.411 OA
ENDROOT
BRANCH   1  11
ATOM      6  C   UNL     1      -0.018   1.503   0.010  0.00  0.00    +0.044 C 
ATOM      7  C   UNL     1       0.002  -0.004   0.002  0.00  0.00    -0.049 A 
ATOM      8  C   UNL     1       0.006  -0.688  -1.201  0.00  0.00    +0.006 A 
ATOM      9  C   UNL     1       0.025  -2.071  -1.218  0.00  0.00    -0.049 A 
ATOM     10  C   UNL     1       0.040  -2.778  -0.033  0.00  0.00    +0.016 A 
ATOM     11  C   UNL     1       0.036  -2.095   1.184  0.00  0.00    +0.039 A 
ATOM     12  C   UNL     1       0.023  -0.699   1.194  0.00  0.00    +0.016 A 
ATOM     13  C   UNL     1       0.029  -2.807  -2.533  0.00  0.00    +0.044 C 
ENDBRANCH   1  11
BRANCH   4  14
ATOM     14  S   UNL     1       0.068  -3.255   6.315  0.00  0.00    -0.059 S 
BRANCH  14  15
ATOM     15  C   UNL     1       0.101  -4.988   6.851  0.00  0.00    +0.136 C 
BRANCH  15  16
ATOM     16  C   UNL     1       0.105  -5.048   8.357  0.00  0.00    +0.071 A 
ATOM     17  C   UNL     1       1.196  -5.054   9.139  0.00  0.00    +0.117 A 
ATOM     18  N   UNL     1       0.768  -5.116  10.463  0.00  0.00    -0.300 N 
ATOM     19  C   UNL     1       1.324  -5.153  11.723  0.00  0.00    +0.100 A 
ATOM     20  C   UNL     1       0.552  -5.214  12.807  0.00  0.00    +0.067 A 
ATOM     21  S   UNL     1      -1.085  -5.223  12.095  0.00  0.00    -0.058 S 
ATOM     22  C   UNL     1      -0.600  -5.144  10.387  0.00  0.00    +0.178 A 
ATOM     23  N   UNL     1      -0.981  -5.098   9.143  0.00  0.00    -0.225 NA
ENDBRANCH  15  16
ENDBRANCH  14  15
ENDBRANCH   4  14
TORSDOF 4
