REMARK  Name = ZINC12299798
REMARK  7 active torsions:
REMARK  status: ('A' for Active; 'I' for Inactive)
REMARK    1  A    between atoms: C_1  and  C_2
REMARK    2  A    between atoms: C_8  and  C_12
REMARK    3  A    between atoms: N_14  and  C_15
REMARK    4  A    between atoms: N_14  and  C_26
REMARK    5  A    between atoms: C_15  and  C_16
REMARK    6  A    between atoms: C_21  and  N_67
REMARK    7  A    between atoms: C_26  and  C_27
REMARK                            x       y       z     vdW  Elec       q    Type
REMARK                         _______ _______ _______ _____ _____    ______ ____
ROOT
ATOM      1  C   UNL     1      -6.218   3.898  -3.781  0.00  0.00    +0.267 C 
ATOM      2  O   UNL     1      -6.172   4.969  -3.208  0.00  0.00    -0.268 OA
ATOM      3  N   UNL     1      -5.078   3.277  -4.141  0.00  0.00    -0.293 N 
ENDROOT
BRANCH   1  11
ATOM      4  C   UNL     1     -11.202   6.604  -2.780  0.00  0.00    +0.044 C 
ATOM      5  C   UNL     1     -10.677   5.298  -3.318  0.00  0.00    -0.050 A 
ATOM      6  C   UNL     1     -11.566   4.327  -3.758  0.00  0.00    +0.005 A 
ATOM      7  C   UNL     1     -11.116   3.134  -4.252  0.00  0.00    +0.028 A 
ATOM      8  C   UNL     1      -9.748   2.886  -4.317  0.00  0.00    +0.067 A 
ATOM      9  C   UNL     1      -8.848   3.873  -3.870  0.00  0.00    +0.032 A 
ATOM     10  C   UNL     1      -9.328   5.080  -3.371  0.00  0.00    +0.015 A 
ATOM     11  C   UNL     1      -7.521   3.279  -4.083  0.00  0.00    +0.155 A 
ATOM     12  N   UNL     1      -7.727   2.088  -4.602  0.00  0.00    -0.168 NA
ATOM     13  N   UNL     1      -8.978   1.834  -4.741  0.00  0.00    -0.276 N 
ATOM     14  H   UNL     1      -9.344   0.980  -5.111  0.00  0.00    +0.189 HD
ENDBRANCH   1  11
BRANCH   3  15
ATOM     15  C   UNL     1      -3.787   3.937  -3.934  0.00  0.00    +0.111 C 
BRANCH  15  16
ATOM     16  C   UNL     1      -3.384   4.682  -5.208  0.00  0.00    +0.003 C 
ATOM     17  C   UNL     1      -1.983   5.274  -5.035  0.00  0.00    -0.014 C 
ATOM     18  C   UNL     1      -1.610   6.067  -6.289  0.00  0.00    -0.078 C 
ATOM     19  C   UNL     1      -3.937   6.593  -6.717  0.00  0.00    -0.078 C 
ATOM     20  C   UNL     1      -4.379   5.816  -5.476  0.00  0.00    -0.014 C 
ATOM     21  N   UNL     1      -2.591   7.157  -6.476  0.00  0.00    +0.382 N 
ATOM     22  H   UNL     1      -2.619   7.731  -5.625  0.00  0.00    -0.081 HD
BRANCH  21  23
ATOM     23  C   UNL     1      -2.189   8.008  -7.616  0.00  0.00    -0.069 C 
ATOM     24  C   UNL     1      -0.813   8.641  -7.324  0.00  0.00    -0.015 C 
ATOM     25  C   UNL     1      -0.923  10.073  -7.902  0.00  0.00    -0.002 C 
ATOM     26  C   UNL     1      -2.380  10.470  -7.556  0.00  0.00    -0.002 C 
ATOM     27  C   UNL     1      -3.186   9.171  -7.764  0.00  0.00    -0.015 C 
ENDBRANCH  21  23
ENDBRANCH  15  16
ENDBRANCH   3  15
BRANCH   3  28
ATOM     28  C   UNL     1      -5.129   1.941  -4.740  0.00  0.00    +0.139 C 
BRANCH  28  29
ATOM     29  C   UNL     1      -5.218   0.889  -3.633  0.00  0.00    +0.136 C 
ATOM     30  C   UNL     1      -5.312  -0.519  -4.254  0.00  0.00    +0.035 C 
ATOM     31  C   UNL     1      -4.089  -1.271  -3.675  0.00  0.00    +0.031 C 
ATOM     32  C   UNL     1      -3.760  -0.434  -2.413  0.00  0.00    +0.160 C 
ATOM     33  O   UNL     1      -4.027   0.923  -2.830  0.00  0.00    -0.375 OA
ENDBRANCH  28  29
ENDBRANCH   3  28
TORSDOF 6
