REMARK  Name = ZINC09483640
REMARK  4 active torsions:
REMARK  status: ('A' for Active; 'I' for Inactive)
REMARK    1  A    between atoms: C_1  and  C_2
REMARK    2  A    between atoms: C_2  and  C_4
REMARK    3  A    between atoms: C_2  and  N_53
REMARK    4  A    between atoms: N_9  and  C_10
REMARK                            x       y       z     vdW  Elec       q    Type
REMARK                         _______ _______ _______ _____ _____    ______ ____
ROOT
ATOM      1  C   UNL     1      -1.708   5.085   2.716  0.00  0.00    +0.207 C 
ATOM      2  O   UNL     1      -1.701   5.810   1.744  0.00  0.00    -0.277 OA
ATOM      3  N   UNL     1      -1.171   3.852   2.640  0.00  0.00    -0.242 N 
ATOM      4  C   UNL     1      -0.625   3.424   1.485  0.00  0.00    +0.306 C 
ATOM      5  O   UNL     1      -0.617   4.151   0.510  0.00  0.00    -0.252 OA
ATOM      6  N   UNL     1      -0.087   2.190   1.409  0.00  0.00    -0.294 N 
ATOM      7  H   UNL     1      -1.176   3.271   3.418  0.00  0.00    +0.159 HD
ATOM      8  H   UNL     1      -0.093   1.610   2.187  0.00  0.00    +0.151 HD
ENDROOT
BRANCH   6   9
ATOM      9  C   UNL     1       0.507   1.726   0.153  0.00  0.00    +0.037 C 
ATOM     10  C   UNL     1       1.656   2.655  -0.243  0.00  0.00    +0.029 C 
ATOM     11  C   UNL     1       2.276   2.169  -1.555  0.00  0.00    -0.008 C 
ATOM     12  C   UNL     1       2.810   0.747  -1.371  0.00  0.00    +0.007 C 
ATOM     13  C   UNL     1       1.660  -0.182  -0.976  0.00  0.00    -0.008 C 
ATOM     14  C   UNL     1       1.040   0.304   0.336  0.00  0.00    +0.029 C 
ATOM     15  C   UNL     1       0.597  -0.174  -2.075  0.00  0.00    +0.007 C 
ATOM     16  C   UNL     1       0.063   1.248  -2.259  0.00  0.00    -0.008 C 
ATOM     17  C   UNL     1       1.212   2.177  -2.655  0.00  0.00    +0.007 C 
ATOM     18  C   UNL     1      -0.557   1.733  -0.947  0.00  0.00    +0.029 C 
ENDBRANCH   6   9
BRANCH   1  20
ATOM     19  C   UNL     1      -3.786   5.133   4.069  0.00  0.00    -0.004 C 
ATOM     20  C   UNL     1      -2.319   5.563   4.008  0.00  0.00    +0.017 C 
BRANCH  20  28
ATOM     21  C   UNL     1      -0.833   7.474   4.126  0.00  0.00    -0.058 C 
ATOM     22  C   UNL     1      -0.789   8.984   3.886  0.00  0.00    +0.085 C 
ATOM     23  N   UNL     1      -1.737   9.659   4.767  0.00  0.00    -0.319 N 
ATOM     24  C   UNL     1      -2.743   9.023   5.376  0.00  0.00    +0.196 C 
ATOM     25  O   UNL     1      -3.504   9.666   6.068  0.00  0.00    -0.278 OA
ATOM     26  C   UNL     1      -2.971   7.544   5.239  0.00  0.00    +0.020 C 
ATOM     27  H   UNL     1      -1.632  10.611   4.918  0.00  0.00    +0.149 HD
ATOM     28  N   UNL     1      -2.243   7.041   4.059  0.00  0.00    +0.394 N 
ATOM     29  H   UNL     1      -2.672   7.427   3.209  0.00  0.00    -0.080 HD
ENDBRANCH  20  28
ENDBRANCH   1  20
TORSDOF 3
