REMARK  Name = ZINC04555331
REMARK  10 active torsions:
REMARK  status: ('A' for Active; 'I' for Inactive)
REMARK    1  A    between atoms: C_1  and  C_2
REMARK    2  A    between atoms: C_2  and  O_3
REMARK    3  A    between atoms: O_3  and  C_4
REMARK    4  A    between atoms: C_6  and  C_12
REMARK    5  A    between atoms: C_9  and  O_10
REMARK    6  A    between atoms: O_10  and  C_11
REMARK    7  A    between atoms: C_23  and  C_24
REMARK    8  A    between atoms: C_23  and  C_25
REMARK    9  A    between atoms: C_23  and  N_55
REMARK   10  A    between atoms: C_26  and  O_28
REMARK                            x       y       z     vdW  Elec       q    Type
REMARK                         _______ _______ _______ _____ _____    ______ ____
ROOT
ATOM      1  C   UNL     1       2.489   1.043  -0.016  0.00  0.00    +0.224 C 
ATOM      2  N   UNL     1       2.317  -0.260   0.654  0.00  0.00    -0.313 N 
ATOM      3  C   UNL     1       2.434  -0.262   2.023  0.00  0.00    +0.080 A 
ATOM      4  C   UNL     1       3.165   0.713   2.716  0.00  0.00    +0.067 A 
ATOM      5  C   UNL     1       3.202   0.567   4.158  0.00  0.00    -0.027 A 
ATOM      6  C   UNL     1       2.520  -0.491   4.659  0.00  0.00    -0.021 A 
ATOM      7  S   UNL     1       1.829  -1.299   3.242  0.00  0.00    -0.080 S 
ATOM      8  C   UNL     1       2.397  -0.868   6.102  0.00  0.00    -0.035 C 
ATOM      9  C   UNL     1       3.393   1.301   6.515  0.00  0.00    -0.073 C 
ATOM     10  C   UNL     1       3.940   1.511   5.100  0.00  0.00    +0.018 C 
ATOM     11  C   UNL     1       3.813   1.778   1.908  0.00  0.00    +0.220 C 
ATOM     12  N   UNL     1       3.501   1.857   0.646  0.00  0.00    -0.223 NA
ATOM     13  H   UNL     1       2.130  -1.070   0.155  0.00  0.00    +0.149 HD
ATOM     14  N   UNL     1       3.446  -0.136   6.853  0.00  0.00    +0.384 N 
ATOM     15  H   UNL     1       4.366  -0.507   6.591  0.00  0.00    -0.081 HD
ENDROOT
BRANCH   1  18
ATOM     16  C   UNL     1      -0.044   3.845   0.023  0.00  0.00    +0.162 A 
ATOM     17  C   UNL     1       1.163   3.164   0.008  0.00  0.00    +0.056 A 
ATOM     18  C   UNL     1       1.176   1.782   0.000  0.00  0.00    -0.002 A 
ATOM     19  C   UNL     1      -0.013   1.076   0.008  0.00  0.00    +0.011 A 
ATOM     20  C   UNL     1      -1.220   1.749   0.017  0.00  0.00    +0.050 A 
ATOM     21  C   UNL     1      -1.240   3.135   0.030  0.00  0.00    +0.162 A 
BRANCH  21  22
ATOM     22  O   UNL     1      -2.427   3.799   0.044  0.00  0.00    -0.491 OA
ATOM     23  C   UNL     1      -3.615   3.004   0.051  0.00  0.00    +0.277 C 
ENDBRANCH  21  22
BRANCH  16  24
ATOM     24  O   UNL     1      -0.059   5.205   0.031  0.00  0.00    -0.489 OA
BRANCH  24  26
ATOM     25  C   UNL     1       0.990   7.382   0.034  0.00  0.00    +0.048 C 
ATOM     26  C   UNL     1       1.207   5.868   0.023  0.00  0.00    +0.226 C 
ENDBRANCH  24  26
ENDBRANCH  16  24
ENDBRANCH   1  18
BRANCH  14  27
ATOM     27  C   UNL     1       3.248  -0.321   8.307  0.00  0.00    -0.074 C 
ATOM     28  C   UNL     1       1.876   0.206   8.732  0.00  0.00    -0.014 C 
ATOM     29  C   UNL     1       3.347  -1.812   8.637  0.00  0.00    -0.014 C 
ENDBRANCH  14  27
BRANCH  11  30
ATOM     30  O   UNL     1       4.697   2.637   2.466  0.00  0.00    -0.492 OA
ATOM     31  H   UNL     1       5.056   3.288   1.848  0.00  0.00    +0.294 HD
ENDBRANCH  11  30
TORSDOF 6
