REMARK  Name = ZINC03846599
REMARK  7 active torsions:
REMARK  status: ('A' for Active; 'I' for Inactive)
REMARK    1  A    between atoms: C_1  and  N_2
REMARK    2  A    between atoms: C_9  and  O_28
REMARK    3  A    between atoms: C_10  and  C_13
REMARK    4  A    between atoms: C_16  and  C_19
REMARK    5  A    between atoms: C_22  and  N_25
REMARK    6  A    between atoms: N_25  and  C_26
REMARK    7  A    between atoms: N_25  and  C_27
REMARK                            x       y       z     vdW  Elec       q    Type
REMARK                         _______ _______ _______ _____ _____    ______ ____
ROOT
ATOM      1  C   UNL     1      -4.449   3.163   1.348  0.00  0.00    +0.077 C 
ATOM      2  N   UNL     1      -4.610   2.773   0.130  0.00  0.00    -0.190 NA
ATOM      3  N   UNL     1      -3.567   3.126  -0.724  0.00  0.00    -0.261 N 
ATOM      4  C   UNL     1      -2.554   3.867   0.044  0.00  0.00    +0.125 C 
ATOM      5  C   UNL     1      -3.137   3.905   1.471  0.00  0.00    +0.086 C 
ATOM      6  H   UNL     1      -3.517   2.918  -1.670  0.00  0.00    +0.169 HD
ENDROOT
BRANCH   1  16
ATOM      7  C   UNL     1      -8.744   1.230   2.929  0.00  0.00    +0.152 C 
ATOM      8  N   UNL     1      -7.509   1.968   3.210  0.00  0.00    -0.310 N 
ATOM      9  C   UNL     1      -7.270   2.416   4.493  0.00  0.00    +0.055 A 
ATOM     10  C   UNL     1      -8.193   2.168   5.506  0.00  0.00    +0.026 A 
ATOM     11  C   UNL     1      -7.946   2.619   6.785  0.00  0.00    +0.002 A 
ATOM     12  C   UNL     1      -6.784   3.321   7.076  0.00  0.00    +0.001 A 
ATOM     13  C   UNL     1      -5.865   3.576   6.099  0.00  0.00    +0.013 A 
ATOM     14  C   UNL     1      -6.095   3.127   4.793  0.00  0.00    +0.041 A 
ATOM     15  C   UNL     1      -5.117   3.387   3.731  0.00  0.00    +0.140 A 
ATOM     16  C   UNL     1      -5.396   2.924   2.449  0.00  0.00    +0.104 A 
ATOM     17  C   UNL     1      -6.638   2.191   2.211  0.00  0.00    +0.264 A 
ATOM     18  O   UNL     1      -6.888   1.778   1.092  0.00  0.00    -0.267 OA
BRANCH  15  19
ATOM     19  O   UNL     1      -3.975   4.065   3.991  0.00  0.00    -0.505 OA
ATOM     20  H   UNL     1      -3.883   4.340   4.913  0.00  0.00    +0.292 HD
ENDBRANCH  15  19
ENDBRANCH   1  16
BRANCH   4  21
ATOM     21  C   UNL     1      -1.237   3.134   0.029  0.00  0.00    -0.025 A 
ATOM     22  C   UNL     1      -1.217   1.751   0.017  0.00  0.00    +0.007 A 
ATOM     23  C   UNL     1      -0.013   1.076   0.008  0.00  0.00    +0.023 A 
ATOM     24  C   UNL     1       1.180   1.788   0.000  0.00  0.00    +0.029 A 
ATOM     25  C   UNL     1       1.157   3.176   0.008  0.00  0.00    +0.023 A 
ATOM     26  C   UNL     1      -0.051   3.845   0.022  0.00  0.00    +0.007 A 
BRANCH  24  27
ATOM     27  N   UNL     1       2.401   1.108  -0.015  0.00  0.00    -0.336 N 
ATOM     28  C   UNL     1       2.423  -0.357  -0.023  0.00  0.00    +0.129 C 
ATOM     29  C   UNL     1       3.658   1.860  -0.023  0.00  0.00    +0.129 C 
ENDBRANCH  24  27
ENDBRANCH   4  21
TORSDOF 4
