REMARK  Name = ZINC09478501
REMARK  6 active torsions:
REMARK  status: ('A' for Active; 'I' for Inactive)
REMARK    1  A    between atoms: C_1  and  C_2
REMARK    2  A    between atoms: C_2  and  C_4
REMARK    3  A    between atoms: C_4  and  N_5
REMARK    4  A    between atoms: C_8  and  C_12
REMARK    5  A    between atoms: C_8  and  C_13
REMARK    6  A    between atoms: C_16  and  C_19
REMARK                            x       y       z     vdW  Elec       q    Type
REMARK                         _______ _______ _______ _____ _____    ______ ____
ROOT
ATOM      1  N   UNL     1       0.355   2.760  -1.860  0.00  0.00    -0.220 N 
ATOM      2  C   UNL     1      -0.619   2.035  -1.276  0.00  0.00    +0.251 C 
ATOM      3  O   UNL     1      -1.742   1.847  -1.692  0.00  0.00    -0.272 OA
ATOM      4  C   UNL     1      -0.018   1.503   0.010  0.00  0.00    +0.135 C 
ATOM      5  N   UNL     1       1.353   2.040   0.000  0.00  0.00    -0.281 N 
ATOM      6  C   UNL     1       1.476   2.759  -1.130  0.00  0.00    +0.310 C 
ATOM      7  O   UNL     1       2.492   3.344  -1.451  0.00  0.00    -0.252 OA
ATOM      8  C   UNL     1      -0.791   2.022   1.224  0.00  0.00    +0.047 C 
ATOM      9  H   UNL     1       2.035   1.901   0.676  0.00  0.00    +0.152 HD
ENDROOT
BRANCH   4  10
ATOM     10  C   UNL     1       0.002  -0.004   0.002  0.00  0.00    -0.015 A 
ATOM     11  C   UNL     1      -1.021  -0.703  -0.613  0.00  0.00    +0.007 A 
ATOM     12  C   UNL     1      -1.006  -2.083  -0.629  0.00  0.00    +0.019 A 
ATOM     13  C   UNL     1       0.039  -2.773  -0.012  0.00  0.00    +0.052 A 
ATOM     14  C   UNL     1       1.066  -2.061   0.611  0.00  0.00    +0.019 A 
ATOM     15  C   UNL     1       1.041  -0.682   0.615  0.00  0.00    +0.007 A 
BRANCH  13  16
ATOM     16  C   UNL     1       0.059  -4.205  -0.020  0.00  0.00    +0.099 C 
ATOM     17  N   UNL     1       0.074  -5.341  -0.026  0.00  0.00    -0.191 NA
ENDBRANCH  13  16
ENDBRANCH   4  10
BRANCH   1  18
ATOM     18  C   UNL     1       0.206   3.461  -3.138  0.00  0.00    +0.148 C 
BRANCH  18  20
ATOM     19  C   UNL     1       2.051   2.423  -4.664  0.00  0.00    +0.040 C 
ATOM     20  C   UNL     1       0.603   2.542  -4.264  0.00  0.00    -0.062 C 
ATOM     21  C   UNL     1      -0.310   1.847  -4.896  0.00  0.00    +0.009 C 
ENDBRANCH  18  20
ENDBRANCH   1  18
TORSDOF 4
