REMARK  Name = ZINC09122125
REMARK  5 active torsions:
REMARK  status: ('A' for Active; 'I' for Inactive)
REMARK    1  A    between atoms: N_9  and  C_24
REMARK    2  A    between atoms: C_10  and  C_12
REMARK    3  A    between atoms: C_24  and  C_25
REMARK    4  A    between atoms: C_25  and  C_26
REMARK    5  A    between atoms: C_26  and  O_27
REMARK                            x       y       z     vdW  Elec       q    Type
REMARK                         _______ _______ _______ _____ _____    ______ ____
ROOT
ATOM      1  C   UNL     1       0.206   1.273   1.664  0.00  0.00    +0.001 A 
ATOM      2  C   UNL     1       1.410   1.964   1.678  0.00  0.00    +0.002 A 
ATOM      3  C   UNL     1       2.587   1.336   1.339  0.00  0.00    +0.028 A 
ATOM      4  C   UNL     1       2.572  -0.015   0.976  0.00  0.00    +0.078 A 
ATOM      5  C   UNL     1       1.343  -0.715   0.963  0.00  0.00    +0.065 A 
ATOM      6  C   UNL     1       0.165  -0.059   1.310  0.00  0.00    +0.015 A 
ATOM      7  C   UNL     1       1.354  -2.135   0.578  0.00  0.00    +0.262 A 
ATOM      8  O   UNL     1       0.329  -2.790   0.548  0.00  0.00    -0.267 OA
ATOM      9  N   UNL     1       2.548  -2.686   0.257  0.00  0.00    -0.293 N 
ATOM     10  C   UNL     1       3.693  -1.930   0.297  0.00  0.00    +0.138 A 
ATOM     11  N   UNL     1       3.701  -0.664   0.638  0.00  0.00    -0.229 NA
ENDROOT
BRANCH  10  12
ATOM     12  C   UNL     1       4.965  -2.567  -0.057  0.00  0.00    +0.060 C 
ATOM     13  C   UNL     1       6.096  -1.816  -0.166  0.00  0.00    +0.049 C 
ATOM     14  C   UNL     1       7.488  -2.298  -0.300  0.00  0.00    +0.009 A 
ATOM     15  C   UNL     1       8.055  -3.568  -0.354  0.00  0.00    +0.025 A 
ATOM     16  C   UNL     1       9.424  -3.701  -0.486  0.00  0.00    +0.019 A 
ATOM     17  C   UNL     1      10.226  -2.575  -0.564  0.00  0.00    +0.017 A 
ATOM     18  C   UNL     1       9.673  -1.311  -0.512  0.00  0.00    +0.025 A 
ATOM     19  C   UNL     1       8.297  -1.156  -0.379  0.00  0.00    +0.042 A 
ATOM     20  N   UNL     1       7.499  -0.019  -0.303  0.00  0.00    -0.281 N 
ATOM     21  C   UNL     1       6.199  -0.339  -0.183  0.00  0.00    +0.249 C 
ATOM     22  O   UNL     1       5.274   0.445  -0.100  0.00  0.00    -0.270 OA
ATOM     23 BR   UNL     1      10.202  -5.423  -0.558  0.00  0.00    -0.050 Br
ATOM     24  H   UNL     1       7.838   0.889  -0.337  0.00  0.00    +0.155 HD
ENDBRANCH  10  12
BRANCH   9  25
ATOM     25  C   UNL     1       2.619  -4.096  -0.135  0.00  0.00    +0.129 C 
BRANCH  25  26
ATOM     26  C   UNL     1       2.842  -4.960   1.108  0.00  0.00    +0.049 C 
BRANCH  26  27
ATOM     27  C   UNL     1       2.916  -6.432   0.699  0.00  0.00    +0.157 C 
BRANCH  27  28
ATOM     28  O   UNL     1       3.124  -7.239   1.860  0.00  0.00    -0.395 OA
ATOM     29  H   UNL     1       3.181  -8.187   1.675  0.00  0.00    +0.209 HD
ENDBRANCH  27  28
ENDBRANCH  26  27
ENDBRANCH  25  26
ENDBRANCH   9  25
TORSDOF 5
