REMARK  Name = ZINC06455808
REMARK  2 active torsions:
REMARK  status: ('A' for Active; 'I' for Inactive)
REMARK    1  A    between atoms: C_1  and  C_2
REMARK    2  A    between atoms: C_12  and  C_14
REMARK                            x       y       z     vdW  Elec       q    Type
REMARK                         _______ _______ _______ _____ _____    ______ ____
ROOT
ATOM      1  C   UNL     1      -0.019   1.526   0.010  0.00  0.00    +0.008 C 
ATOM      2  C   UNL     1       0.002  -0.004   0.002  0.00  0.00    -0.009 C 
ATOM      3  C   UNL     1       0.735  -0.501  -1.248  0.00  0.00    +0.010 C 
ATOM      4  C   UNL     1       0.553  -2.012  -1.398  0.00  0.00    +0.056 C 
ATOM      5  C   UNL     1       0.957  -2.687  -0.093  0.00  0.00    +0.054 A 
ATOM      6  C   UNL     1       1.027  -1.968   1.057  0.00  0.00    +0.015 A 
ATOM      7  S   UNL     1       1.530  -3.182   2.246  0.00  0.00    -0.057 S 
ATOM      8  C   UNL     1       1.609  -4.531   1.152  0.00  0.00    +0.165 A 
ATOM      9  N   UNL     1       1.261  -3.979   0.008  0.00  0.00    -0.229 NA
ATOM     10  N   UNL     1       1.952  -5.851   1.416  0.00  0.00    -0.258 N 
ATOM     11  C   UNL     1       1.953  -6.759   0.420  0.00  0.00    +0.287 C 
ATOM     12  O   UNL     1       1.655  -6.422  -0.711  0.00  0.00    -0.266 OA
ATOM     13  C   UNL     1       0.745  -0.516   1.246  0.00  0.00    +0.047 C 
ATOM     14  H   UNL     1       2.189  -6.119   2.317  0.00  0.00    +0.157 HD
ENDROOT
BRANCH  11  15
ATOM     15  C   UNL     1       2.314  -8.149   0.699  0.00  0.00    +0.217 C 
ATOM     16  C   UNL     1       2.640  -8.503   1.949  0.00  0.00    +0.238 C 
ATOM     17  O   UNL     1       2.988  -9.770   2.260  0.00  0.00    -0.492 OA
ATOM     18  C   UNL     1       2.637 -10.786   1.313  0.00  0.00    +0.269 C 
ATOM     19  C   UNL     1       3.012 -10.282  -0.088  0.00  0.00    +0.270 C 
ATOM     20  O   UNL     1       2.305  -9.055  -0.319  0.00  0.00    -0.481 OA
ENDBRANCH  11  15
TORSDOF 1
