REMARK  Name = ZINC09384135
REMARK  8 active torsions:
REMARK  status: ('A' for Active; 'I' for Inactive)
REMARK    1  A    between atoms: C_1  and  C_2
REMARK    2  A    between atoms: N_8  and  S_9
REMARK    3  A    between atoms: S_9  and  C_12
REMARK    4  A    between atoms: C_15  and  C_18
REMARK    5  A    between atoms: N_20  and  C_21
REMARK    6  A    between atoms: C_22  and  C_26
REMARK    7  A    between atoms: C_26  and  O_28
REMARK    8  A    between atoms: O_28  and  C_29
REMARK                            x       y       z     vdW  Elec       q    Type
REMARK                         _______ _______ _______ _____ _____    ______ ____
ROOT
ATOM      1  C   UNL     1      -3.495   3.689   0.110  0.00  0.00    +0.106 A 
ATOM      2  C   UNL     1      -3.126   2.365   0.266  0.00  0.00    +0.029 A 
ATOM      3  C   UNL     1      -1.791   2.017   0.300  0.00  0.00    +0.015 A 
ATOM      4  C   UNL     1      -0.812   3.004   0.177  0.00  0.00    +0.037 A 
ATOM      5  C   UNL     1      -1.192   4.339   0.025  0.00  0.00    +0.015 A 
ATOM      6  C   UNL     1      -2.530   4.673  -0.013  0.00  0.00    +0.029 A 
ENDROOT
BRANCH   4   7
ATOM      7  C   UNL     1       0.619   2.639   0.213  0.00  0.00    +0.249 C 
ATOM      8  O   UNL     1       0.947   1.476   0.350  0.00  0.00    -0.270 OA
ATOM      9  N   UNL     1       1.562   3.594   0.088  0.00  0.00    -0.275 N 
ATOM     10  H   UNL     1       1.301   4.522  -0.021  0.00  0.00    +0.156 HD
BRANCH   9  11
ATOM     11  C   UNL     1       2.903   3.251   0.116  0.00  0.00    +0.086 A 
ATOM     12  C   UNL     1       4.011   4.085   0.005  0.00  0.00    +0.087 A 
ATOM     13  C   UNL     1       5.308   3.453   0.069  0.00  0.00    +0.024 A 
ATOM     14  C   UNL     1       5.333   2.118   0.231  0.00  0.00    +0.048 A 
ATOM     15  S   UNL     1       3.608   1.681   0.307  0.00  0.00    -0.081 S 
BRANCH  12  16
ATOM     16  C   UNL     1       3.870   5.532  -0.169  0.00  0.00    +0.341 C 
ATOM     17  O   UNL     1       2.762   6.033  -0.219  0.00  0.00    -0.245 OA
BRANCH  16  18
ATOM     18  O   UNL     1       4.967   6.309  -0.274  0.00  0.00    -0.464 OA
ATOM     19  C   UNL     1       4.751   7.735  -0.444  0.00  0.00    +0.280 C 
ENDBRANCH  16  18
ENDBRANCH  12  16
ENDBRANCH   9  11
ENDBRANCH   4   7
BRANCH   1  20
ATOM     20  S   UNL     1      -5.202   4.125   0.068  0.00  0.00    +0.061 S 
ATOM     21  O   UNL     1      -5.273   5.433  -0.481  0.00  0.00    -0.153 OA
ATOM     22  O   UNL     1      -5.889   3.020  -0.502  0.00  0.00    -0.153 OA
BRANCH  20  29
ATOM     23  C   UNL     1      -4.806   6.516   1.531  0.00  0.00    +0.026 C 
ATOM     24  C   UNL     1      -5.437   5.449   2.429  0.00  0.00    +0.077 C 
ATOM     25  C   UNL     1      -6.763   5.974   3.002  0.00  0.00    +0.020 C 
ATOM     26  C   UNL     1      -7.451   4.854   3.786  0.00  0.00    +0.003 C 
ATOM     27  C   UNL     1      -7.762   3.687   2.846  0.00  0.00    +0.017 C 
ATOM     28  C   UNL     1      -6.453   3.139   2.269  0.00  0.00    +0.110 C 
ATOM     29  N   UNL     1      -5.715   4.242   1.638  0.00  0.00    -0.174 NA
ENDBRANCH  20  29
ENDBRANCH   1  20
TORSDOF 6
