REMARK  Name = ZINC02520947
REMARK  9 active torsions:
REMARK  status: ('A' for Active; 'I' for Inactive)
REMARK    1  A    between atoms: C_1  and  C_2
REMARK    2  A    between atoms: C_2  and  S_3
REMARK    3  A    between atoms: S_3  and  C_4
REMARK    4  A    between atoms: C_5  and  C_9
REMARK    5  A    between atoms: C_11  and  C_32
REMARK    6  A    between atoms: C_12  and  N_31
REMARK    7  A    between atoms: N_13  and  C_21
REMARK    8  A    between atoms: C_23  and  N_28
REMARK    9  A    between atoms: C_26  and  C_27
REMARK                            x       y       z     vdW  Elec       q    Type
REMARK                         _______ _______ _______ _____ _____    ______ ____
ROOT
ATOM      1  C   UNL     1      -2.740   2.334   2.506  0.00  0.00    +0.099 C 
ATOM      2  C   UNL     1      -4.072   2.969   2.232  0.00  0.00    +0.077 C 
ATOM      3  C   UNL     1      -4.735   2.735   1.070  0.00  0.00    +0.107 C 
ATOM      4  N   UNL     1      -4.185   1.909   0.115  0.00  0.00    -0.260 N 
ATOM      5  C   UNL     1      -2.842   1.638   0.119  0.00  0.00    +0.024 C 
ATOM      6  C   UNL     1      -2.105   1.831   1.233  0.00  0.00    +0.025 C 
ATOM      7  C   UNL     1      -0.721   1.573   1.243  0.00  0.00    +0.162 C 
ATOM      8  O   UNL     1      -0.086   1.746   2.264  0.00  0.00    -0.292 OA
ATOM      9  C   UNL     1      -0.013   1.086   0.008  0.00  0.00    +0.080 C 
ATOM     10  C   UNL     1      -0.758   1.595  -1.230  0.00  0.00    +0.014 C 
ATOM     11  C   UNL     1      -2.211   1.122  -1.151  0.00  0.00    +0.052 C 
ENDROOT
BRANCH   4  12
ATOM     12  C   UNL     1      -5.005   1.343  -0.868  0.00  0.00    +0.045 A 
ATOM     13  C   UNL     1      -5.607   0.111  -0.647  0.00  0.00    +0.056 A 
ATOM     14  C   UNL     1      -6.415  -0.445  -1.619  0.00  0.00    +0.128 A 
ATOM     15  C   UNL     1      -6.626   0.224  -2.811  0.00  0.00    +0.033 A 
ATOM     16  C   UNL     1      -6.028   1.451  -3.034  0.00  0.00    +0.007 A 
ATOM     17  C   UNL     1      -5.223   2.014  -2.064  0.00  0.00    -0.029 A 
ATOM     18  C   UNL     1      -4.576   3.354  -2.305  0.00  0.00    +0.045 C 
BRANCH  14  19
ATOM     19  N   UNL     1      -7.057  -1.758  -1.385  0.00  0.00    +0.056 N 
ATOM     20  O   UNL     1      -6.872  -2.348  -0.335  0.00  0.00    -0.126 OA
ATOM     21  O   UNL     1      -7.770  -2.249  -2.242  0.00  0.00    -0.126 OA
ENDBRANCH  14  19
ENDBRANCH   4  12
BRANCH   1  23
ATOM     22  C   UNL     1      -2.304   1.165   4.665  0.00  0.00    +0.049 A 
ATOM     23  C   UNL     1      -2.929   1.178   3.454  0.00  0.00    -0.014 A 
ATOM     24  C   UNL     1      -3.745   0.114   3.114  0.00  0.00    +0.013 A 
ATOM     25  C   UNL     1      -3.890  -0.910   3.988  0.00  0.00    +0.046 A 
ATOM     26  S   UNL     1      -2.865  -0.385   5.352  0.00  0.00    -0.090 S 
BRANCH  22  27
ATOM     27  S   UNL     1      -1.224   2.365   5.370  0.00  0.00    -0.118 S 
BRANCH  27  29
ATOM     28  C   UNL     1       0.157   2.624   7.717  0.00  0.00    +0.015 C 
ATOM     29  C   UNL     1      -0.790   1.669   6.988  0.00  0.00    +0.071 C 
ENDBRANCH  27  29
ENDBRANCH  22  27
ENDBRANCH   1  23
BRANCH   3  30
ATOM     30  N   UNL     1      -5.957   3.323   0.847  0.00  0.00    -0.345 N 
ATOM     31  H   UNL     1      -6.432   3.156   0.018  0.00  0.00    +0.144 HD
ATOM     32  H   UNL     1      -6.345   3.904   1.519  0.00  0.00    +0.144 HD
ENDBRANCH   3  30
BRANCH   2  33
ATOM     33  C   UNL     1      -4.653   3.836   3.212  0.00  0.00    +0.099 C 
ATOM     34  N   UNL     1      -5.114   4.525   3.989  0.00  0.00    -0.191 NA
ENDBRANCH   2  33
TORSDOF 7
