REMARK  Name = ZINC08391869
REMARK  6 active torsions:
REMARK  status: ('A' for Active; 'I' for Inactive)
REMARK    1  A    between atoms: C_1  and  C_2
REMARK    2  A    between atoms: C_2  and  C_3
REMARK    3  A    between atoms: C_2  and  N_4
REMARK    4  A    between atoms: C_5  and  C_7
REMARK    5  A    between atoms: N_9  and  N_10
REMARK    6  A    between atoms: C_11  and  C_13
REMARK                            x       y       z     vdW  Elec       q    Type
REMARK                         _______ _______ _______ _____ _____    ______ ____
ROOT
ATOM      1  N   UNL     1       6.604  -0.560  -0.062  0.00  0.00    -0.227 N 
ATOM      2  C   UNL     1       5.978   0.633  -0.051  0.00  0.00    +0.295 C 
ATOM      3  O   UNL     1       6.629   1.661  -0.051  0.00  0.00    -0.265 OA
ATOM      4  H   UNL     1       6.085  -1.380  -0.062  0.00  0.00    +0.173 HD
ENDROOT
BRANCH   2   5
ATOM      5  C   UNL     1       4.510   0.693  -0.037  0.00  0.00    +0.192 A 
ATOM      6  C   UNL     1       3.774   1.835  -0.024  0.00  0.00    +0.063 A 
ATOM      7  C   UNL     1       2.373   1.414  -0.013  0.00  0.00    +0.022 A 
ATOM      8  C   UNL     1       1.153   2.093   0.002  0.00  0.00    +0.031 A 
ATOM      9  C   UNL     1      -0.017   1.385   0.010  0.00  0.00    +0.042 A 
ATOM     10  C   UNL     1       0.002  -0.004   0.002  0.00  0.00    +0.023 A 
ATOM     11  C   UNL     1       1.196  -0.692  -0.013  0.00  0.00    +0.048 A 
ATOM     12  C   UNL     1       2.398   0.007  -0.020  0.00  0.00    +0.136 A 
ATOM     13  O   UNL     1       3.689  -0.378  -0.035  0.00  0.00    -0.450 OA
ATOM     14 CL   UNL     1      -1.535   2.227   0.021  0.00  0.00    -0.084 Cl
ENDBRANCH   2   5
BRANCH   1  17
ATOM     15  C   UNL     1       8.630  -1.811  -0.087  0.00  0.00    +0.315 C 
ATOM     16  O   UNL     1       7.981  -2.836  -0.087  0.00  0.00    -0.264 OA
ATOM     17  N   UNL     1       8.004  -0.617  -0.075  0.00  0.00    -0.226 N 
ATOM     18  H   UNL     1       8.522   0.203  -0.076  0.00  0.00    +0.173 HD
BRANCH  15  20
ATOM     19  N   UNL     1      10.748  -3.065  -0.113  0.00  0.00    -0.305 N 
ATOM     20  C   UNL     1      10.123  -1.871  -0.101  0.00  0.00    +0.301 C 
ATOM     21  O   UNL     1      10.772  -0.846  -0.102  0.00  0.00    -0.265 OA
ATOM     22  H   UNL     1      10.230  -3.885  -0.113  0.00  0.00    +0.149 HD
BRANCH  19  24
ATOM     23  C   UNL     1      12.674  -4.455   0.472  0.00  0.00    +0.027 C 
ATOM     24  C   UNL     1      12.212  -3.124  -0.127  0.00  0.00    +0.067 C 
ATOM     25  C   UNL     1      12.714  -3.012  -1.568  0.00  0.00    +0.027 C 
ENDBRANCH  19  24
ENDBRANCH  15  20
ENDBRANCH   1  17
TORSDOF 4
