REMARK  Name = ZINC12308446
REMARK  6 active torsions:
REMARK  status: ('A' for Active; 'I' for Inactive)
REMARK    1  A    between atoms: C_5  and  N_7
REMARK    2  A    between atoms: C_10  and  N_13
REMARK    3  A    between atoms: C_14  and  C_16
REMARK    4  A    between atoms: C_16  and  C_17
REMARK    5  A    between atoms: C_24  and  C_25
REMARK    6  A    between atoms: C_24  and  N_57
REMARK                            x       y       z     vdW  Elec       q    Type
REMARK                         _______ _______ _______ _____ _____    ______ ____
ROOT
ATOM      1  N   UNL     1      -4.611   1.105  -0.815  0.00  0.00    -0.312 N 
ATOM      2  C   UNL     1      -3.688   1.892  -0.227  0.00  0.00    +0.212 C 
ATOM      3  O   UNL     1      -2.674   2.187  -0.823  0.00  0.00    -0.276 OA
ATOM      4  H   UNL     1      -5.422   0.869  -0.339  0.00  0.00    +0.149 HD
ENDROOT
BRANCH   1   8
ATOM      5  N   UNL     1      -5.462  -0.136  -4.751  0.00  0.00    -0.328 N 
ATOM      6  C   UNL     1      -4.995  -1.172  -3.821  0.00  0.00    +0.107 C 
ATOM      7  C   UNL     1      -5.183  -0.688  -2.381  0.00  0.00    +0.041 C 
ATOM      8  C   UNL     1      -4.389   0.605  -2.175  0.00  0.00    +0.076 C 
ATOM      9  C   UNL     1      -4.861   1.652  -3.188  0.00  0.00    +0.041 C 
ATOM     10  C   UNL     1      -4.682   1.100  -4.604  0.00  0.00    +0.107 C 
BRANCH   5  15
ATOM     11  C   UNL     1      -6.138  -2.159  -7.745  0.00  0.00    +0.002 A 
ATOM     12  C   UNL     1      -5.359  -1.508  -8.684  0.00  0.00    +0.003 A 
ATOM     13  C   UNL     1      -4.613  -0.401  -8.321  0.00  0.00    +0.040 A 
ATOM     14  C   UNL     1      -4.645   0.057  -7.017  0.00  0.00    +0.144 A 
ATOM     15  C   UNL     1      -5.427  -0.596  -6.071  0.00  0.00    +0.065 A 
ATOM     16  C   UNL     1      -6.170  -1.710  -6.439  0.00  0.00    +0.026 A 
ATOM     17  F   UNL     1      -3.916   1.138  -6.662  0.00  0.00    -0.204 F 
ENDBRANCH   5  15
ENDBRANCH   1   8
BRANCH   2  18
ATOM     18  C   UNL     1      -3.917   2.405   1.171  0.00  0.00    +0.089 C 
BRANCH  18  19
ATOM     19  C   UNL     1      -2.668   3.146   1.653  0.00  0.00    +0.028 C 
ATOM     20  C   UNL     1      -1.500   2.201   1.660  0.00  0.00    +0.200 C 
ATOM     21  O   UNL     1      -1.665   1.077   2.083  0.00  0.00    -0.278 OA
ATOM     22  N   UNL     1      -0.286   2.549   1.220  0.00  0.00    -0.318 N 
ATOM     23  C   UNL     1       0.009   3.864   0.659  0.00  0.00    +0.085 C 
ATOM     24  C   UNL     1      -1.079   4.862   1.062  0.00  0.00    -0.058 C 
ATOM     25  H   UNL     1       0.431   1.898   1.276  0.00  0.00    +0.149 HD
ATOM     26  N   UNL     1      -2.390   4.266   0.734  0.00  0.00    +0.392 N 
ATOM     27  H   UNL     1      -2.366   3.911  -0.230  0.00  0.00    -0.080 HD
BRANCH  26  28
ATOM     28  C   UNL     1      -3.455   5.288   0.844  0.00  0.00    -0.034 C 
BRANCH  28  29
ATOM     29  C   UNL     1      -3.405   6.178  -0.372  0.00  0.00    -0.027 A 
ATOM     30  C   UNL     1      -4.037   6.033  -1.562  0.00  0.00    +0.009 A 
ATOM     31  C   UNL     1      -3.844   6.987  -2.543  0.00  0.00    +0.008 A 
ATOM     32  C   UNL     1      -3.029   8.039  -2.287  0.00  0.00    +0.045 A 
ATOM     33  S   UNL     1      -2.502   7.699  -0.615  0.00  0.00    -0.103 S 
ENDBRANCH  28  29
ENDBRANCH  26  28
ENDBRANCH  18  19
ENDBRANCH   2  18
TORSDOF 6
