REMARK  Name = ZINC13992633
REMARK  9 active torsions:
REMARK  status: ('A' for Active; 'I' for Inactive)
REMARK    1  A    between atoms: C_1  and  C_2
REMARK    2  A    between atoms: C_6  and  O_8
REMARK    3  A    between atoms: O_8  and  C_9
REMARK    4  A    between atoms: C_9  and  C_11
REMARK    5  A    between atoms: C_9  and  C_12
REMARK    6  A    between atoms: N_14  and  C_15
REMARK    7  A    between atoms: C_18  and  S_21
REMARK    8  A    between atoms: S_21  and  N_24
REMARK    9  A    between atoms: N_27  and  C_30
REMARK                            x       y       z     vdW  Elec       q    Type
REMARK                         _______ _______ _______ _____ _____    ______ ____
ROOT
ATOM      1  C   UNL     1       2.060  -6.671   4.276  0.00  0.00    +0.034 A 
ATOM      2  C   UNL     1       2.687  -5.854   5.208  0.00  0.00    +0.025 A 
ATOM      3  C   UNL     1       3.505  -6.410   6.172  0.00  0.00    +0.030 A 
ATOM      4  C   UNL     1       3.700  -7.779   6.209  0.00  0.00    +0.106 A 
ATOM      5  C   UNL     1       3.078  -8.595   5.282  0.00  0.00    +0.030 A 
ATOM      6  C   UNL     1       2.254  -8.045   4.320  0.00  0.00    +0.025 A 
ENDROOT
BRANCH   1   9
ATOM      7  C   UNL     1       0.153  -6.790   2.858  0.00  0.00    +0.258 C 
ATOM      8  O   UNL     1      -0.152  -7.844   3.376  0.00  0.00    -0.271 OA
ATOM      9  N   UNL     1       1.231  -6.111   3.298  0.00  0.00    -0.282 N 
ATOM     10  H   UNL     1       1.431  -5.233   2.937  0.00  0.00    +0.155 HD
BRANCH   7  11
ATOM     11  C   UNL     1      -0.672  -6.241   1.723  0.00  0.00    +0.256 C 
ATOM     12  C   UNL     1       0.171  -6.211   0.447  0.00  0.00    +0.062 C 
BRANCH  11  13
ATOM     13  O   UNL     1      -1.815  -7.074   1.519  0.00  0.00    -0.480 OA
BRANCH  13  19
ATOM     14  C   UNL     1      -6.466  -7.410   0.078  0.00  0.00    +0.044 C 
ATOM     15  C   UNL     1      -5.182  -6.633   0.214  0.00  0.00    -0.047 A 
ATOM     16  C   UNL     1      -5.107  -5.335  -0.257  0.00  0.00    +0.003 A 
ATOM     17  C   UNL     1      -3.931  -4.620  -0.134  0.00  0.00    +0.004 A 
ATOM     18  C   UNL     1      -2.827  -5.200   0.460  0.00  0.00    +0.046 A 
ATOM     19  C   UNL     1      -2.900  -6.502   0.934  0.00  0.00    +0.122 A 
ATOM     20  C   UNL     1      -4.083  -7.216   0.815  0.00  0.00    +0.049 A 
ENDBRANCH  13  19
ENDBRANCH  11  13
ENDBRANCH   7  11
ENDBRANCH   1   9
BRANCH   4  21
ATOM     21  S   UNL     1       4.745  -8.484   7.441  0.00  0.00    +0.061 S 
ATOM     22  O   UNL     1       5.196  -9.729   6.926  0.00  0.00    -0.153 OA
ATOM     23  O   UNL     1       5.640  -7.459   7.850  0.00  0.00    -0.153 OA
BRANCH  21  24
ATOM     24  N   UNL     1       3.792  -8.831   8.750  0.00  0.00    -0.174 NA
ATOM     25  C   UNL     1       3.578  -7.837   9.813  0.00  0.00    +0.125 C 
ATOM     26  C   UNL     1       2.071  -7.702  10.057  0.00  0.00    +0.101 C 
ATOM     27  N   UNL     1       1.502  -9.029  10.325  0.00  0.00    -0.303 NA
ATOM     28  C   UNL     1       1.649  -9.916   9.163  0.00  0.00    +0.101 C 
ATOM     29  C   UNL     1       3.133 -10.140   8.879  0.00  0.00    +0.125 C 
ATOM     30  C   UNL     1       0.094  -8.925  10.733  0.00  0.00    +0.105 C 
ENDBRANCH  21  24
ENDBRANCH   4  21
TORSDOF 6
