REMARK  Name = ZINC67510044
REMARK  5 active torsions:
REMARK  status: ('A' for Active; 'I' for Inactive)
REMARK    1  A    between atoms: C_1  and  N_2
REMARK    2  A    between atoms: C_6  and  C_7
REMARK    3  A    between atoms: C_15  and  C_17
REMARK    4  A    between atoms: N_22  and  C_24
REMARK    5  A    between atoms: C_24  and  C_25
REMARK                            x       y       z     vdW  Elec       q    Type
REMARK                         _______ _______ _______ _____ _____    ______ ____
ROOT
ATOM      1  C   UNL     1       0.113  -0.564   2.728  0.00  0.00    +0.123 C 
ATOM      2  C   UNL     1       1.646  -0.538   2.945  0.00  0.00    +0.029 C 
ATOM      3  C   UNL     1       1.961  -0.097   4.312  0.00  0.00    +0.002 C 
ATOM      4  C   UNL     1       1.440  -1.023   5.407  0.00  0.00    +0.002 C 
ATOM      5  C   UNL     1       0.008  -0.668   5.723  0.00  0.00    +0.019 C 
ATOM      6  C   UNL     1      -0.948  -1.512   4.861  0.00  0.00    +0.109 C 
ATOM      7  N   UNL     1      -0.464  -1.659   3.474  0.00  0.00    -0.288 N 
ATOM      8  C   UNL     1      -0.564  -2.865   2.879  0.00  0.00    +0.267 C 
ATOM      9  O   UNL     1      -0.052  -3.050   1.792  0.00  0.00    -0.268 OA
ENDROOT
BRANCH   8  10
ATOM     10  C   UNL     1      -1.296  -3.961   3.549  0.00  0.00    +0.146 A 
ATOM     11  C   UNL     1      -1.256  -5.269   3.009  0.00  0.00    +0.040 A 
ATOM     12  C   UNL     1      -1.943  -6.255   3.654  0.00  0.00    +0.074 A 
ATOM     13  C   UNL     1      -2.655  -5.908   4.823  0.00  0.00    +0.268 A 
ATOM     14  O   UNL     1      -3.284  -6.757   5.433  0.00  0.00    -0.266 OA
ATOM     15  N   UNL     1      -2.635  -4.635   5.260  0.00  0.00    -0.224 N 
ATOM     16  N   UNL     1      -1.979  -3.719   4.645  0.00  0.00    -0.163 NA
BRANCH  15  17
ATOM     17  C   UNL     1      -3.377  -4.287   6.475  0.00  0.00    +0.182 C 
BRANCH  17  18
ATOM     18  C   UNL     1      -2.482  -4.456   7.676  0.00  0.00    -0.026 A 
ATOM     19  C   UNL     1      -2.426  -5.672   8.330  0.00  0.00    +0.005 A 
ATOM     20  C   UNL     1      -1.606  -5.826   9.432  0.00  0.00    +0.000 A 
ATOM     21  C   UNL     1      -0.841  -4.765   9.879  0.00  0.00    +0.000 A 
ATOM     22  C   UNL     1      -0.897  -3.549   9.224  0.00  0.00    +0.000 A 
ATOM     23  C   UNL     1      -1.714  -3.396   8.119  0.00  0.00    +0.005 A 
ENDBRANCH  17  18
ENDBRANCH  15  17
ENDBRANCH   8  10
BRANCH   1  29
ATOM     24  C   UNL     1       2.099  -1.532   0.553  0.00  0.00    +0.148 C 
ATOM     25  N   UNL     1       0.700  -1.172   0.314  0.00  0.00    -0.352 N 
ATOM     26  C   UNL     1       0.063  -1.213  -0.891  0.00  0.00    +0.085 A 
ATOM     27  C   UNL     1      -1.211  -0.810  -0.709  0.00  0.00    +0.019 A 
ATOM     28  C   UNL     1      -1.367  -0.509   0.659  0.00  0.00    +0.024 A 
ATOM     29  C   UNL     1      -0.183  -0.745   1.261  0.00  0.00    +0.039 A 
ENDBRANCH   1  29
TORSDOF 4
