REMARK  Name = ZINC66872045
REMARK  3 active torsions:
REMARK  status: ('A' for Active; 'I' for Inactive)
REMARK    1  A    between atoms: C_9  and  S_11
REMARK    2  A    between atoms: S_11  and  N_14
REMARK    3  A    between atoms: C_20  and  C_22
REMARK                            x       y       z     vdW  Elec       q    Type
REMARK                         _______ _______ _______ _____ _____    ______ ____
ROOT
ATOM      1  N   UNL     1       6.863  -4.102  -2.335  0.00  0.00    -0.174 NA
ATOM      2  C   UNL     1       5.948  -4.949  -3.114  0.00  0.00    +0.128 C 
ATOM      3  C   UNL     1       5.020  -4.043  -3.932  0.00  0.00    +0.125 C 
ATOM      4  N   UNL     1       5.838  -3.047  -4.639  0.00  0.00    -0.299 N 
ATOM      5  C   UNL     1       6.753  -2.201  -3.860  0.00  0.00    +0.125 C 
ATOM      6  C   UNL     1       7.677  -3.103  -3.041  0.00  0.00    +0.128 C 
ATOM      7  C   UNL     1       5.751  -2.913  -5.977  0.00  0.00    +0.219 C 
ATOM      8  O   UNL     1       5.051  -3.669  -6.618  0.00  0.00    -0.275 OA
ENDROOT
BRANCH   7   9
ATOM      9  C   UNL     1       6.522  -1.824  -6.677  0.00  0.00    +0.075 C 
ATOM     10  C   UNL     1       5.749  -0.508  -6.579  0.00  0.00    +0.013 C 
ATOM     11  C   UNL     1       6.532   0.598  -7.290  0.00  0.00    +0.001 C 
ATOM     12  C   UNL     1       6.720   0.225  -8.762  0.00  0.00    +0.000 C 
ATOM     13  C   UNL     1       7.493  -1.092  -8.860  0.00  0.00    +0.001 C 
ATOM     14  C   UNL     1       6.710  -2.198  -8.149  0.00  0.00    +0.013 C 
ENDBRANCH   7   9
BRANCH   1  15
ATOM     15  S   UNL     1       6.970  -4.267  -0.691  0.00  0.00    +0.057 S 
ATOM     16  O   UNL     1       8.247  -3.769  -0.315  0.00  0.00    -0.153 OA
ATOM     17  O   UNL     1       6.549  -5.590  -0.387  0.00  0.00    -0.153 OA
BRANCH  15  26
ATOM     18  C   UNL     1       3.299   0.487   2.387  0.00  0.00    +0.000 A 
ATOM     19  C   UNL     1       4.560   0.980   2.102  0.00  0.00    +0.001 A 
ATOM     20  C   UNL     1       5.508   0.163   1.520  0.00  0.00    +0.008 A 
ATOM     21  C   UNL     1       5.189  -1.157   1.216  0.00  0.00    -0.020 A 
ATOM     22  C   UNL     1       3.921  -1.655   1.524  0.00  0.00    -0.040 A 
ATOM     23  C   UNL     1       2.981  -0.829   2.100  0.00  0.00    +0.004 A 
ATOM     24  C   UNL     1       3.604  -3.101   1.242  0.00  0.00    +0.042 C 
ATOM     25  C   UNL     1       4.321  -3.553  -0.028  0.00  0.00    +0.061 C 
ATOM     26  C   UNL     1       5.777  -3.183   0.020  0.00  0.00    +0.084 C 
ATOM     27  C   UNL     1       6.178  -2.056   0.587  0.00  0.00    +0.032 C 
ENDBRANCH  15  26
ENDBRANCH   1  15
TORSDOF 3
