REMARK  Name = ZINC12286542
REMARK  8 active torsions:
REMARK  status: ('A' for Active; 'I' for Inactive)
REMARK    1  A    between atoms: C_1  and  C_2
REMARK    2  A    between atoms: C_4  and  C_8
REMARK    3  A    between atoms: N_6  and  C_7
REMARK    4  A    between atoms: C_8  and  N_10
REMARK    5  A    between atoms: N_12  and  C_24
REMARK    6  A    between atoms: C_16  and  S_20
REMARK    7  A    between atoms: S_20  and  C_23
REMARK    8  A    between atoms: C_24  and  C_25
REMARK                            x       y       z     vdW  Elec       q    Type
REMARK                         _______ _______ _______ _____ _____    ______ ____
ROOT
ATOM      1  N   UNL     1       0.555  -4.625  -0.836  0.00  0.00    -0.151 NA
ATOM      2  C   UNL     1       0.214  -5.705  -1.530  0.00  0.00    +0.168 A 
ATOM      3  N   UNL     1      -0.042  -5.793  -2.861  0.00  0.00    -0.310 N 
ATOM      4  C   UNL     1      -0.384  -7.013  -3.416  0.00  0.00    +0.059 A 
ATOM      5  C   UNL     1      -0.686  -7.325  -4.748  0.00  0.00    +0.029 A 
ATOM      6  C   UNL     1      -1.007  -8.613  -5.110  0.00  0.00    +0.029 A 
ATOM      7  C   UNL     1      -1.043  -9.633  -4.174  0.00  0.00    +0.089 A 
ATOM      8  C   UNL     1      -0.750  -9.350  -2.851  0.00  0.00    +0.044 A 
ATOM      9  C   UNL     1      -0.428  -8.064  -2.489  0.00  0.00    +0.041 A 
ATOM     10  S   UNL     1       0.010  -7.274  -0.962  0.00  0.00    -0.052 S 
ENDROOT
BRANCH   7  11
ATOM     11  S   UNL     1      -1.459 -11.274  -4.662  0.00  0.00    -0.006 S 
ATOM     12  O   UNL     1      -1.994 -11.876  -3.491  0.00  0.00    -0.170 OA
ATOM     13  O   UNL     1      -2.260 -11.115  -5.824  0.00  0.00    -0.170 OA
ATOM     14  C   UNL     1       0.124 -12.047  -5.095  0.00  0.00    +0.200 C 
ENDBRANCH   7  11
BRANCH   1  15
ATOM     15  C   UNL     1       0.461  -3.414  -1.394  0.00  0.00    +0.290 C 
ATOM     16  O   UNL     1       1.453  -2.877  -1.855  0.00  0.00    -0.266 OA
BRANCH  15  20
ATOM     17  C   UNL     1      -3.205  -0.019  -2.262  0.00  0.00    +0.065 C 
ATOM     18  C   UNL     1      -2.431  -1.241  -1.838  0.00  0.00    +0.037 A 
ATOM     19  C   UNL     1      -1.104  -1.451  -2.010  0.00  0.00    +0.057 A 
ATOM     20  C   UNL     1      -0.848  -2.726  -1.454  0.00  0.00    +0.149 A 
ATOM     21  N   UNL     1      -1.996  -3.185  -0.999  0.00  0.00    -0.167 NA
ATOM     22  N   UNL     1      -2.929  -2.328  -1.211  0.00  0.00    -0.271 N 
ATOM     23  C   UNL     1      -4.333  -2.506  -0.831  0.00  0.00    +0.172 C 
ENDBRANCH  15  20
ENDBRANCH   1  15
BRANCH   3  24
ATOM     24  C   UNL     1       0.044  -4.600  -3.707  0.00  0.00    +0.212 C 
BRANCH  24  25
ATOM     25  C   UNL     1       1.446  -4.373  -4.095  0.00  0.00    -0.084 C 
ATOM     26  C   UNL     1       2.564  -4.193  -4.404  0.00  0.00    +0.005 C 
ENDBRANCH  24  25
ENDBRANCH   3  24
TORSDOF 5
