REMARK  Name = ZINC33932252
REMARK  4 active torsions:
REMARK  status: ('A' for Active; 'I' for Inactive)
REMARK    1  A    between atoms: C_1  and  C_2
REMARK    2  A    between atoms: C_5  and  N_8
REMARK    3  A    between atoms: C_12  and  N_16
REMARK    4  A    between atoms: C_20  and  C_23
REMARK                            x       y       z     vdW  Elec       q    Type
REMARK                         _______ _______ _______ _____ _____    ______ ____
ROOT
ATOM      1  N   UNL     1       0.059  -4.172  -0.021  0.00  0.00    -0.212 N 
ATOM      2  C   UNL     1      -0.030  -4.892  -1.146  0.00  0.00    +0.225 C 
ATOM      3  O   UNL     1      -0.134  -4.436  -2.265  0.00  0.00    -0.275 OA
ATOM      4  C   UNL     1       0.020  -6.364  -0.801  0.00  0.00    +0.090 C 
ATOM      5  C   UNL     1       0.155  -6.371   0.735  0.00  0.00    +0.029 C 
ATOM      6  C   UNL     1       0.172  -4.902   1.096  0.00  0.00    +0.213 C 
ATOM      7  O   UNL     1       0.271  -4.455   2.219  0.00  0.00    -0.277 OA
ENDROOT
BRANCH   5   8
ATOM      8  N   UNL     1      -0.993  -7.049   1.352  0.00  0.00    +0.388 N 
ATOM      9  C   UNL     1      -0.842  -7.033   2.812  0.00  0.00    -0.078 C 
ATOM     10  C   UNL     1      -2.074  -7.666   3.462  0.00  0.00    -0.018 C 
ATOM     11  C   UNL     1      -2.213  -9.112   2.978  0.00  0.00    -0.001 C 
ATOM     12  C   UNL     1      -2.295  -9.123   1.449  0.00  0.00    -0.031 C 
ATOM     13  C   UNL     1      -1.055  -8.435   0.873  0.00  0.00    -0.075 C 
ATOM     14  C   UNL     1      -2.357 -10.568   0.951  0.00  0.00    +0.005 C 
ATOM     15  H   UNL     1      -1.843  -6.568   1.098  0.00  0.00    -0.081 HD
ENDBRANCH   5   8
BRANCH   1  20
ATOM     16  C   UNL     1      -0.016   1.503   0.009  0.00  0.00    +0.044 C 
ATOM     17  C   UNL     1       0.004  -0.004   0.001  0.00  0.00    -0.050 A 
ATOM     18  C   UNL     1       1.156  -0.681   0.357  0.00  0.00    +0.005 A 
ATOM     19  C   UNL     1       1.177  -2.062   0.351  0.00  0.00    +0.024 A 
ATOM     20  C   UNL     1       0.040  -2.771  -0.013  0.00  0.00    +0.044 A 
ATOM     21  C   UNL     1      -1.115  -2.088  -0.370  0.00  0.00    +0.024 A 
ATOM     22  C   UNL     1      -1.132  -0.707  -0.357  0.00  0.00    +0.005 A 
ENDBRANCH   1  20
TORSDOF 2
