REMARK  Name = ZINC18055817
REMARK  5 active torsions:
REMARK  status: ('A' for Active; 'I' for Inactive)
REMARK    1  A    between atoms: C_1  and  C_2
REMARK    2  A    between atoms: C_2  and  C_3
REMARK    3  A    between atoms: C_2  and  N_4
REMARK    4  A    between atoms: C_11  and  C_18
REMARK    5  A    between atoms: C_15  and  O_17
REMARK                            x       y       z     vdW  Elec       q    Type
REMARK                         _______ _______ _______ _____ _____    ______ ____
ROOT
ATOM      1  N   UNL     1      -1.372  -0.511   0.012  0.00  0.00    -0.264 N 
ATOM      2  C   UNL     1      -1.949  -1.323  -0.963  0.00  0.00    +0.161 A 
ATOM      3  C   UNL     1      -3.242  -1.563  -0.574  0.00  0.00    +0.079 A 
ATOM      4  C   UNL     1      -3.458  -0.896   0.655  0.00  0.00    +0.271 A 
ATOM      5  O   UNL     1      -4.497  -0.895   1.292  0.00  0.00    -0.266 OA
ATOM      6  N   UNL     1      -2.324  -0.269   1.003  0.00  0.00    -0.261 N 
ATOM      7  H   UNL     1      -2.190   0.263   1.803  0.00  0.00    +0.190 HD
ATOM      8  C   UNL     1      -4.314  -2.364  -1.249  0.00  0.00    +0.116 C 
ATOM      9  S   UNL     1      -3.668  -3.783  -2.141  0.00  0.00    -0.138 S 
ATOM     10  C   UNL     1      -2.693  -3.109  -3.494  0.00  0.00    +0.165 C 
ATOM     11  C   UNL     1      -1.458  -2.437  -3.036  0.00  0.00    +0.199 C 
ATOM     12  N   UNL     1      -1.256  -1.720  -2.025  0.00  0.00    -0.197 NA
ENDROOT
BRANCH   8  13
ATOM     13  C   UNL     1      -5.287  -2.851  -0.206  0.00  0.00    -0.030 A 
ATOM     14  C   UNL     1      -4.846  -3.658   0.826  0.00  0.00    +0.008 A 
ATOM     15  C   UNL     1      -5.736  -4.105   1.784  0.00  0.00    +0.038 A 
ATOM     16  C   UNL     1      -7.071  -3.743   1.710  0.00  0.00    +0.123 A 
ATOM     17  C   UNL     1      -7.511  -2.935   0.676  0.00  0.00    +0.038 A 
ATOM     18  C   UNL     1      -6.618  -2.485  -0.278  0.00  0.00    +0.008 A 
ATOM     19  F   UNL     1      -7.942  -4.180   2.645  0.00  0.00    -0.205 F 
ENDBRANCH   8  13
BRANCH   1  21
ATOM     20  C   UNL     1      -0.019   1.526   0.010  0.00  0.00    +0.032 C 
ATOM     21  C   UNL     1       0.002  -0.004   0.002  0.00  0.00    +0.101 C 
ATOM     22  C   UNL     1       0.742  -0.511   1.242  0.00  0.00    +0.032 C 
ENDBRANCH   1  21
BRANCH  11  23
ATOM     23  O   UNL     1      -0.385  -2.621  -3.825  0.00  0.00    -0.495 OA
ATOM     24  H   UNL     1       0.414  -2.175  -3.512  0.00  0.00    +0.293 HD
ENDBRANCH  11  23
TORSDOF 3
