REMARK  Name = ZINC09528122
REMARK  4 active torsions:
REMARK  status: ('A' for Active; 'I' for Inactive)
REMARK    1  A    between atoms: C_1  and  C_2
REMARK    2  A    between atoms: C_2  and  C_3
REMARK    3  A    between atoms: C_3  and  C_4
REMARK    4  A    between atoms: N_16  and  C_17
REMARK                            x       y       z     vdW  Elec       q    Type
REMARK                         _______ _______ _______ _____ _____    ______ ____
ROOT
ATOM      1  C   UNL     1       2.834   1.644  -0.039  0.00  0.00    +0.124 C 
ATOM      2  C   UNL     1       1.483   2.321  -0.065  0.00  0.00    +0.039 A 
ATOM      3  C   UNL     1       0.276   1.738  -0.147  0.00  0.00    +0.024 A 
ATOM      4  C   UNL     1      -0.688   2.768  -0.133  0.00  0.00    +0.019 A 
ATOM      5  C   UNL     1      -0.027   3.941  -0.036  0.00  0.00    +0.086 A 
ATOM      6  N   UNL     1       1.308   3.676  -0.001  0.00  0.00    -0.347 N 
ATOM      7  C   UNL     1       2.398   4.654   0.085  0.00  0.00    +0.140 C 
ATOM      8  C   UNL     1       3.673   3.949   0.560  0.00  0.00    +0.131 C 
ATOM      9  N   UNL     1       3.849   2.701  -0.199  0.00  0.00    -0.275 N 
ATOM     10  C   UNL     1       4.906   2.530  -1.016  0.00  0.00    +0.303 C 
ATOM     11  O   UNL     1       5.093   1.454  -1.552  0.00  0.00    -0.253 OA
ATOM     12  N   UNL     1       5.757   3.551  -1.241  0.00  0.00    -0.296 N 
ATOM     13  H   UNL     1       5.565   4.431  -0.880  0.00  0.00    +0.151 HD
ENDROOT
BRANCH  12  14
ATOM     14  C   UNL     1       6.971   3.333  -2.031  0.00  0.00    +0.074 C 
ATOM     15  C   UNL     1       8.081   2.801  -1.122  0.00  0.00    +0.022 C 
ATOM     16  C   UNL     1       9.350   2.572  -1.947  0.00  0.00    +0.002 C 
ATOM     17  C   UNL     1       9.795   3.895  -2.575  0.00  0.00    +0.000 C 
ATOM     18  C   UNL     1       8.684   4.427  -3.484  0.00  0.00    +0.002 C 
ATOM     19  C   UNL     1       7.416   4.655  -2.659  0.00  0.00    +0.022 C 
ENDBRANCH  12  14
BRANCH   1  20
ATOM     20  C   UNL     1       2.938   0.641  -1.190  0.00  0.00    +0.028 C 
BRANCH  20  22
ATOM     21  C   UNL     1       2.991   0.397  -3.676  0.00  0.00    +0.004 C 
ATOM     22  C   UNL     1       2.756   1.373  -2.521  0.00  0.00    -0.001 C 
ENDBRANCH  20  22
ENDBRANCH   1  20
TORSDOF 3
