REMARK  Name = ZINC64087482
REMARK  6 active torsions:
REMARK  status: ('A' for Active; 'I' for Inactive)
REMARK    1  A    between atoms: C_1  and  C_2
REMARK    2  A    between atoms: C_5  and  C_16
REMARK    3  A    between atoms: C_6  and  C_15
REMARK    4  A    between atoms: N_7  and  C_8
REMARK    5  A    between atoms: C_8  and  C_9
REMARK    6  A    between atoms: C_21  and  C_24
REMARK                            x       y       z     vdW  Elec       q    Type
REMARK                         _______ _______ _______ _____ _____    ______ ____
ROOT
ATOM      1  C   UNL     1       3.119  -2.092  -1.316  0.00  0.00    +0.244 C 
ATOM      2  O   UNL     1       4.175  -2.496  -0.865  0.00  0.00    -0.270 OA
ATOM      3  N   UNL     1       2.920  -2.069  -2.649  0.00  0.00    -0.294 N 
ATOM      4  C   UNL     1       3.906  -2.643  -3.580  0.00  0.00    +0.113 C 
ATOM      5  C   UNL     1       3.237  -3.801  -4.324  0.00  0.00    +0.054 C 
ATOM      6  C   UNL     1       1.874  -3.398  -4.802  0.00  0.00    -0.043 C 
ATOM      7  C   UNL     1       1.187  -2.370  -4.316  0.00  0.00    -0.004 C 
ATOM      8  C   UNL     1       1.707  -1.476  -3.230  0.00  0.00    +0.135 C 
ENDROOT
BRANCH   6   9
ATOM      9  C   UNL     1       1.284  -4.157  -5.832  0.00  0.00    -0.015 C 
ATOM     10  C   UNL     1       1.767  -5.334  -6.391  0.00  0.00    +0.022 A 
ATOM     11  C   UNL     1       2.922  -6.111  -6.141  0.00  0.00    +0.013 A 
ATOM     12  C   UNL     1       3.112  -7.240  -6.880  0.00  0.00    +0.020 A 
ATOM     13  C   UNL     1       2.189  -7.614  -7.856  0.00  0.00    +0.113 A 
ATOM     14  N   UNL     1       1.111  -6.917  -8.111  0.00  0.00    -0.238 NA
ATOM     15  C   UNL     1       0.829  -5.783  -7.436  0.00  0.00    +0.135 A 
ATOM     16  N   UNL     1      -0.181  -4.947  -7.533  0.00  0.00    -0.365 N 
ATOM     17  C   UNL     1      -0.012  -3.867  -6.556  0.00  0.00    +0.150 C 
ATOM     18  H   UNL     1      -0.924  -5.033  -8.151  0.00  0.00    +0.161 HD
ENDBRANCH   6   9
BRANCH   1  22
ATOM     19  C   UNL     1       1.040  -0.266   2.582  0.00  0.00    +0.028 C 
ATOM     20  C   UNL     1       0.757  -0.363   1.081  0.00  0.00    +0.075 C 
ATOM     21  C   UNL     1       2.073  -0.317   0.280  0.00  0.00    +0.064 C 
ATOM     22  C   UNL     1       2.100  -1.647  -0.441  0.00  0.00    +0.033 C 
ATOM     23  C   UNL     1       0.995  -2.332  -0.111  0.00  0.00    +0.012 C 
ATOM     24  N   UNL     1       0.176  -1.671   0.751  0.00  0.00    -0.324 N 
ATOM     25  C   UNL     1       0.688  -3.707  -0.647  0.00  0.00    +0.061 C 
BRANCH  24  26
ATOM     26  C   UNL     1      -1.093  -2.184   1.273  0.00  0.00    +0.160 C 
BRANCH  26  27
ATOM     27  C   UNL     1      -2.216  -1.778   0.353  0.00  0.00    +0.058 A 
ATOM     28  C   UNL     1      -2.648  -2.652  -0.626  0.00  0.00    +0.025 A 
ATOM     29  C   UNL     1      -3.681  -2.268  -1.466  0.00  0.00    +0.003 A 
ATOM     30  C   UNL     1      -4.244  -1.013  -1.290  0.00  0.00    +0.020 A 
ATOM     31  C   UNL     1      -3.759  -0.193  -0.289  0.00  0.00    +0.111 A 
ATOM     32  N   UNL     1      -2.778  -0.594   0.496  0.00  0.00    -0.258 NA
ENDBRANCH  26  27
ENDBRANCH  24  26
ENDBRANCH   1  22
TORSDOF 4
