REMARK  Name = ZINC36638572
REMARK  6 active torsions:
REMARK  status: ('A' for Active; 'I' for Inactive)
REMARK    1  A    between atoms: C_1  and  C_2
REMARK    2  A    between atoms: C_2  and  C_3
REMARK    3  A    between atoms: C_3  and  C_5
REMARK    4  A    between atoms: C_3  and  C_6
REMARK    5  A    between atoms: C_6  and  N_8
REMARK    6  A    between atoms: N_10  and  C_21
REMARK                            x       y       z     vdW  Elec       q    Type
REMARK                         _______ _______ _______ _____ _____    ______ ____
ROOT
ATOM      1  N   UNL     1       1.331  -2.698  -2.310  0.00  0.00    -0.159 NA
ATOM      2  C   UNL     1       1.591  -3.991  -2.161  0.00  0.00    +0.154 C 
ATOM      3  N   UNL     1       1.224  -4.810  -1.126  0.00  0.00    -0.273 N 
ATOM      4  C   UNL     1       1.908  -6.066  -0.955  0.00  0.00    +0.116 C 
ATOM      5  C   UNL     1       2.413  -6.307   0.467  0.00  0.00    +0.190 C 
ATOM      6  S   UNL     1       4.240  -6.298   0.281  0.00  0.00    -0.028 S 
ATOM      7  O   UNL     1       4.740  -7.593   0.587  0.00  0.00    -0.174 OA
ATOM      8  O   UNL     1       4.767  -5.168   0.962  0.00  0.00    -0.174 OA
ATOM      9  C   UNL     1       4.377  -6.020  -1.529  0.00  0.00    +0.182 C 
ATOM     10  C   UNL     1       2.967  -6.359  -2.030  0.00  0.00    +0.097 C 
ATOM     11  S   UNL     1       2.492  -5.066  -3.269  0.00  0.00    -0.086 S 
ENDROOT
BRANCH   3  12
ATOM     12  C   UNL     1       0.201  -4.431  -0.248  0.00  0.00    +0.073 A 
ATOM     13  C   UNL     1       0.497  -3.680   0.883  0.00  0.00    +0.064 A 
ATOM     14  C   UNL     1      -0.515  -3.308   1.748  0.00  0.00    +0.022 A 
ATOM     15  C   UNL     1      -1.821  -3.682   1.489  0.00  0.00    +0.003 A 
ATOM     16  C   UNL     1      -2.119  -4.429   0.364  0.00  0.00    +0.022 A 
ATOM     17  C   UNL     1      -1.113  -4.800  -0.508  0.00  0.00    +0.064 A 
ATOM     18 CL   UNL     1      -1.489  -5.731  -1.924  0.00  0.00    -0.082 Cl
ATOM     19 CL   UNL     1       2.136  -3.211   1.211  0.00  0.00    -0.082 Cl
ENDBRANCH   3  12
BRANCH   1  20
ATOM     20  C   UNL     1       0.508  -2.082  -1.464  0.00  0.00    +0.241 C 
ATOM     21  O   UNL     1      -0.636  -2.472  -1.338  0.00  0.00    -0.273 OA
BRANCH  20  22
ATOM     22  C   UNL     1       0.996  -0.902  -0.664  0.00  0.00    +0.074 C 
ATOM     23  C   UNL     1       1.446   0.208  -1.615  0.00  0.00    +0.017 C 
BRANCH  22  25
ATOM     24  C   UNL     1       0.389   0.732   1.127  0.00  0.00    +0.004 C 
ATOM     25  C   UNL     1      -0.139  -0.385   0.224  0.00  0.00    +0.009 C 
ENDBRANCH  22  25
ENDBRANCH  20  22
ENDBRANCH   1  20
TORSDOF 4
