REMARK  Name = ZINC06187298
REMARK  10 active torsions:
REMARK  status: ('A' for Active; 'I' for Inactive)
REMARK    1  A    between atoms: C_1  and  C_2
REMARK    2  A    between atoms: C_2  and  O_3
REMARK    3  A    between atoms: O_3  and  C_4
REMARK    4  A    between atoms: C_7  and  C_12
REMARK    5  A    between atoms: C_9  and  O_10
REMARK    6  A    between atoms: O_10  and  C_11
REMARK    7  A    between atoms: C_19  and  N_32
REMARK    8  A    between atoms: C_20  and  C_30
REMARK    9  A    between atoms: C_21  and  C_23
REMARK   10  A    between atoms: C_26  and  C_29
REMARK                            x       y       z     vdW  Elec       q    Type
REMARK                         _______ _______ _______ _____ _____    ______ ____
ROOT
ATOM      1  C   UNL     1       1.140  -6.040   1.758  0.00  0.00    +0.074 A 
ATOM      2  C   UNL     1       0.154  -6.950   1.566  0.00  0.00    +0.054 A 
ATOM      3  C   UNL     1       0.685  -8.230   1.818  0.00  0.00    +0.245 A 
ATOM      4  N   UNL     1       1.938  -8.096   2.149  0.00  0.00    -0.135 NA
ATOM      5  N   UNL     1       2.263  -6.731   2.117  0.00  0.00    -0.273 N 
ATOM      6  H   UNL     1       3.131  -6.346   2.317  0.00  0.00    +0.189 HD
ATOM      7  O   UNL     1      -0.068  -9.357   1.704  0.00  0.00    -0.421 OA
ATOM      8  C   UNL     1      -1.259  -9.249   1.084  0.00  0.00    +0.201 C 
ATOM      9  C   UNL     1      -1.871  -8.079   0.801  0.00  0.00    +0.098 C 
ATOM     10  C   UNL     1      -1.281  -6.738   1.157  0.00  0.00    +0.102 C 
ENDROOT
BRANCH  10  11
ATOM     11  C   UNL     1      -2.052  -6.132   2.302  0.00  0.00    -0.035 A 
ATOM     12  C   UNL     1      -2.142  -6.804   3.507  0.00  0.00    +0.005 A 
ATOM     13  C   UNL     1      -2.849  -6.249   4.557  0.00  0.00    +0.003 A 
ATOM     14  C   UNL     1      -3.465  -5.021   4.402  0.00  0.00    -0.050 A 
ATOM     15  C   UNL     1      -3.374  -4.349   3.198  0.00  0.00    +0.003 A 
ATOM     16  C   UNL     1      -2.663  -4.902   2.149  0.00  0.00    +0.005 A 
ATOM     17  C   UNL     1      -4.237  -4.416   5.546  0.00  0.00    +0.044 C 
ENDBRANCH  10  11
BRANCH   1  21
ATOM     18  C   UNL     1       0.802  -1.825   1.306  0.00  0.00    +0.162 A 
ATOM     19  C   UNL     1       0.259  -2.671   0.350  0.00  0.00    +0.050 A 
ATOM     20  C   UNL     1       0.367  -4.038   0.494  0.00  0.00    +0.014 A 
ATOM     21  C   UNL     1       1.024  -4.574   1.602  0.00  0.00    +0.004 A 
ATOM     22  C   UNL     1       1.571  -3.723   2.564  0.00  0.00    +0.059 A 
ATOM     23  C   UNL     1       1.464  -2.353   2.412  0.00  0.00    +0.162 A 
BRANCH  23  24
ATOM     24  O   UNL     1       2.000  -1.521   3.344  0.00  0.00    -0.491 OA
ATOM     25  C   UNL     1       2.664  -2.131   4.453  0.00  0.00    +0.277 C 
ENDBRANCH  23  24
BRANCH  18  26
ATOM     26  O   UNL     1       0.693  -0.477   1.160  0.00  0.00    -0.489 OA
BRANCH  26  28
ATOM     27  C   UNL     1      -0.019   1.526   0.010  0.00  0.00    +0.048 C 
ATOM     28  C   UNL     1       0.002  -0.004   0.002  0.00  0.00    +0.226 C 
ENDBRANCH  26  28
ENDBRANCH  18  26
ENDBRANCH   1  21
BRANCH   8  29
ATOM     29  N   UNL     1      -1.895 -10.408   0.713  0.00  0.00    -0.328 N 
ATOM     30  H   UNL     1      -1.485 -11.267   0.900  0.00  0.00    +0.145 HD
ATOM     31  H   UNL     1      -2.754 -10.368   0.264  0.00  0.00    +0.145 HD
ENDBRANCH   8  29
BRANCH   9  32
ATOM     32  C   UNL     1      -3.136  -8.114   0.131  0.00  0.00    +0.101 C 
ATOM     33  N   UNL     1      -4.140  -8.141  -0.400  0.00  0.00    -0.191 NA
ENDBRANCH   9  32
TORSDOF 7
