REMARK  Name = ZINC43222935
REMARK  7 active torsions:
REMARK  status: ('A' for Active; 'I' for Inactive)
REMARK    1  A    between atoms: C_1  and  C_2
REMARK    2  A    between atoms: C_7  and  C_10
REMARK    3  A    between atoms: C_11  and  C_13
REMARK    4  A    between atoms: C_18  and  C_20
REMARK    5  A    between atoms: N_22  and  C_23
REMARK    6  A    between atoms: C_23  and  C_25
REMARK    7  A    between atoms: C_23  and  C_26
REMARK                            x       y       z     vdW  Elec       q    Type
REMARK                         _______ _______ _______ _____ _____    ______ ____
ROOT
ATOM      1  C   UNL     1       1.968   2.685  -3.961  0.00  0.00    +0.068 C 
ATOM      2  C   UNL     1       1.541   1.742  -2.815  0.00  0.00    -0.069 C 
ATOM      3  N   UNL     1       2.578   0.678  -2.800  0.00  0.00    +0.380 N 
ATOM      4  C   UNL     1       3.849   1.404  -3.054  0.00  0.00    -0.069 C 
ATOM      5  C   UNL     1       3.486   2.465  -4.119  0.00  0.00    +0.068 C 
ATOM      6  H   UNL     1       2.604   0.225  -1.899  0.00  0.00    -0.086 HD
ATOM      7  H   UNL     1       2.403   0.005  -3.531  0.00  0.00    -0.086 HD
ENDROOT
BRANCH   1  16
ATOM      8  C   UNL     1      -0.950   4.443  -7.282  0.00  0.00    +0.039 C 
ATOM      9  C   UNL     1      -1.765   3.211  -6.883  0.00  0.00    +0.133 C 
ATOM     10  C   UNL     1      -0.816   2.059  -6.534  0.00  0.00    +0.139 C 
ATOM     11  N   UNL     1      -0.093   2.411  -5.301  0.00  0.00    -0.296 N 
ATOM     12  C   UNL     1      -0.880   2.865  -4.144  0.00  0.00    +0.139 C 
ATOM     13  C   UNL     1      -1.827   3.977  -4.609  0.00  0.00    +0.133 C 
ATOM     14  O   UNL     1      -2.570   3.520  -5.743  0.00  0.00    -0.371 OA
ATOM     15  C   UNL     1      -2.790   4.335  -3.476  0.00  0.00    +0.039 C 
ATOM     16  C   UNL     1       1.250   2.320  -5.234  0.00  0.00    +0.218 C 
ATOM     17  O   UNL     1       1.881   1.943  -6.199  0.00  0.00    -0.275 OA
ENDBRANCH   1  16
BRANCH   5  18
ATOM     18  C   UNL     1       4.231   3.749  -3.856  0.00  0.00    +0.215 C 
ATOM     19  O   UNL     1       3.620   4.756  -3.568  0.00  0.00    -0.276 OA
ATOM     20  N   UNL     1       5.576   3.777  -3.942  0.00  0.00    -0.309 N 
ATOM     21  H   UNL     1       6.064   2.971  -4.173  0.00  0.00    +0.149 HD
BRANCH  20  22
ATOM     22  C   UNL     1       6.300   5.024  -3.687  0.00  0.00    +0.101 C 
ATOM     23  C   UNL     1       7.735   4.704  -3.263  0.00  0.00    +0.033 C 
BRANCH  22  24
ATOM     24  C   UNL     1       6.322   5.859  -4.941  0.00  0.00    -0.020 A 
ATOM     25  C   UNL     1       6.179   5.267  -6.159  0.00  0.00    +0.006 A 
ATOM     26  C   UNL     1       6.196   6.022  -7.330  0.00  0.00    +0.001 A 
ATOM     27  C   UNL     1       6.357   7.373  -7.290  0.00  0.00    +0.008 A 
ATOM     28  C   UNL     1       6.507   8.019  -6.052  0.00  0.00    -0.018 A 
ATOM     29  C   UNL     1       6.483   7.252  -4.860  0.00  0.00    -0.013 A 
ATOM     30  C   UNL     1       6.628   7.899  -3.621  0.00  0.00    +0.009 A 
ATOM     31  C   UNL     1       6.783   9.251  -3.582  0.00  0.00    +0.001 A 
ATOM     32  C   UNL     1       6.800  10.006  -4.753  0.00  0.00    +0.001 A 
ATOM     33  C   UNL     1       6.676   9.412  -5.971  0.00  0.00    +0.008 A 
ENDBRANCH  22  24
ENDBRANCH  20  22
ENDBRANCH   5  18
TORSDOF 4
