REMARK  Name = ZINC14248437
REMARK  4 active torsions:
REMARK  status: ('A' for Active; 'I' for Inactive)
REMARK    1  A    between atoms: C_1  and  C_2
REMARK    2  A    between atoms: C_6  and  O_8
REMARK    3  A    between atoms: O_8  and  C_9
REMARK    4  A    between atoms: C_15  and  C_18
REMARK                            x       y       z     vdW  Elec       q    Type
REMARK                         _______ _______ _______ _____ _____    ______ ____
ROOT
ATOM      1  C   UNL     1       2.342  -0.229   0.085  0.00  0.00    +0.238 A 
ATOM      2  C   UNL     1       3.553  -0.939   0.180  0.00  0.00    +0.073 A 
ATOM      3  C   UNL     1       3.542  -2.295   0.280  0.00  0.00    +0.055 A 
ATOM      4  C   UNL     1       2.308  -2.972   0.285  0.00  0.00    +0.178 A 
ATOM      5  N   UNL     1       1.962  -4.247   0.366  0.00  0.00    -0.128 NA
ATOM      6  N   UNL     1       0.678  -4.341   0.327  0.00  0.00    -0.123 NA
ATOM      7  C   UNL     1       0.140  -3.151   0.221  0.00  0.00    +0.258 A 
ATOM      8  N   UNL     1       1.144  -2.249   0.191  0.00  0.00    -0.186 N 
ATOM      9  N   UNL     1       1.191  -0.857   0.095  0.00  0.00    -0.125 NA
ENDROOT
BRANCH   7  10
ATOM     10  C   UNL     1      -1.333  -2.845   0.145  0.00  0.00    +0.454 C 
ATOM     11  F   UNL     1      -2.064  -3.970   0.543  0.00  0.00    -0.163 F 
ATOM     12  F   UNL     1      -1.631  -1.772   0.991  0.00  0.00    -0.163 F 
ATOM     13  F   UNL     1      -1.673  -2.510  -1.171  0.00  0.00    -0.163 F 
ENDBRANCH   7  10
BRANCH   1  14
ATOM     14  O   UNL     1       2.366   1.124  -0.014  0.00  0.00    -0.435 OA
BRANCH  14  20
ATOM     15  C   UNL     1      -1.274   3.298  -2.432  0.00  0.00    +0.044 C 
ATOM     16  C   UNL     1      -0.624   2.861  -1.144  0.00  0.00    -0.047 A 
ATOM     17  C   UNL     1      -1.236   3.135   0.065  0.00  0.00    +0.005 A 
ATOM     18  C   UNL     1      -0.641   2.741   1.249  0.00  0.00    +0.024 A 
ATOM     19  C   UNL     1       0.566   2.068   1.226  0.00  0.00    +0.083 A 
ATOM     20  C   UNL     1       1.180   1.787   0.013  0.00  0.00    +0.149 A 
ATOM     21  C   UNL     1       0.579   2.184  -1.173  0.00  0.00    +0.051 A 
ATOM     22 CL   UNL     1       1.314   1.573   2.712  0.00  0.00    -0.080 Cl
ENDBRANCH  14  20
ENDBRANCH   1  14
TORSDOF 3
