REMARK  Name = ZINC27926392
REMARK  4 active torsions:
REMARK  status: ('A' for Active; 'I' for Inactive)
REMARK    1  A    between atoms: C_3  and  O_21
REMARK    2  A    between atoms: C_6  and  C_7
REMARK    3  A    between atoms: C_10  and  C_18
REMARK    4  A    between atoms: C_12  and  C_14
REMARK                            x       y       z     vdW  Elec       q    Type
REMARK                         _______ _______ _______ _____ _____    ______ ____
ROOT
ATOM      1  C   UNL     1      -2.320   1.554   4.341  0.00  0.00    +0.279 C 
ATOM      2  O   UNL     1      -2.707   2.377   5.147  0.00  0.00    -0.265 OA
ATOM      3  N   UNL     1      -1.770   1.957   3.178  0.00  0.00    -0.200 N 
ATOM      4  C   UNL     1      -1.683   3.241   2.733  0.00  0.00    +0.052 A 
ATOM      5  C   UNL     1      -1.062   3.216   1.534  0.00  0.00    +0.057 A 
ATOM      6  C   UNL     1      -0.767   1.881   1.227  0.00  0.00    +0.166 A 
ATOM      7  N   UNL     1      -1.187   1.129   2.210  0.00  0.00    -0.159 NA
ENDROOT
BRANCH   1  13
ATOM      8  C   UNL     1      -1.901  -0.831   3.765  0.00  0.00    +0.017 A 
ATOM      9  C   UNL     1      -2.021  -2.173   4.047  0.00  0.00    +0.046 A 
ATOM     10  C   UNL     1      -2.698  -2.588   5.188  0.00  0.00    +0.117 A 
ATOM     11  C   UNL     1      -3.252  -1.651   6.052  0.00  0.00    +0.046 A 
ATOM     12  C   UNL     1      -3.132  -0.306   5.781  0.00  0.00    +0.017 A 
ATOM     13  C   UNL     1      -2.451   0.116   4.635  0.00  0.00    +0.041 A 
BRANCH  10  14
ATOM     14  O   UNL     1      -2.820  -3.912   5.458  0.00  0.00    -0.507 OA
ATOM     15  H   UNL     1      -3.355  -4.242   6.361  0.00  0.00    +0.292 HD
ENDBRANCH  10  14
ENDBRANCH   1  13
BRANCH   6  16
ATOM     16  C   UNL     1      -0.077   1.395  -0.022  0.00  0.00    +0.436 C 
ATOM     17  F   UNL     1      -0.053  -0.004  -0.027  0.00  0.00    -0.164 F 
ATOM     18  F   UNL     1       1.233   1.884  -0.051  0.00  0.00    -0.164 F 
ATOM     19  F   UNL     1      -0.771   1.854  -1.147  0.00  0.00    -0.164 F 
ENDBRANCH   6  16
BRANCH   4  20
ATOM     20  C   UNL     1      -2.183   4.468   3.452  0.00  0.00    +0.038 C 
ATOM     21  C   UNL     1      -2.719   5.618   2.597  0.00  0.00    +0.010 C 
ATOM     22  C   UNL     1      -1.369   5.755   3.303  0.00  0.00    +0.010 C 
ENDBRANCH   4  20
TORSDOF 4
