REMARK  Name = ZINC48025639
REMARK  8 active torsions:
REMARK  status: ('A' for Active; 'I' for Inactive)
REMARK    1  A    between atoms: C_1  and  C_2
REMARK    2  A    between atoms: C_2  and  C_4
REMARK    3  A    between atoms: C_2  and  N_17
REMARK    4  A    between atoms: N_6  and  C_7
REMARK    5  A    between atoms: C_12  and  O_13
REMARK    6  A    between atoms: O_13  and  C_14
REMARK    7  A    between atoms: C_20  and  C_23
REMARK    8  A    between atoms: C_23  and  C_24
REMARK                            x       y       z     vdW  Elec       q    Type
REMARK                         _______ _______ _______ _____ _____    ______ ____
ROOT
ATOM      1  C   UNL     1      -0.604   1.555  -0.178  0.00  0.00    -0.004 C 
ATOM      2  C   UNL     1      -0.032   0.156   0.058  0.00  0.00    +0.016 C 
ENDROOT
BRANCH   2   3
ATOM      3  N   UNL     1      -1.086  -0.723   0.581  0.00  0.00    +0.387 N 
ATOM      4  C   UNL     1      -0.521  -2.047   0.865  0.00  0.00    -0.078 C 
ATOM      5  C   UNL     1      -1.631  -2.990   1.333  0.00  0.00    -0.015 C 
ATOM      6  C   UNL     1      -2.273  -2.424   2.603  0.00  0.00    -0.006 C 
ATOM      7  C   UNL     1      -2.793  -1.013   2.315  0.00  0.00    -0.015 C 
ATOM      8  C   UNL     1      -1.639  -0.143   1.811  0.00  0.00    -0.078 C 
ATOM      9  H   UNL     1      -1.819  -0.812  -0.106  0.00  0.00    -0.081 HD
BRANCH   6  10
ATOM     10  C   UNL     1      -3.436  -3.321   3.032  0.00  0.00    +0.099 C 
BRANCH  10  11
ATOM     11  C   UNL     1      -3.987  -2.833   4.347  0.00  0.00    +0.211 C 
ATOM     12  O   UNL     1      -3.498  -1.864   4.888  0.00  0.00    -0.276 OA
ATOM     13  N   UNL     1      -5.024  -3.474   4.922  0.00  0.00    -0.329 N 
ATOM     14  H   UNL     1      -5.416  -4.249   4.490  0.00  0.00    +0.145 HD
ATOM     15  H   UNL     1      -5.379  -3.160   5.769  0.00  0.00    +0.145 HD
ENDBRANCH  10  11
ENDBRANCH   6  10
ENDBRANCH   2   3
BRANCH   2  16
ATOM     16  C   UNL     1       0.487  -0.400  -1.242  0.00  0.00    +0.203 C 
ATOM     17  O   UNL     1      -0.235  -1.077  -1.944  0.00  0.00    -0.277 OA
ATOM     18  N   UNL     1       1.754  -0.146  -1.626  0.00  0.00    -0.284 N 
ATOM     19  H   UNL     1       2.354   0.332  -1.033  0.00  0.00    +0.155 HD
BRANCH  18  20
ATOM     20  C   UNL     1       2.205  -0.574  -2.882  0.00  0.00    +0.076 A 
ATOM     21  C   UNL     1       1.292  -0.880  -3.881  0.00  0.00    +0.027 A 
ATOM     22  C   UNL     1       1.738  -1.300  -5.120  0.00  0.00    +0.002 A 
ATOM     23  C   UNL     1       3.094  -1.418  -5.366  0.00  0.00    +0.004 A 
ATOM     24  C   UNL     1       4.010  -1.115  -4.376  0.00  0.00    +0.048 A 
ATOM     25  C   UNL     1       3.570  -0.687  -3.133  0.00  0.00    +0.148 A 
BRANCH  25  26
ATOM     26  O   UNL     1       4.469  -0.383  -2.160  0.00  0.00    -0.432 OA
BRANCH  26  27
ATOM     27  C   UNL     1       5.853  -0.523  -2.489  0.00  0.00    +0.541 C 
ATOM     28  F   UNL     1       6.117  -1.850  -2.843  0.00  0.00    -0.166 F 
ATOM     29  F   UNL     1       6.164   0.317  -3.563  0.00  0.00    -0.166 F 
ENDBRANCH  26  27
ENDBRANCH  25  26
ENDBRANCH  18  20
ENDBRANCH   2  16
TORSDOF 7
