REMARK  Name = ZINC07736498
REMARK  3 active torsions:
REMARK  status: ('A' for Active; 'I' for Inactive)
REMARK    1  A    between atoms: C_4  and  C_7
REMARK    2  A    between atoms: C_7  and  S_8
REMARK    3  A    between atoms: S_8  and  C_9
REMARK                            x       y       z     vdW  Elec       q    Type
REMARK                         _______ _______ _______ _____ _____    ______ ____
ROOT
ATOM      1  C   UNL     1      -4.263   2.104   0.741  0.00  0.00    +0.170 C 
ATOM      2  N   UNL     1      -4.601   2.420   1.955  0.00  0.00    -0.185 NA
ATOM      3  S   UNL     1      -3.110   2.423   2.796  0.00  0.00    +0.052 S 
ATOM      4  C   UNL     1      -2.059   1.986   1.431  0.00  0.00    +0.205 C 
ATOM      5  N   UNL     1      -0.771   1.831   1.434  0.00  0.00    -0.109 NA
ATOM      6  S   UNL     1      -0.017   1.417   0.010  0.00  0.00    +0.073 S 
ATOM      7  O   UNL     1       0.002  -0.004   0.002  0.00  0.00    -0.151 OA
ATOM      8  O   UNL     1       1.192   2.162   0.002  0.00  0.00    -0.151 OA
ATOM      9  C   UNL     1      -1.155   2.042  -1.265  0.00  0.00    +0.212 C 
ATOM     10  C   UNL     1      -2.557   1.494  -0.984  0.00  0.00    +0.139 C 
ATOM     11  N   UNL     1      -2.962   1.861   0.391  0.00  0.00    -0.255 N 
ENDROOT
BRANCH   1  12
ATOM     12  S   UNL     1      -5.517   1.985  -0.491  0.00  0.00    -0.085 S 
BRANCH  12  13
ATOM     13  C   UNL     1      -6.974   2.392   0.502  0.00  0.00    +0.112 C 
BRANCH  13  17
ATOM     14  C   UNL     1     -10.458   2.277  -1.967  0.00  0.00    +0.000 A 
ATOM     15  C   UNL     1     -10.040   1.136  -1.306  0.00  0.00    +0.000 A 
ATOM     16  C   UNL     1      -8.913   1.173  -0.508  0.00  0.00    +0.004 A 
ATOM     17  C   UNL     1      -8.203   2.352  -0.369  0.00  0.00    -0.037 A 
ATOM     18  C   UNL     1      -8.624   3.493  -1.025  0.00  0.00    +0.004 A 
ATOM     19  C   UNL     1      -9.748   3.455  -1.828  0.00  0.00    +0.000 A 
ENDBRANCH  13  17
ENDBRANCH  12  13
ENDBRANCH   1  12
TORSDOF 3
