REMARK  Name = ZINC35747157
REMARK  9 active torsions:
REMARK  status: ('A' for Active; 'I' for Inactive)
REMARK    1  A    between atoms: C_1  and  C_2
REMARK    2  A    between atoms: C_2  and  C_4
REMARK    3  A    between atoms: C_2  and  O_31
REMARK    4  A    between atoms: C_4  and  N_5
REMARK    5  A    between atoms: N_5  and  C_6
REMARK    6  A    between atoms: N_5  and  C_12
REMARK    7  A    between atoms: C_6  and  C_7
REMARK    8  A    between atoms: C_12  and  C_13
REMARK    9  A    between atoms: C_19  and  C_24
REMARK                            x       y       z     vdW  Elec       q    Type
REMARK                         _______ _______ _______ _____ _____    ______ ____
ROOT
ATOM      1  C   UNL     1      -1.359  -1.940  -0.052  0.00  0.00    +0.094 A 
ATOM      2  N   UNL     1      -2.637  -2.341   0.171  0.00  0.00    -0.312 N 
ATOM      3  H   UNL     1      -3.099  -2.855  -0.510  0.00  0.00    +0.170 HD
ATOM      4  C   UNL     1      -3.275  -2.039   1.317  0.00  0.00    +0.260 A 
ATOM      5  O   UNL     1      -4.423  -2.407   1.501  0.00  0.00    -0.267 OA
ATOM      6  C   UNL     1      -2.586  -1.280   2.316  0.00  0.00    +0.080 A 
ATOM      7  C   UNL     1      -3.054  -0.834   3.622  0.00  0.00    +0.005 A 
ATOM      8  C   UNL     1      -2.212  -0.119   4.407  0.00  0.00    +0.056 A 
ATOM      9  S   UNL     1      -0.730  -0.005   3.425  0.00  0.00    -0.076 S 
ATOM     10  C   UNL     1      -1.269  -0.910   1.998  0.00  0.00    +0.116 A 
ATOM     11  N   UNL     1      -0.702  -1.251   0.843  0.00  0.00    -0.229 NA
ENDROOT
BRANCH   7  12
ATOM     12  C   UNL     1      -4.426  -1.156   4.083  0.00  0.00    +0.002 A 
ATOM     13  C   UNL     1      -5.354  -0.136   4.283  0.00  0.00    +0.010 A 
ATOM     14  C   UNL     1      -6.630  -0.441   4.712  0.00  0.00    +0.001 A 
ATOM     15  C   UNL     1      -6.989  -1.757   4.943  0.00  0.00    +0.001 A 
ATOM     16  C   UNL     1      -6.073  -2.775   4.746  0.00  0.00    +0.020 A 
ATOM     17  C   UNL     1      -4.795  -2.482   4.312  0.00  0.00    +0.049 A 
ATOM     18 CL   UNL     1      -3.647  -3.760   4.059  0.00  0.00    -0.083 Cl
ENDBRANCH   7  12
BRANCH   1  19
ATOM     19  C   UNL     1      -0.684  -2.301  -1.350  0.00  0.00    -0.003 C 
BRANCH  19  20
ATOM     20  N   UNL     1       0.726  -1.894  -1.299  0.00  0.00    +0.391 N 
ATOM     21  H   UNL     1       0.785  -0.918  -1.048  0.00  0.00    -0.080 HD
BRANCH  20  22
ATOM     22  C   UNL     1       1.343  -2.098  -2.617  0.00  0.00    -0.046 C 
BRANCH  22  24
ATOM     23  C   UNL     1       1.338  -1.368  -5.006  0.00  0.00    +0.035 C 
ATOM     24  C   UNL     1       0.699  -1.153  -3.633  0.00  0.00    +0.095 C 
BRANCH  24  25
ATOM     25  O   UNL     1       0.903   0.200  -3.220  0.00  0.00    -0.394 OA
ATOM     26  H   UNL     1       0.456   0.853  -3.776  0.00  0.00    +0.210 HD
ENDBRANCH  24  25
ENDBRANCH  22  24
ENDBRANCH  20  22
BRANCH  20  27
ATOM     27  C   UNL     1       1.433  -2.702  -0.297  0.00  0.00    -0.002 C 
BRANCH  27  28
ATOM     28  C   UNL     1       2.848  -2.203  -0.157  0.00  0.00    +0.089 A 
ATOM     29  C   UNL     1       3.267  -1.257   0.703  0.00  0.00    +0.042 A 
ATOM     30  C   UNL     1       4.657  -1.102   0.496  0.00  0.00    +0.041 A 
ATOM     31  C   UNL     1       5.005  -1.964  -0.477  0.00  0.00    +0.195 A 
ATOM     32  O   UNL     1       3.906  -2.632  -0.864  0.00  0.00    -0.470 OA
ENDBRANCH  27  28
ENDBRANCH  20  27
ENDBRANCH  19  20
ENDBRANCH   1  19
TORSDOF 8
