REMARK  Name = ZINC14801990
REMARK  6 active torsions:
REMARK  status: ('A' for Active; 'I' for Inactive)
REMARK    1  A    between atoms: C_1  and  C_2
REMARK    2  A    between atoms: C_5  and  C_8
REMARK    3  A    between atoms: C_9  and  C_33
REMARK    4  A    between atoms: C_17  and  C_19
REMARK    5  A    between atoms: C_19  and  N_20
REMARK    6  A    between atoms: C_24  and  C_26
REMARK                            x       y       z     vdW  Elec       q    Type
REMARK                         _______ _______ _______ _____ _____    ______ ____
ROOT
ATOM      1  C   UNL     1      -4.046  -5.253  -5.427  0.00  0.00    +0.007 A 
ATOM      2  C   UNL     1      -3.642  -4.293  -6.294  0.00  0.00    -0.003 A 
ATOM      3  S   UNL     1      -3.064  -2.989  -5.225  0.00  0.00    -0.073 S 
ATOM      4  C   UNL     1      -3.376  -3.755  -3.655  0.00  0.00    +0.116 A 
ATOM      5  C   UNL     1      -3.920  -5.004  -3.996  0.00  0.00    +0.080 A 
ATOM      6  C   UNL     1      -4.272  -5.848  -2.895  0.00  0.00    +0.260 A 
ATOM      7  O   UNL     1      -4.752  -6.952  -3.090  0.00  0.00    -0.267 OA
ATOM      8  N   UNL     1      -4.065  -5.405  -1.641  0.00  0.00    -0.309 N 
ATOM      9  H   UNL     1      -4.301  -5.973  -0.891  0.00  0.00    +0.170 HD
ATOM     10  C   UNL     1      -3.531  -4.179  -1.405  0.00  0.00    +0.133 A 
ATOM     11  N   UNL     1      -3.205  -3.384  -2.389  0.00  0.00    -0.225 NA
ATOM     12  C   UNL     1      -3.673  -4.322  -7.800  0.00  0.00    +0.052 C 
ENDROOT
BRANCH   1  17
ATOM     13  C   UNL     1      -6.218 -10.223  -7.359  0.00  0.00    +0.044 C 
ATOM     14  C   UNL     1      -5.650  -8.923  -6.853  0.00  0.00    -0.050 A 
ATOM     15  C   UNL     1      -6.326  -7.739  -7.087  0.00  0.00    +0.004 A 
ATOM     16  C   UNL     1      -5.810  -6.544  -6.627  0.00  0.00    +0.009 A 
ATOM     17  C   UNL     1      -4.605  -6.533  -5.925  0.00  0.00    -0.016 A 
ATOM     18  C   UNL     1      -3.926  -7.729  -5.697  0.00  0.00    +0.009 A 
ATOM     19  C   UNL     1      -4.454  -8.918  -6.157  0.00  0.00    +0.004 A 
ENDBRANCH   1  17
BRANCH  10  20
ATOM     20  C   UNL     1      -3.318  -3.725   0.016  0.00  0.00    +0.224 C 
BRANCH  20  21
ATOM     21  N   UNL     1      -2.736  -2.381   0.017  0.00  0.00    -0.187 N 
ATOM     22  C   UNL     1      -3.412  -1.212   0.029  0.00  0.00    +0.439 A 
ATOM     23  O   UNL     1      -4.622  -1.080   0.042  0.00  0.00    -0.221 OA
ATOM     24  O   UNL     1      -2.504  -0.222   0.025  0.00  0.00    -0.388 OA
ATOM     25  C   UNL     1      -1.267  -0.763   0.011  0.00  0.00    +0.250 A 
ATOM     26  N   UNL     1      -1.371  -2.061  -0.001  0.00  0.00    -0.126 NA
BRANCH  25  27
ATOM     27  C   UNL     1       0.002  -0.004   0.002  0.00  0.00    +0.039 A 
ATOM     28  C   UNL     1      -0.017   1.391   0.010  0.00  0.00    +0.016 A 
ATOM     29  C   UNL     1       1.169   2.095   0.002  0.00  0.00    +0.039 A 
ATOM     30  C   UNL     1       2.379   1.418  -0.013  0.00  0.00    +0.123 A 
ATOM     31  C   UNL     1       2.403   0.033  -0.021  0.00  0.00    +0.039 A 
ATOM     32  C   UNL     1       1.223  -0.680  -0.013  0.00  0.00    +0.016 A 
ATOM     33  F   UNL     1       3.538   2.112  -0.020  0.00  0.00    -0.205 F 
ENDBRANCH  25  27
ENDBRANCH  20  21
ENDBRANCH  10  20
TORSDOF 4
