REMARK  Name = ZINC57848814
REMARK  5 active torsions:
REMARK  status: ('A' for Active; 'I' for Inactive)
REMARK    1  A    between atoms: C_3  and  C_9
REMARK    2  A    between atoms: C_6  and  C_7
REMARK    3  A    between atoms: C_7  and  N_8
REMARK    4  A    between atoms: C_9  and  N_10
REMARK    5  A    between atoms: C_13  and  C_18
REMARK                            x       y       z     vdW  Elec       q    Type
REMARK                         _______ _______ _______ _____ _____    ______ ____
ROOT
ATOM      1  N   UNL     1       4.105   2.425   1.356  0.00  0.00    -0.220 N 
ATOM      2  C   UNL     1       3.754   3.506   2.080  0.00  0.00    +0.248 C 
ATOM      3  O   UNL     1       3.047   4.426   1.727  0.00  0.00    -0.273 OA
ATOM      4  C   UNL     1       4.426   3.333   3.428  0.00  0.00    +0.191 C 
ATOM      5  N   UNL     1       5.146   2.054   3.294  0.00  0.00    -0.284 N 
ATOM      6  C   UNL     1       4.893   1.599   2.053  0.00  0.00    +0.310 C 
ATOM      7  O   UNL     1       5.335   0.556   1.613  0.00  0.00    -0.252 OA
ATOM      8  H   UNL     1       5.692   1.623   3.969  0.00  0.00    +0.151 HD
ENDROOT
BRANCH   4   9
ATOM      9  C   UNL     1       3.398   3.254   4.527  0.00  0.00    -0.018 A 
ATOM     10  C   UNL     1       2.733   2.067   4.766  0.00  0.00    +0.009 A 
ATOM     11  C   UNL     1       1.790   1.993   5.774  0.00  0.00    +0.038 A 
ATOM     12  C   UNL     1       1.513   3.110   6.544  0.00  0.00    +0.123 A 
ATOM     13  C   UNL     1       2.180   4.299   6.303  0.00  0.00    +0.038 A 
ATOM     14  C   UNL     1       3.126   4.368   5.298  0.00  0.00    +0.009 A 
ATOM     15  F   UNL     1       0.591   3.039   7.530  0.00  0.00    -0.205 F 
ENDBRANCH   4   9
BRANCH   1  16
ATOM     16  C   UNL     1       3.672   2.182  -0.022  0.00  0.00    +0.153 C 
BRANCH  16  19
ATOM     17  C   UNL     1      -0.017   1.378   0.010  0.00  0.00    +0.002 A 
ATOM     18  C   UNL     1       1.171   2.086   0.002  0.00  0.00    +0.005 A 
ATOM     19  C   UNL     1       2.377   1.411  -0.013  0.00  0.00    -0.030 A 
ATOM     20  C   UNL     1       2.396   0.029  -0.020  0.00  0.00    +0.005 A 
ATOM     21  C   UNL     1       1.208  -0.679  -0.012  0.00  0.00    +0.002 A 
ATOM     22  C   UNL     1       0.002  -0.004   0.002  0.00  0.00    -0.065 A 
BRANCH  22  23
ATOM     23  C   UNL     1      -1.293  -0.775   0.011  0.00  0.00    -0.051 C 
BRANCH  23  24
ATOM     24  N   UNL     1      -1.727  -1.018  -1.371  0.00  0.00    +0.381 N 
ATOM     25  H   UNL     1      -1.864  -0.136  -1.841  0.00  0.00    -0.090 HD
ATOM     26  H   UNL     1      -1.021  -1.552  -1.857  0.00  0.00    -0.090 HD
ATOM     27  H   UNL     1      -2.594  -1.535  -1.366  0.00  0.00    -0.090 HD
ENDBRANCH  23  24
ENDBRANCH  22  23
ENDBRANCH  16  19
ENDBRANCH   1  16
TORSDOF 5
