REMARK  Name = ZINC12566854
REMARK  6 active torsions:
REMARK  status: ('A' for Active; 'I' for Inactive)
REMARK    1  A    between atoms: C_1  and  C_2
REMARK    2  A    between atoms: C_12  and  C_14
REMARK    3  A    between atoms: C_14  and  C_16
REMARK    4  A    between atoms: C_14  and  N_27
REMARK    5  A    between atoms: N_20  and  C_21
REMARK    6  A    between atoms: C_35  and  C_37
REMARK                            x       y       z     vdW  Elec       q    Type
REMARK                         _______ _______ _______ _____ _____    ______ ____
ROOT
ATOM      1  C   UNL     1      -0.013   1.086   0.008  0.00  0.00    +0.179 C 
ENDROOT
BRANCH   1  13
ATOM      2  C   UNL     1      -1.900   5.544  -4.438  0.00  0.00    +0.046 C 
ATOM      3  C   UNL     1      -1.947   4.038  -4.457  0.00  0.00    -0.026 A 
ATOM      4  C   UNL     1      -2.459   3.376  -5.552  0.00  0.00    +0.005 A 
ATOM      5  C   UNL     1      -2.509   1.989  -5.581  0.00  0.00    +0.001 A 
ATOM      6  C   UNL     1      -2.051   1.254  -4.524  0.00  0.00    +0.010 A 
ATOM      7  C   UNL     1      -1.528   1.905  -3.402  0.00  0.00    -0.001 A 
ATOM      8  C   UNL     1      -1.476   3.311  -3.369  0.00  0.00    +0.052 A 
ATOM      9  N   UNL     1      -0.959   3.948  -2.260  0.00  0.00    -0.322 N 
ATOM     10  H   UNL     1      -0.923   4.917  -2.239  0.00  0.00    +0.169 HD
ATOM     11  C   UNL     1      -0.509   3.245  -1.206  0.00  0.00    +0.255 A 
ATOM     12  O   UNL     1      -0.064   3.841  -0.241  0.00  0.00    -0.268 OA
ATOM     13  C   UNL     1      -0.534   1.834  -1.192  0.00  0.00    +0.045 A 
ATOM     14  C   UNL     1      -1.030   1.149  -2.252  0.00  0.00    +0.021 A 
ENDBRANCH   1  13
BRANCH   1  15
ATOM     15  N   UNL     1      -0.700   1.560   1.217  0.00  0.00    -0.312 N 
ATOM     16  C   UNL     1      -2.072   1.287   1.153  0.00  0.00    +0.034 A 
ATOM     17  C   UNL     1      -2.954   1.380   0.077  0.00  0.00    +0.023 A 
ATOM     18  C   UNL     1      -4.287   1.065   0.243  0.00  0.00    +0.002 A 
ATOM     19  C   UNL     1      -4.757   0.653   1.476  0.00  0.00    +0.000 A 
ATOM     20  C   UNL     1      -3.888   0.555   2.548  0.00  0.00    +0.005 A 
ATOM     21  C   UNL     1      -2.554   0.867   2.387  0.00  0.00    -0.025 A 
ATOM     22  C   UNL     1      -1.392   0.849   3.360  0.00  0.00    +0.059 C 
ATOM     23  C   UNL     1      -0.162   0.900   2.426  0.00  0.00    +0.076 C 
ATOM     24  C   UNL     1       0.331  -0.511   2.100  0.00  0.00    +0.028 C 
ENDBRANCH   1  15
BRANCH   1  25
ATOM     25  C   UNL     1       1.468   1.327   0.146  0.00  0.00    +0.177 A 
ATOM     26  N   UNL     1       2.047   2.421   0.576  0.00  0.00    -0.111 NA
ATOM     27  N   UNL     1       3.321   2.235   0.549  0.00  0.00    -0.023 NA
ATOM     28  N   UNL     1       3.571   1.053   0.105  0.00  0.00    -0.044 NA
ATOM     29  N   UNL     1       2.455   0.461  -0.154  0.00  0.00    -0.224 N 
BRANCH  29  30
ATOM     30  C   UNL     1       2.291  -0.897  -0.678  0.00  0.00    +0.111 C 
ATOM     31  C   UNL     1       2.914  -1.898   0.296  0.00  0.00    +0.027 C 
ATOM     32  C   UNL     1       2.743  -3.317  -0.251  0.00  0.00    +0.002 C 
ATOM     33  C   UNL     1       3.439  -3.427  -1.609  0.00  0.00    +0.000 C 
ATOM     34  C   UNL     1       2.815  -2.426  -2.584  0.00  0.00    +0.002 C 
ATOM     35  C   UNL     1       2.986  -1.007  -2.037  0.00  0.00    +0.027 C 
ENDBRANCH  29  30
ENDBRANCH   1  25
TORSDOF 4
