REMARK  Name = ZINC67446901
REMARK  12 active torsions:
REMARK  status: ('A' for Active; 'I' for Inactive)
REMARK    1  A    between atoms: C_1  and  C_2
REMARK    2  A    between atoms: C_6  and  O_11
REMARK    3  A    between atoms: O_11  and  C_12
REMARK    4  A    between atoms: C_12  and  C_13
REMARK    5  A    between atoms: C_15  and  C_18
REMARK    6  A    between atoms: N_20  and  C_21
REMARK    7  A    between atoms: C_21  and  C_22
REMARK    8  A    between atoms: C_21  and  C_23
REMARK    9  A    between atoms: C_21  and  C_24
REMARK   10  A    between atoms: C_24  and  N_25
REMARK   11  A    between atoms: N_25  and  C_26
REMARK   12  A    between atoms: N_25  and  C_27
REMARK                            x       y       z     vdW  Elec       q    Type
REMARK                         _______ _______ _______ _____ _____    ______ ____
ROOT
ATOM      1  C   UNL     1      -3.701  -7.514   0.027  0.00  0.00    +0.234 A 
ATOM      2  N   UNL     1      -4.208  -7.922  -1.097  0.00  0.00    -0.206 NA
ATOM      3  C   UNL     1      -5.301  -8.685  -0.826  0.00  0.00    +0.164 A 
ATOM      4  C   UNL     1      -5.437  -8.724   0.527  0.00  0.00    +0.230 A 
ATOM      5  O   UNL     1      -4.433  -7.996   1.042  0.00  0.00    -0.444 OA
ENDROOT
BRANCH   3   6
ATOM      6  C   UNL     1      -6.174  -9.346  -1.813  0.00  0.00    +0.266 C 
ATOM      7  O   UNL     1      -7.126 -10.005  -1.439  0.00  0.00    -0.268 OA
ATOM      8  N   UNL     1      -5.918  -9.221  -3.131  0.00  0.00    -0.307 N 
ATOM      9  H   UNL     1      -5.159  -8.696  -3.429  0.00  0.00    +0.150 HD
BRANCH   8  10
ATOM     10  C   UNL     1      -6.786  -9.878  -4.111  0.00  0.00    +0.015 C 
ATOM     11  C   UNL     1      -6.877 -11.372  -3.792  0.00  0.00    +0.029 C 
ATOM     12  C   UNL     1      -8.183  -9.258  -4.052  0.00  0.00    +0.029 C 
BRANCH  10  13
ATOM     13  C   UNL     1      -6.204  -9.691  -5.514  0.00  0.00    -0.054 C 
BRANCH  13  14
ATOM     14  N   UNL     1      -4.940 -10.432  -5.622  0.00  0.00    +0.377 N 
ATOM     15  C   UNL     1      -4.474 -10.405  -7.015  0.00  0.00    -0.097 C 
ATOM     16  C   UNL     1      -3.930  -9.809  -4.756  0.00  0.00    -0.097 C 
ATOM     17  H   UNL     1      -5.085 -11.388  -5.335  0.00  0.00    -0.083 HD
ENDBRANCH  13  14
ENDBRANCH  10  13
ENDBRANCH   8  10
ENDBRANCH   3   6
BRANCH   1  18
ATOM     18  C   UNL     1      -2.480  -6.643   0.169  0.00  0.00    +0.324 C 
BRANCH  18  19
ATOM     19  O   UNL     1      -2.873  -5.269   0.173  0.00  0.00    -0.483 OA
BRANCH  19  25
ATOM     20  C   UNL     1      -0.222   1.592   0.631  0.00  0.00    +0.073 C 
ATOM     21  C   UNL     1      -0.257   0.086   0.583  0.00  0.00    +0.076 A 
ATOM     22  N   UNL     1      -1.299  -0.684   0.461  0.00  0.00    -0.244 NA
ATOM     23  C   UNL     1      -1.199  -2.029   0.429  0.00  0.00    +0.082 A 
ATOM     24  C   UNL     1      -2.207  -3.007   0.304  0.00  0.00    +0.074 A 
ATOM     25  C   UNL     1      -1.883  -4.344   0.295  0.00  0.00    +0.123 A 
ATOM     26  C   UNL     1      -0.562  -4.769   0.407  0.00  0.00    +0.047 A 
ATOM     27  C   UNL     1       0.446  -3.833   0.531  0.00  0.00    +0.021 A 
ATOM     28  C   UNL     1       0.130  -2.495   0.541  0.00  0.00    +0.039 A 
ATOM     29  S   UNL     1       1.043  -0.979   0.667  0.00  0.00    -0.072 S 
ENDBRANCH  19  25
ENDBRANCH  18  19
ENDBRANCH   1  18
TORSDOF 7
