REMARK  Name = ZINC19737329
REMARK  4 active torsions:
REMARK  status: ('A' for Active; 'I' for Inactive)
REMARK    1  A    between atoms: C_3  and  S_10
REMARK    2  A    between atoms: C_6  and  N_7
REMARK    3  A    between atoms: S_10  and  N_13
REMARK    4  A    between atoms: N_13  and  C_14
REMARK                            x       y       z     vdW  Elec       q    Type
REMARK                         _______ _______ _______ _____ _____    ______ ____
ROOT
ATOM      1  S   UNL     1      -0.022   1.758   0.012  0.00  0.00    +0.059 S 
ATOM      2  O   UNL     1      -0.590   2.163  -1.226  0.00  0.00    -0.153 OA
ATOM      3  O   UNL     1      -0.566   2.150   1.264  0.00  0.00    -0.153 OA
ENDROOT
BRANCH   1   6
ATOM      4  C   UNL     1       0.042  -2.061   1.215  0.00  0.00    +0.030 A 
ATOM      5  C   UNL     1       0.023  -0.698   1.206  0.00  0.00    +0.030 A 
ATOM      6  C   UNL     1       0.002  -0.004   0.002  0.00  0.00    +0.105 A 
ATOM      7  C   UNL     1      -0.006  -0.685  -1.209  0.00  0.00    +0.030 A 
ATOM      8  C   UNL     1       0.017  -2.048  -1.233  0.00  0.00    +0.030 A 
ATOM      9  C   UNL     1       0.039  -2.771  -0.013  0.00  0.00    +0.074 A 
BRANCH   9  10
ATOM     10  N   UNL     1       0.057  -4.096  -0.021  0.00  0.00    -0.197 NA
ATOM     11  C   UNL     1       0.054  -4.715  -1.106  0.00  0.00    +0.041 C 
ATOM     12  S   UNL     1       0.051  -5.484  -2.456  0.00  0.00    +0.021 S 
ENDBRANCH   9  10
ENDBRANCH   1   6
BRANCH   1  13
ATOM     13  N   UNL     1       1.553   2.269  -0.001  0.00  0.00    -0.187 NA
ATOM     14  H   UNL     1       1.996   2.667   0.924  0.00  0.00    +0.148 HD
BRANCH  13  15
ATOM     15  C   UNL     1       2.405   1.991  -1.160  0.00  0.00    +0.077 C 
ATOM     16  C   UNL     1       3.204   0.711  -0.911  0.00  0.00    +0.020 C 
ATOM     17  C   UNL     1       4.093   0.421  -2.122  0.00  0.00    +0.002 C 
ATOM     18  C   UNL     1       5.056   1.590  -2.339  0.00  0.00    +0.000 C 
ATOM     19  C   UNL     1       4.256   2.870  -2.589  0.00  0.00    +0.002 C 
ATOM     20  C   UNL     1       3.368   3.160  -1.378  0.00  0.00    +0.020 C 
ENDBRANCH  13  15
ENDBRANCH   1  13
TORSDOF 4
