REMARK  Name = ZINC08534738
REMARK  7 active torsions:
REMARK  status: ('A' for Active; 'I' for Inactive)
REMARK    1  A    between atoms: C_1  and  C_2
REMARK    2  A    between atoms: C_4  and  C_27
REMARK    3  A    between atoms: C_6  and  C_8
REMARK    4  A    between atoms: C_6  and  C_9
REMARK    5  A    between atoms: N_11  and  C_12
REMARK    6  A    between atoms: C_17  and  N_18
REMARK    7  A    between atoms: N_23  and  C_26
REMARK                            x       y       z     vdW  Elec       q    Type
REMARK                         _______ _______ _______ _____ _____    ______ ____
ROOT
ATOM      1  C   UNL     1       0.045   1.194  -1.281  0.00  0.00    +0.021 C 
ATOM      2  C   UNL     1       0.142  -0.246  -0.775  0.00  0.00    +0.047 C 
ATOM      3  C   UNL     1       1.082  -1.050  -1.682  0.00  0.00    +0.031 C 
ATOM      4  C   UNL     1       1.088  -2.504  -1.194  0.00  0.00    +0.047 C 
ATOM      5  C   UNL     1       1.642  -2.547   0.233  0.00  0.00    +0.031 C 
ATOM      6  C   UNL     1       0.742  -1.719   1.153  0.00  0.00    +0.046 C 
ATOM      7  C   UNL     1       0.700  -0.256   0.651  0.00  0.00    +0.031 C 
ATOM      8  C   UNL     1      -0.670  -2.310   1.150  0.00  0.00    +0.021 C 
ATOM      9  C   UNL     1      -0.326  -3.025  -1.193  0.00  0.00    +0.228 C 
ATOM     10  O   UNL     1      -0.525  -4.207  -1.373  0.00  0.00    -0.275 OA
ATOM     11  N   UNL     1      -1.369  -2.204  -0.997  0.00  0.00    -0.244 N 
ATOM     12  C   UNL     1      -1.226  -0.878  -0.777  0.00  0.00    +0.228 C 
ATOM     13  O   UNL     1      -2.203  -0.184  -0.598  0.00  0.00    -0.275 OA
ATOM     14  C   UNL     1      -2.720  -2.769  -1.001  0.00  0.00    +0.141 C 
ATOM     15  C   UNL     1       1.968  -3.353  -2.114  0.00  0.00    +0.021 C 
ENDROOT
BRANCH   6  16
ATOM     16  C   UNL     1       1.294  -1.748   2.554  0.00  0.00    +0.223 C 
ATOM     17  O   UNL     1       2.308  -2.369   2.794  0.00  0.00    -0.275 OA
ATOM     18  N   UNL     1       0.661  -1.083   3.542  0.00  0.00    -0.283 N 
ATOM     19  H   UNL     1      -0.183  -0.640   3.364  0.00  0.00    +0.155 HD
BRANCH  18  20
ATOM     20  C   UNL     1       1.223  -1.032   4.822  0.00  0.00    +0.064 A 
ATOM     21  C   UNL     1       2.603  -1.045   4.978  0.00  0.00    +0.025 A 
ATOM     22  C   UNL     1       3.154  -0.994   6.243  0.00  0.00    +0.002 A 
ATOM     23  C   UNL     1       2.334  -0.931   7.354  0.00  0.00    +0.002 A 
ATOM     24  C   UNL     1       0.960  -0.918   7.203  0.00  0.00    +0.034 A 
ATOM     25  C   UNL     1       0.402  -0.962   5.940  0.00  0.00    +0.147 A 
BRANCH  25  26
ATOM     26  N   UNL     1      -1.069  -0.941   5.778  0.00  0.00    +0.058 N 
ATOM     27  O   UNL     1      -1.784  -0.907   6.753  0.00  0.00    -0.126 OA
ATOM     28  O   UNL     1      -1.556  -0.959   4.672  0.00  0.00    -0.126 OA
ENDBRANCH  25  26
ENDBRANCH  18  20
ENDBRANCH   6  16
TORSDOF 3
