REMARK  Name = ZINC04356151
REMARK  6 active torsions:
REMARK  status: ('A' for Active; 'I' for Inactive)
REMARK    1  A    between atoms: C_1  and  C_2
REMARK    2  A    between atoms: C_2  and  C_26
REMARK    3  A    between atoms: C_7  and  C_9
REMARK    4  A    between atoms: N_16  and  C_19
REMARK    5  A    between atoms: C_26  and  O_28
REMARK    6  A    between atoms: O_28  and  C_29
REMARK                            x       y       z     vdW  Elec       q    Type
REMARK                         _______ _______ _______ _____ _____    ______ ____
ROOT
ATOM      1  C   UNL     1       4.310   6.268   0.819  0.00  0.00    +0.002 C 
ATOM      2  C   UNL     1       2.865   6.448   0.349  0.00  0.00    +0.041 C 
ATOM      3  C   UNL     1       2.760   6.207  -1.171  0.00  0.00    +0.086 C 
ATOM      4  C   UNL     1       2.348   4.717  -1.311  0.00  0.00    +0.078 C 
ATOM      5  C   UNL     1       2.243   4.198   0.138  0.00  0.00    -0.020 C 
ATOM      6  C   UNL     1       0.963   4.793  -1.914  0.00  0.00    +0.229 C 
ATOM      7  O   UNL     1       0.267   3.840  -2.192  0.00  0.00    -0.275 OA
ATOM      8  N   UNL     1       0.627   6.075  -2.094  0.00  0.00    -0.210 N 
ATOM      9  C   UNL     1       1.561   6.954  -1.711  0.00  0.00    +0.229 C 
ATOM     10  O   UNL     1       1.462   8.159  -1.786  0.00  0.00    -0.275 OA
ATOM     11  N   UNL     1       2.015   5.407   0.930  0.00  0.00    +0.396 N 
ATOM     12  H   UNL     1       1.028   5.685   0.878  0.00  0.00    -0.083 HD
ATOM     13  H   UNL     1       2.274   5.243   1.910  0.00  0.00    -0.083 HD
ENDROOT
BRANCH   8  14
ATOM     14  C   UNL     1      -0.605   6.468  -2.638  0.00  0.00    +0.044 A 
ATOM     15  C   UNL     1      -0.895   6.195  -3.968  0.00  0.00    +0.027 A 
ATOM     16  C   UNL     1      -2.111   6.579  -4.501  0.00  0.00    +0.040 A 
ATOM     17  C   UNL     1      -3.035   7.242  -3.712  0.00  0.00    +0.124 A 
ATOM     18  C   UNL     1      -2.745   7.519  -2.387  0.00  0.00    +0.040 A 
ATOM     19  C   UNL     1      -1.533   7.133  -1.849  0.00  0.00    +0.027 A 
ATOM     20  F   UNL     1      -4.221   7.621  -4.237  0.00  0.00    -0.205 F 
ENDBRANCH   8  14
BRANCH   5  21
ATOM     21  C   UNL     1       1.094   3.231   0.267  0.00  0.00    -0.023 A 
ATOM     22  C   UNL     1       1.119   1.876   0.312  0.00  0.00    +0.009 A 
ATOM     23  C   UNL     1      -0.072   1.187   0.434  0.00  0.00    +0.008 A 
ATOM     24  C   UNL     1      -1.232   1.886   0.501  0.00  0.00    +0.045 A 
ATOM     25  S   UNL     1      -0.653   3.572   0.401  0.00  0.00    -0.103 S 
ENDBRANCH   5  21
BRANCH   2  26
ATOM     26  C   UNL     1       2.369   7.827   0.698  0.00  0.00    +0.296 C 
ATOM     27  O   UNL     1       3.146   8.749   0.768  0.00  0.00    -0.252 OA
BRANCH  26  28
ATOM     28  O   UNL     1       1.063   8.031   0.931  0.00  0.00    -0.469 OA
ATOM     29  C   UNL     1       0.656   9.385   1.262  0.00  0.00    +0.280 C 
ENDBRANCH  26  28
ENDBRANCH   2  26
TORSDOF 4
