REMARK  Name = ZINC02646831
REMARK  9 active torsions:
REMARK  status: ('A' for Active; 'I' for Inactive)
REMARK    1  A    between atoms: C_1  and  C_2
REMARK    2  A    between atoms: C_4  and  C_15
REMARK    3  A    between atoms: C_5  and  C_14
REMARK    4  A    between atoms: N_6  and  C_7
REMARK    5  A    between atoms: C_15  and  C_17
REMARK    6  A    between atoms: C_17  and  S_18
REMARK    7  A    between atoms: S_18  and  C_19
REMARK    8  A    between atoms: N_23  and  C_24
REMARK    9  A    between atoms: C_27  and  O_30
REMARK                            x       y       z     vdW  Elec       q    Type
REMARK                         _______ _______ _______ _____ _____    ______ ____
ROOT
ATOM      1  C   UNL     1      -1.155  -0.902   0.008  0.00  0.00    +0.175 C 
ATOM      2  O   UNL     1      -0.989  -2.104   0.001  0.00  0.00    -0.291 OA
ENDROOT
BRANCH   1   6
ATOM      3  C   UNL     1       1.737   3.293   0.003  0.00  0.00    +0.064 C 
ATOM      4  C   UNL     1       1.266   1.862   0.000  0.00  0.00    +0.022 A 
ATOM      5  C   UNL     1      -0.018   1.465   0.010  0.00  0.00    +0.034 A 
ATOM      6  C   UNL     1       0.002  -0.004   0.002  0.00  0.00    +0.039 A 
ATOM      7  C   UNL     1       1.337  -0.365  -0.013  0.00  0.00    +0.032 A 
ATOM      8  N   UNL     1       2.076   0.761  -0.014  0.00  0.00    -0.314 N 
ATOM      9  C   UNL     1       1.871  -1.774  -0.025  0.00  0.00    +0.064 C 
BRANCH   8  10
ATOM     10  C   UNL     1       3.477   0.798  -0.027  0.00  0.00    +0.082 A 
ATOM     11  C   UNL     1       4.161   0.824  -1.234  0.00  0.00    +0.029 A 
ATOM     12  C   UNL     1       5.542   0.861  -1.244  0.00  0.00    +0.002 A 
ATOM     13  C   UNL     1       6.244   0.874  -0.053  0.00  0.00    +0.003 A 
ATOM     14  C   UNL     1       5.568   0.849   1.152  0.00  0.00    +0.040 A 
ATOM     15  C   UNL     1       4.185   0.816   1.170  0.00  0.00    +0.147 A 
ATOM     16  F   UNL     1       3.524   0.797   2.347  0.00  0.00    -0.203 F 
ENDBRANCH   8  10
ENDBRANCH   1   6
BRANCH   1  17
ATOM     17  C   UNL     1      -2.550  -0.333   0.024  0.00  0.00    +0.157 C 
BRANCH  17  18
ATOM     18  S   UNL     1      -3.753  -1.685   0.028  0.00  0.00    -0.076 S 
BRANCH  18  19
ATOM     19  C   UNL     1      -5.253  -0.761   0.047  0.00  0.00    +0.214 A 
ATOM     20  N   UNL     1      -5.363   0.550   0.054  0.00  0.00    -0.101 NA
ATOM     21  N   UNL     1      -6.600   0.897   0.068  0.00  0.00    -0.022 NA
ATOM     22  N   UNL     1      -7.359  -0.144   0.070  0.00  0.00    -0.038 NA
ATOM     23  N   UNL     1      -6.512  -1.266   0.051  0.00  0.00    -0.187 N 
BRANCH  23  24
ATOM     24  C   UNL     1      -6.888  -2.618   0.041  0.00  0.00    +0.070 A 
ATOM     25  C   UNL     1      -6.133  -3.544  -0.667  0.00  0.00    +0.031 A 
ATOM     26  C   UNL     1      -6.500  -4.875  -0.673  0.00  0.00    +0.047 A 
ATOM     27  C   UNL     1      -7.630  -5.285   0.020  0.00  0.00    +0.117 A 
ATOM     28  C   UNL     1      -8.387  -4.360   0.723  0.00  0.00    +0.047 A 
ATOM     29  C   UNL     1      -8.018  -3.030   0.734  0.00  0.00    +0.031 A 
BRANCH  27  30
ATOM     30  O   UNL     1      -7.994  -6.595   0.009  0.00  0.00    -0.507 OA
ATOM     31  H   UNL     1      -8.593  -6.831  -0.713  0.00  0.00    +0.292 HD
ENDBRANCH  27  30
ENDBRANCH  23  24
ENDBRANCH  18  19
ENDBRANCH  17  18
ENDBRANCH   1  17
TORSDOF 7
