REMARK  Name = ZINC40309334
REMARK  10 active torsions:
REMARK  status: ('A' for Active; 'I' for Inactive)
REMARK    1  A    between atoms: C_1  and  C_2
REMARK    2  A    between atoms: C_4  and  C_25
REMARK    3  A    between atoms: C_5  and  C_9
REMARK    4  A    between atoms: C_6  and  C_8
REMARK    5  A    between atoms: C_9  and  N_10
REMARK    6  A    between atoms: C_13  and  C_24
REMARK    7  A    between atoms: C_14  and  C_23
REMARK    8  A    between atoms: C_18  and  C_19
REMARK    9  A    between atoms: C_19  and  C_21
REMARK   10  A    between atoms: C_19  and  O_22
REMARK                            x       y       z     vdW  Elec       q    Type
REMARK                         _______ _______ _______ _____ _____    ______ ____
ROOT
ATOM      1  N   UNL     1       2.009  -4.545  -0.090  0.00  0.00    -0.321 N 
ATOM      2  C   UNL     1       2.659  -5.107  -1.171  0.00  0.00    +0.069 A 
ATOM      3  C   UNL     1       2.511  -5.007  -2.547  0.00  0.00    +0.031 A 
ATOM      4  C   UNL     1       3.349  -5.721  -3.378  0.00  0.00    -0.045 A 
ATOM      5  C   UNL     1       4.337  -6.537  -2.847  0.00  0.00    -0.045 A 
ATOM      6  C   UNL     1       4.497  -6.648  -1.495  0.00  0.00    +0.033 A 
ATOM      7  C   UNL     1       3.660  -5.934  -0.633  0.00  0.00    +0.090 A 
ATOM      8  N   UNL     1       3.571  -5.836   0.718  0.00  0.00    -0.230 NA
ATOM      9  C   UNL     1       2.609  -5.019   1.035  0.00  0.00    +0.140 A 
ATOM     10  C   UNL     1       5.243  -7.310  -3.771  0.00  0.00    +0.044 C 
ATOM     11  C   UNL     1       3.190  -5.613  -4.873  0.00  0.00    +0.044 C 
ENDROOT
BRANCH   9  12
ATOM     12  C   UNL     1       2.214  -4.654   2.442  0.00  0.00    +0.177 C 
ATOM     13  C   UNL     1       2.055  -5.929   3.274  0.00  0.00    +0.046 C 
BRANCH  12  14
ATOM     14  O   UNL     1       3.227  -3.830   3.023  0.00  0.00    -0.384 OA
ATOM     15  H   UNL     1       4.097  -4.251   3.070  0.00  0.00    +0.210 HD
ENDBRANCH  12  14
ENDBRANCH   9  12
BRANCH   1  16
ATOM     16  C   UNL     1       0.884  -3.607  -0.146  0.00  0.00    +0.159 C 
BRANCH  16  21
ATOM     17  C   UNL     1       2.881   1.812   0.056  0.00  0.00    +0.044 C 
ATOM     18  C   UNL     1       2.360   0.399   0.003  0.00  0.00    -0.050 A 
ATOM     19  C   UNL     1       2.350  -0.290  -1.195  0.00  0.00    +0.007 A 
ATOM     20  C   UNL     1       1.873  -1.587  -1.243  0.00  0.00    -0.045 A 
ATOM     21  C   UNL     1       1.406  -2.194  -0.093  0.00  0.00    -0.022 A 
ATOM     22  C   UNL     1       1.417  -1.506   1.106  0.00  0.00    -0.045 A 
ATOM     23  C   UNL     1       1.898  -0.211   1.155  0.00  0.00    +0.007 A 
ATOM     24  C   UNL     1       0.907  -2.168   2.360  0.00  0.00    +0.044 C 
ATOM     25  C   UNL     1       1.861  -2.337  -2.550  0.00  0.00    +0.044 C 
ENDBRANCH  16  21
ENDBRANCH   1  16
TORSDOF 4
