REMARK  Name = ZINC20538640
REMARK  5 active torsions:
REMARK  status: ('A' for Active; 'I' for Inactive)
REMARK    1  A    between atoms: C_1  and  C_2
REMARK    2  A    between atoms: C_5  and  C_26
REMARK    3  A    between atoms: C_6  and  C_8
REMARK    4  A    between atoms: C_11  and  C_14
REMARK    5  A    between atoms: N_19  and  C_21
REMARK                            x       y       z     vdW  Elec       q    Type
REMARK                         _______ _______ _______ _____ _____    ______ ____
ROOT
ATOM      1  C   UNL     1       0.000  -2.443   2.655  0.00  0.00    +0.064 A 
ATOM      2  C   UNL     1      -0.697  -3.525   3.097  0.00  0.00    +0.110 A 
ATOM      3  N   UNL     1      -0.432  -3.679   4.400  0.00  0.00    -0.349 N 
ATOM      4  C   UNL     1       0.395  -2.748   4.791  0.00  0.00    +0.090 A 
ATOM      5  N   UNL     1       0.697  -1.958   3.738  0.00  0.00    -0.343 N 
ATOM      6  H   UNL     1       1.292  -1.191   3.745  0.00  0.00    +0.167 HD
ATOM      7  H   UNL     1      -0.799  -4.376   4.966  0.00  0.00    +0.166 HD
ENDROOT
BRANCH   1  13
ATOM      8  C   UNL     1      -2.460  -1.054  -1.459  0.00  0.00    +0.044 C 
ATOM      9  C   UNL     1      -1.168  -1.230  -0.702  0.00  0.00    -0.050 A 
ATOM     10  C   UNL     1       0.032  -0.882  -1.296  0.00  0.00    +0.003 A 
ATOM     11  C   UNL     1       1.222  -1.040  -0.608  0.00  0.00    +0.004 A 
ATOM     12  C   UNL     1       1.218  -1.546   0.675  0.00  0.00    -0.041 A 
ATOM     13  C   UNL     1       0.011  -1.899   1.280  0.00  0.00    +0.003 A 
ATOM     14  C   UNL     1      -1.186  -1.732   0.582  0.00  0.00    +0.013 A 
ATOM     15  C   UNL     1       2.516  -1.719   1.423  0.00  0.00    +0.044 C 
ENDBRANCH   1  13
BRANCH   4  16
ATOM     16  C   UNL     1       0.931  -2.585   6.190  0.00  0.00    +0.079 C 
ATOM     17  C   UNL     1      -0.099  -1.873   7.098  0.00  0.00    +0.108 C 
ATOM     18  C   UNL     1       0.054  -2.557   8.439  0.00  0.00    +0.217 C 
ATOM     19  O   UNL     1      -0.363  -2.123   9.492  0.00  0.00    -0.276 OA
ATOM     20  N   UNL     1       0.719  -3.716   8.294  0.00  0.00    -0.298 N 
ATOM     21  C   UNL     1       1.076  -3.954   6.890  0.00  0.00    +0.119 C 
BRANCH  20  22
ATOM     22  C   UNL     1       1.047  -4.625   9.395  0.00  0.00    +0.076 C 
ATOM     23  C   UNL     1      -0.241  -5.050  10.131  0.00  0.00    +0.022 C 
ATOM     24  C   UNL     1       0.177  -5.116  11.621  0.00  0.00    +0.002 C 
ATOM     25  C   UNL     1       1.142  -3.913  11.759  0.00  0.00    +0.002 C 
ATOM     26  C   UNL     1       1.926  -3.902  10.431  0.00  0.00    +0.022 C 
ENDBRANCH  20  22
ENDBRANCH   4  16
TORSDOF 3
