REMARK  Name = ZINC57856098
REMARK  4 active torsions:
REMARK  status: ('A' for Active; 'I' for Inactive)
REMARK    1  A    between atoms: C_1  and  C_2
REMARK    2  A    between atoms: C_2  and  C_4
REMARK    3  A    between atoms: C_2  and  N_10
REMARK    4  A    between atoms: C_4  and  C_5
REMARK                            x       y       z     vdW  Elec       q    Type
REMARK                         _______ _______ _______ _____ _____    ______ ____
ROOT
ATOM      1  N   UNL     1       2.743  -0.264  -0.117  0.00  0.00    -0.296 N 
ATOM      2  C   UNL     1       2.031  -0.587  -1.215  0.00  0.00    +0.303 C 
ATOM      3  O   UNL     1       0.816  -0.573  -1.177  0.00  0.00    -0.253 OA
ATOM      4  N   UNL     1       2.666  -0.925  -2.355  0.00  0.00    -0.281 N 
ATOM      5  C   UNL     1       1.913  -1.170  -3.595  0.00  0.00    +0.116 C 
ATOM      6  C   UNL     1       2.300  -0.111  -4.633  0.00  0.00    +0.072 C 
ATOM      7  C   UNL     1       3.803   0.037  -4.648  0.00  0.00    +0.023 A 
ATOM      8  C   UNL     1       4.615  -0.379  -3.652  0.00  0.00    -0.002 A 
ATOM      9  C   UNL     1       5.971  -0.055  -4.040  0.00  0.00    +0.005 A 
ATOM     10  C   UNL     1       7.209  -0.242  -3.417  0.00  0.00    +0.010 A 
ATOM     11  C   UNL     1       8.319   0.202  -4.093  0.00  0.00    +0.001 A 
ATOM     12  C   UNL     1       8.230   0.807  -5.336  0.00  0.00    +0.002 A 
ATOM     13  C   UNL     1       7.019   1.005  -5.976  0.00  0.00    +0.026 A 
ATOM     14  C   UNL     1       5.875   0.566  -5.313  0.00  0.00    +0.047 A 
ATOM     15  N   UNL     1       4.552   0.603  -5.648  0.00  0.00    -0.358 N 
ATOM     16  H   UNL     1       4.196   0.973  -6.470  0.00  0.00    +0.166 HD
ATOM     17  C   UNL     1       4.133  -1.053  -2.395  0.00  0.00    +0.146 C 
ATOM     18  H   UNL     1       3.710  -0.346  -0.125  0.00  0.00    +0.151 HD
ENDROOT
BRANCH   1  20
ATOM     19  C   UNL     1       1.598  -0.990   1.918  0.00  0.00    +0.028 C 
ATOM     20  C   UNL     1       2.058   0.210   1.087  0.00  0.00    +0.076 C 
BRANCH  20  21
ATOM     21  C   UNL     1       3.017   1.066   1.916  0.00  0.00    +0.057 C 
BRANCH  21  22
ATOM     22  C   UNL     1       3.374   2.311   1.145  0.00  0.00    -0.039 A 
ATOM     23  C   UNL     1       4.465   2.321   0.295  0.00  0.00    +0.011 A 
ATOM     24  C   UNL     1       4.758   3.456  -0.384  0.00  0.00    +0.045 A 
ATOM     25  S   UNL     1       3.473   4.563   0.173  0.00  0.00    -0.105 S 
ATOM     26  C   UNL     1       2.628   3.435   1.270  0.00  0.00    +0.049 A 
ENDBRANCH  21  22
ENDBRANCH  20  21
ENDBRANCH   1  20
TORSDOF 3
