REMARK  Name = ZINC14598174
REMARK  2 active torsions:
REMARK  status: ('A' for Active; 'I' for Inactive)
REMARK    1  A    between atoms: C_4  and  N_21
REMARK    2  A    between atoms: C_6  and  C_7
REMARK                            x       y       z     vdW  Elec       q    Type
REMARK                         _______ _______ _______ _____ _____    ______ ____
ROOT
ATOM      1  C   UNL     1      -1.810   2.779   3.449  0.00  0.00    +0.247 C 
ATOM      2  O   UNL     1      -1.048   1.832   3.491  0.00  0.00    -0.270 OA
ATOM      3  N   UNL     1      -2.132   3.332   2.263  0.00  0.00    -0.294 N 
ATOM      4  C   UNL     1      -3.149   4.392   2.176  0.00  0.00    +0.108 C 
ATOM      5  C   UNL     1      -4.203   3.991   1.140  0.00  0.00    +0.019 C 
ATOM      6  C   UNL     1      -3.520   3.655  -0.189  0.00  0.00    +0.007 C 
ATOM      7  C   UNL     1      -2.561   2.484   0.021  0.00  0.00    +0.010 C 
ATOM      8  C   UNL     1      -1.479   2.895   1.025  0.00  0.00    +0.079 C 
ATOM      9  C   UNL     1      -0.568   1.698   1.292  0.00  0.00    +0.023 C 
ATOM     10  C   UNL     1       0.101   1.277  -0.019  0.00  0.00    +0.002 C 
ATOM     11  C   UNL     1      -0.966   0.896  -1.046  0.00  0.00    +0.000 C 
ATOM     12  C   UNL     1      -1.896   2.087  -1.296  0.00  0.00    +0.005 C 
ENDROOT
BRANCH   1  18
ATOM     13  C   UNL     1      -2.610   4.693   4.827  0.00  0.00    +0.014 A 
ATOM     14  C   UNL     1      -3.151   5.194   5.993  0.00  0.00    +0.023 A 
ATOM     15  C   UNL     1      -3.457   4.340   7.040  0.00  0.00    +0.071 A 
ATOM     16  C   UNL     1      -3.228   2.979   6.920  0.00  0.00    +0.145 A 
ATOM     17  C   UNL     1      -2.694   2.466   5.757  0.00  0.00    +0.047 A 
ATOM     18  C   UNL     1      -2.383   3.322   4.698  0.00  0.00    +0.039 A 
ATOM     19 CL   UNL     1      -4.130   4.978   8.507  0.00  0.00    -0.081 Cl
BRANCH  16  20
ATOM     20  N   UNL     1      -3.559   2.073   8.043  0.00  0.00    +0.058 N 
ATOM     21  O   UNL     1      -3.359   0.876   7.939  0.00  0.00    -0.126 OA
ATOM     22  O   UNL     1      -4.031   2.525   9.071  0.00  0.00    -0.126 OA
ENDBRANCH  16  20
ENDBRANCH   1  18
TORSDOF 2
