REMARK  Name = ZINC37843734
REMARK  6 active torsions:
REMARK  status: ('A' for Active; 'I' for Inactive)
REMARK    1  A    between atoms: C_1  and  C_2
REMARK    2  A    between atoms: C_2  and  N_3
REMARK    3  A    between atoms: C_7  and  C_8
REMARK    4  A    between atoms: N_10  and  C_11
REMARK    5  A    between atoms: C_15  and  N_18
REMARK    6  A    between atoms: C_16  and  C_17
REMARK                            x       y       z     vdW  Elec       q    Type
REMARK                         _______ _______ _______ _____ _____    ______ ____
ROOT
ATOM      1  C   UNL     1       2.947   0.045  -0.300  0.00  0.00    +0.265 C 
ATOM      2  O   UNL     1       4.088   0.333  -0.610  0.00  0.00    -0.268 OA
ATOM      3  N   UNL     1       2.629  -0.150   0.995  0.00  0.00    -0.280 N 
ATOM      4  H   UNL     1       1.728  -0.414   1.239  0.00  0.00    +0.155 HD
ENDROOT
BRANCH   3   5
ATOM      5  C   UNL     1       3.598   0.029   1.987  0.00  0.00    +0.039 A 
ATOM      6  C   UNL     1       4.942  -0.162   1.690  0.00  0.00    +0.024 A 
ATOM      7  C   UNL     1       5.896   0.015   2.672  0.00  0.00    +0.004 A 
ATOM      8  C   UNL     1       5.516   0.381   3.950  0.00  0.00    +0.033 A 
ATOM      9  C   UNL     1       4.180   0.571   4.250  0.00  0.00    +0.131 A 
ATOM     10  C   UNL     1       3.220   0.402   3.270  0.00  0.00    +0.001 A 
ATOM     11  C   UNL     1       1.764   0.615   3.596  0.00  0.00    +0.048 C 
BRANCH   9  12
ATOM     12  N   UNL     1       3.777   0.962   5.619  0.00  0.00    +0.057 N 
ATOM     13  O   UNL     1       4.454   1.741   6.249  0.00  0.00    -0.126 OA
ATOM     14  O   UNL     1       2.772   0.501   6.109  0.00  0.00    -0.126 OA
ENDBRANCH   9  12
ENDBRANCH   3   5
BRANCH   1  19
ATOM     15  N   UNL     1       2.118  -0.022  -2.696  0.00  0.00    -0.342 N 
ATOM     16  C   UNL     1       0.927  -0.198  -3.319  0.00  0.00    +0.101 A 
ATOM     17  C   UNL     1      -0.037  -0.372  -2.382  0.00  0.00    +0.036 A 
ATOM     18  C   UNL     1       0.571  -0.303  -1.124  0.00  0.00    +0.047 A 
ATOM     19  C   UNL     1       1.917  -0.089  -1.336  0.00  0.00    +0.106 A 
ATOM     20 BR   UNL     1      -1.876  -0.657  -2.715  0.00  0.00    -0.049 Br
BRANCH  15  22
ATOM     21  C   UNL     1       4.163  -1.129  -3.454  0.00  0.00    +0.027 C 
ATOM     22  C   UNL     1       3.406   0.197  -3.360  0.00  0.00    +0.118 C 
ENDBRANCH  15  22
ENDBRANCH   1  19
TORSDOF 4
