REMARK  Name = ZINC12530228
REMARK  6 active torsions:
REMARK  status: ('A' for Active; 'I' for Inactive)
REMARK    1  A    between atoms: C_6  and  C_7
REMARK    2  A    between atoms: C_7  and  N_8
REMARK    3  A    between atoms: C_9  and  C_11
REMARK    4  A    between atoms: N_21  and  C_22
REMARK    5  A    between atoms: C_22  and  C_23
REMARK    6  A    between atoms: C_26  and  C_29
REMARK                            x       y       z     vdW  Elec       q    Type
REMARK                         _______ _______ _______ _____ _____    ______ ____
ROOT
ATOM      1  C   UNL     1      -3.436  -1.808  -2.844  0.00  0.00    +0.149 C 
ATOM      2  C   UNL     1      -3.825  -0.498  -3.544  0.00  0.00    +0.083 C 
ATOM      3  C   UNL     1      -4.280  -0.839  -4.942  0.00  0.00    +0.040 A 
ATOM      4  C   UNL     1      -4.611  -2.093  -5.325  0.00  0.00    +0.051 A 
ATOM      5  N   UNL     1      -4.967  -2.030  -6.635  0.00  0.00    -0.349 N 
ATOM      6  C   UNL     1      -4.846  -0.736  -7.016  0.00  0.00    +0.171 A 
ATOM      7  N   UNL     1      -4.434  -0.032  -5.992  0.00  0.00    -0.349 N 
ATOM      8  H   UNL     1      -5.254  -2.770  -7.191  0.00  0.00    +0.166 HD
ATOM      9  C   UNL     1      -4.568  -3.286  -4.407  0.00  0.00    +0.140 C 
ATOM     10  N   UNL     1      -4.508  -2.798  -3.018  0.00  0.00    -0.281 NA
ATOM     11  H   UNL     1      -4.268   0.923  -5.997  0.00  0.00    +0.166 HD
ENDROOT
BRANCH   1  13
ATOM     12  N   UNL     1      -1.986  -1.330  -0.898  0.00  0.00    -0.310 N 
ATOM     13  C   UNL     1      -3.228  -1.548  -1.374  0.00  0.00    +0.231 C 
ATOM     14  O   UNL     1      -4.178  -1.534  -0.620  0.00  0.00    -0.274 OA
ATOM     15  H   UNL     1      -1.226  -1.340  -1.501  0.00  0.00    +0.149 HD
BRANCH  12  16
ATOM     16  C   UNL     1      -1.783  -1.077   0.531  0.00  0.00    +0.139 C 
BRANCH  16  22
ATOM     17  C   UNL     1       0.224   0.405   0.735  0.00  0.00    +0.006 A 
ATOM     18  C   UNL     1       1.569   0.599   0.983  0.00  0.00    +0.020 A 
ATOM     19  C   UNL     1       2.377  -0.480   1.296  0.00  0.00    +0.041 A 
ATOM     20  C   UNL     1       1.837  -1.752   1.362  0.00  0.00    +0.020 A 
ATOM     21  C   UNL     1       0.491  -1.944   1.114  0.00  0.00    +0.006 A 
ATOM     22  C   UNL     1      -0.316  -0.866   0.801  0.00  0.00    -0.030 A 
ATOM     23 CL   UNL     1       4.068  -0.237   1.607  0.00  0.00    -0.084 Cl
ENDBRANCH  16  22
ENDBRANCH  12  16
ENDBRANCH   1  13
BRANCH  10  24
ATOM     24  C   UNL     1      -4.353  -3.913  -2.074  0.00  0.00    +0.120 C 
BRANCH  24  25
ATOM     25  C   UNL     1      -5.640  -4.694  -2.004  0.00  0.00    -0.033 A 
ATOM     26  C   UNL     1      -6.609  -4.343  -1.081  0.00  0.00    +0.006 A 
ATOM     27  C   UNL     1      -7.789  -5.054  -1.011  0.00  0.00    +0.015 A 
ATOM     28  C   UNL     1      -8.005  -6.130  -1.875  0.00  0.00    +0.063 A 
ATOM     29  C   UNL     1      -7.022  -6.479  -2.805  0.00  0.00    +0.015 A 
ATOM     30  C   UNL     1      -5.849  -5.755  -2.867  0.00  0.00    +0.006 A 
BRANCH  28  31
ATOM     31  C   UNL     1      -9.264  -6.895  -1.805  0.00  0.00    +0.387 C 
ATOM     32  O   UNL     1     -10.122  -6.588  -0.990  0.00  0.00    -0.241 OA
ATOM     33  O   UNL     1      -9.450  -7.837  -2.563  0.00  0.00    -0.241 OA
ENDBRANCH  28  31
ENDBRANCH  24  25
ENDBRANCH  10  24
TORSDOF 6
