REMARK  Name = ZINC38556696
REMARK  3 active torsions:
REMARK  status: ('A' for Active; 'I' for Inactive)
REMARK    1  A    between atoms: C_3  and  C_6
REMARK    2  A    between atoms: C_6  and  C_11
REMARK    3  A    between atoms: C_22  and  C_25
REMARK                            x       y       z     vdW  Elec       q    Type
REMARK                         _______ _______ _______ _____ _____    ______ ____
ROOT
ATOM      1  C   UNL     1       3.801   2.721  -0.994  0.00  0.00    +0.227 C 
ATOM      2  O   UNL     1       4.418   2.338  -1.966  0.00  0.00    -0.275 OA
ATOM      3  N   UNL     1       3.036   3.828  -1.074  0.00  0.00    -0.298 N 
ATOM      4  C   UNL     1       2.382   4.373   0.124  0.00  0.00    +0.126 C 
ATOM      5  C   UNL     1       2.795   5.842   0.282  0.00  0.00    +0.126 C 
ATOM      6  N   UNL     1       2.600   6.525  -1.005  0.00  0.00    -0.307 N 
ATOM      7  C   UNL     1       3.254   5.980  -2.203  0.00  0.00    +0.126 C 
ATOM      8  C   UNL     1       2.846   4.514  -2.359  0.00  0.00    +0.126 C 
ATOM      9  C   UNL     1       1.821   7.652  -1.086  0.00  0.00    +0.151 C 
ATOM     10  N   UNL     1       0.984   7.968  -0.119  0.00  0.00    -0.258 N 
ATOM     11  N   UNL     1       0.224   8.983  -0.115  0.00  0.00    -0.176 NA
ATOM     12  C   UNL     1      -0.168   9.714  -1.101  0.00  0.00    +0.079 C 
ATOM     13  C   UNL     1       0.230   9.424  -2.530  0.00  0.00    +0.134 C 
ATOM     14  S   UNL     1       1.918   8.727  -2.491  0.00  0.00    -0.085 S 
ATOM     15  H   UNL     1       0.946   7.378   0.649  0.00  0.00    +0.191 HD
ENDROOT
BRANCH  12  16
ATOM     16  C   UNL     1      -1.034  10.872  -0.826  0.00  0.00    -0.001 A 
ATOM     17  C   UNL     1      -1.480  11.681  -1.876  0.00  0.00    +0.011 A 
ATOM     18  C   UNL     1      -2.291  12.764  -1.611  0.00  0.00    +0.020 A 
ATOM     19  C   UNL     1      -2.664  13.051  -0.308  0.00  0.00    +0.041 A 
ATOM     20  C   UNL     1      -2.226  12.255   0.737  0.00  0.00    +0.020 A 
ATOM     21  C   UNL     1      -1.419  11.165   0.486  0.00  0.00    +0.011 A 
ATOM     22 CL   UNL     1      -3.686  14.417   0.016  0.00  0.00    -0.084 Cl
ENDBRANCH  12  16
BRANCH   1  23
ATOM     23  C   UNL     1       3.890   1.959   0.303  0.00  0.00    +0.078 C 
ATOM     24  C   UNL     1       4.695   0.663   0.100  0.00  0.00    +0.021 C 
ATOM     25  C   UNL     1       3.746  -0.504   0.445  0.00  0.00    +0.001 C 
ATOM     26  C   UNL     1       2.329   0.086   0.238  0.00  0.00    +0.001 C 
ATOM     27  C   UNL     1       2.481   1.534   0.765  0.00  0.00    +0.021 C 
BRANCH  23  30
ATOM     28  C   UNL     1       6.149   4.173   2.426  0.00  0.00    +0.008 A 
ATOM     29  C   UNL     1       5.748   3.434   1.329  0.00  0.00    +0.012 A 
ATOM     30  C   UNL     1       4.544   2.812   1.359  0.00  0.00    +0.005 A 
ATOM     31  S   UNL     1       3.934   3.267   2.974  0.00  0.00    -0.101 S 
ATOM     32  C   UNL     1       5.325   4.255   3.500  0.00  0.00    +0.045 A 
ENDBRANCH  23  30
ENDBRANCH   1  23
TORSDOF 3
