REMARK  Name = ZINC39683051
REMARK  8 active torsions:
REMARK  status: ('A' for Active; 'I' for Inactive)
REMARK    1  A    between atoms: C_1  and  O_2
REMARK    2  A    between atoms: O_2  and  C_3
REMARK    3  A    between atoms: C_6  and  O_34
REMARK    4  A    between atoms: C_7  and  C_9
REMARK    5  A    between atoms: C_9  and  N_10
REMARK    6  A    between atoms: C_11  and  C_13
REMARK    7  A    between atoms: C_24  and  C_26
REMARK    8  A    between atoms: O_34  and  C_35
REMARK                            x       y       z     vdW  Elec       q    Type
REMARK                         _______ _______ _______ _____ _____    ______ ____
ROOT
ATOM      1  C   UNL     1       4.489  -6.508  -0.838  0.00  0.00    +0.100 C 
ATOM      2  C   UNL     1       5.406  -5.988  -1.968  0.00  0.00    +0.121 C 
ATOM      3  N   UNL     1       6.332  -7.112  -2.246  0.00  0.00    -0.296 N 
ATOM      4  C   UNL     1       5.482  -8.322  -2.149  0.00  0.00    +0.115 C 
ATOM      5  C   UNL     1       4.542  -8.040  -0.961  0.00  0.00    -0.004 C 
ATOM      6  C   UNL     1       5.107  -8.654   0.317  0.00  0.00    -0.010 C 
ATOM      7  C   UNL     1       5.096 -10.180   0.193  0.00  0.00    -0.082 C 
ATOM      8  N   UNL     1       3.721 -10.645  -0.030  0.00  0.00    +0.379 N 
ATOM      9  C   UNL     1       3.218 -10.124  -1.307  0.00  0.00    -0.082 C 
ATOM     10  C   UNL     1       3.150  -8.596  -1.247  0.00  0.00    -0.010 C 
ATOM     11  C   UNL     1       7.649  -7.047  -2.523  0.00  0.00    +0.249 C 
ATOM     12  O   UNL     1       8.257  -8.056  -2.822  0.00  0.00    -0.270 OA
ATOM     13  H   UNL     1       3.708 -11.653  -0.051  0.00  0.00    -0.086 HD
ATOM     14  H   UNL     1       3.131 -10.319   0.720  0.00  0.00    -0.086 HD
ENDROOT
BRANCH  11  15
ATOM     15  C   UNL     1       8.353  -5.750  -2.465  0.00  0.00    +0.073 A 
ATOM     16  C   UNL     1       7.698  -4.577  -2.846  0.00  0.00    +0.036 A 
ATOM     17  C   UNL     1       8.361  -3.369  -2.788  0.00  0.00    +0.042 A 
ATOM     18  C   UNL     1       9.676  -3.316  -2.353  0.00  0.00    +0.023 A 
ATOM     19  C   UNL     1      10.332  -4.472  -1.973  0.00  0.00    +0.040 A 
ATOM     20  C   UNL     1       9.678  -5.689  -2.021  0.00  0.00    +0.136 A 
ATOM     21  F   UNL     1      10.319  -6.818  -1.645  0.00  0.00    -0.205 F 
ATOM     22 CL   UNL     1       7.547  -1.911  -3.263  0.00  0.00    -0.084 Cl
ENDBRANCH  11  15
BRANCH   1  24
ATOM     23  N   UNL     1       2.275  -5.826   0.029  0.00  0.00    -0.311 N 
ATOM     24  C   UNL     1       3.080  -6.014  -1.036  0.00  0.00    +0.218 C 
ATOM     25  O   UNL     1       2.669  -5.785  -2.154  0.00  0.00    -0.275 OA
ATOM     26  H   UNL     1       2.603  -6.010   0.923  0.00  0.00    +0.149 HD
BRANCH  23  27
ATOM     27  C   UNL     1       0.905  -5.346  -0.164  0.00  0.00    +0.143 C 
BRANCH  27  32
ATOM     28  C   UNL     1      -1.268  -6.097   2.835  0.00  0.00    +0.121 A 
ATOM     29  C   UNL     1      -1.028  -4.989   3.636  0.00  0.00    +0.049 A 
ATOM     30  C   UNL     1      -0.166  -4.000   3.206  0.00  0.00    +0.049 A 
ATOM     31  C   UNL     1       0.462  -4.114   1.974  0.00  0.00    +0.125 A 
ATOM     32  C   UNL     1       0.223  -5.222   1.174  0.00  0.00    +0.015 A 
ATOM     33  C   UNL     1      -0.636  -6.213   1.606  0.00  0.00    +0.054 A 
BRANCH  28  35
ATOM     34  C   UNL     1      -2.734  -6.885   4.534  0.00  0.00    +0.277 C 
ATOM     35  O   UNL     1      -2.118  -7.070   3.258  0.00  0.00    -0.495 OA
ENDBRANCH  28  35
BRANCH  31  36
ATOM     36  O   UNL     1       1.311  -3.140   1.551  0.00  0.00    -0.495 OA
ATOM     37  C   UNL     1       1.510  -2.028   2.426  0.00  0.00    +0.277 C 
ENDBRANCH  31  36
ENDBRANCH  27  32
ENDBRANCH  23  27
ENDBRANCH   1  24
TORSDOF 6
