REMARK  Name = ZINC66536414
REMARK  9 active torsions:
REMARK  status: ('A' for Active; 'I' for Inactive)
REMARK    1  A    between atoms: C_1  and  C_2
REMARK    2  A    between atoms: C_2  and  N_3
REMARK    3  A    between atoms: N_6  and  C_7
REMARK    4  A    between atoms: C_10  and  O_13
REMARK    5  A    between atoms: O_13  and  C_14
REMARK    6  A    between atoms: C_14  and  C_16
REMARK    7  A    between atoms: C_17  and  C_28
REMARK    8  A    between atoms: C_22  and  C_26
REMARK    9  A    between atoms: C_22  and  C_27
REMARK                            x       y       z     vdW  Elec       q    Type
REMARK                         _______ _______ _______ _____ _____    ______ ____
ROOT
ATOM      1  O   UNL     1       5.393  -3.009  -4.551  0.00  0.00    -0.456 OA
ENDROOT
BRANCH   1   5
ATOM      2  C   UNL     1       1.609  -3.670  -2.775  0.00  0.00    +0.075 C 
ATOM      3  C   UNL     1       2.852  -4.182  -2.045  0.00  0.00    +0.026 C 
ATOM      4  C   UNL     1       4.088  -3.445  -2.564  0.00  0.00    +0.046 C 
ATOM      5  C   UNL     1       4.239  -3.697  -4.066  0.00  0.00    +0.177 C 
ATOM      6  C   UNL     1       2.995  -3.186  -4.796  0.00  0.00    +0.046 C 
ATOM      7  C   UNL     1       1.759  -3.923  -4.276  0.00  0.00    +0.026 C 
BRANCH   2  11
ATOM      8  N   UNL     1       0.688  -0.476  -1.203  0.00  0.00    -0.300 N 
ATOM      9  C   UNL     1       0.827  -1.799  -1.425  0.00  0.00    +0.300 C 
ATOM     10  O   UNL     1       0.383  -2.599  -0.625  0.00  0.00    -0.253 OA
ATOM     11  N   UNL     1       1.458  -2.233  -2.534  0.00  0.00    -0.297 N 
ATOM     12  H   UNL     1       1.042   0.162  -1.842  0.00  0.00    +0.150 HD
ATOM     13  H   UNL     1       1.812  -1.595  -3.172  0.00  0.00    +0.151 HD
BRANCH   8  15
ATOM     14  C   UNL     1      -0.019   1.526   0.010  0.00  0.00    +0.024 C 
ATOM     15  C   UNL     1       0.002  -0.004   0.002  0.00  0.00    +0.102 C 
ENDBRANCH   8  15
ENDBRANCH   2  11
ENDBRANCH   1   5
BRANCH   1  16
ATOM     16  C   UNL     1       6.036  -3.557  -5.602  0.00  0.00    +0.375 C 
ATOM     17  O   UNL     1       5.627  -4.592  -6.093  0.00  0.00    -0.241 OA
BRANCH  16  18
ATOM     18  C   UNL     1       7.229  -2.906  -6.153  0.00  0.00    +0.215 A 
ATOM     19  C   UNL     1       7.961  -3.356  -7.214  0.00  0.00    +0.013 A 
ATOM     20  C   UNL     1       9.001  -2.432  -7.392  0.00  0.00    +0.062 A 
ATOM     21  C   UNL     1       8.850  -1.452  -6.417  0.00  0.00    +0.117 A 
ATOM     22  O   UNL     1       7.779  -1.757  -5.698  0.00  0.00    -0.452 OA
ATOM     23  C   UNL     1       9.791  -0.281  -6.283  0.00  0.00    +0.082 C 
ATOM     24  C   UNL     1      11.115  -0.615  -6.976  0.00  0.00    -0.021 C 
ATOM     25  C   UNL     1      10.871  -1.078  -8.416  0.00  0.00    +0.086 C 
ATOM     26  C   UNL     1      10.096  -2.386  -8.374  0.00  0.00    +0.167 C 
ATOM     27  O   UNL     1      10.361  -3.324  -9.097  0.00  0.00    -0.292 OA
ATOM     28  C   UNL     1      11.823  -1.728  -6.201  0.00  0.00    +0.012 C 
ATOM     29  C   UNL     1      12.004   0.631  -6.991  0.00  0.00    +0.012 C 
ATOM     30  C   UNL     1       7.704  -4.598  -8.029  0.00  0.00    +0.048 C 
ENDBRANCH  16  18
ENDBRANCH   1  16
TORSDOF 5
