REMARK  Name = ZINC05482620
REMARK  3 active torsions:
REMARK  status: ('A' for Active; 'I' for Inactive)
REMARK    1  A    between atoms: C_1  and  C_2
REMARK    2  A    between atoms: N_12  and  C_15
REMARK    3  A    between atoms: C_20  and  C_21
REMARK                            x       y       z     vdW  Elec       q    Type
REMARK                         _______ _______ _______ _____ _____    ______ ____
ROOT
ATOM      1  C   UNL     1      -0.018   1.503   0.010  0.00  0.00    +0.039 C 
ATOM      2  C   UNL     1       0.002  -0.004   0.002  0.00  0.00    -0.076 C 
ATOM      3  C   UNL     1       0.005  -0.604  -1.150  0.00  0.00    -0.027 C 
ATOM      4  C   UNL     1       0.050  -2.107  -1.331  0.00  0.00    +0.040 C 
ATOM      5  C   UNL     1       0.542  -2.692  -0.024  0.00  0.00    +0.092 C 
ATOM      6  C   UNL     1      -0.416  -2.145   1.079  0.00  0.00    +0.092 C 
ATOM      7  C   UNL     1       0.024  -0.718   1.337  0.00  0.00    +0.043 C 
ATOM      8  C   UNL     1      -0.186  -3.163   2.155  0.00  0.00    +0.230 C 
ATOM      9  O   UNL     1      -0.257  -2.985   3.352  0.00  0.00    -0.274 OA
ATOM     10  N   UNL     1       0.118  -4.325   1.520  0.00  0.00    -0.209 N 
ATOM     11  C   UNL     1       0.402  -4.169   0.189  0.00  0.00    +0.230 C 
ATOM     12  O   UNL     1       0.509  -5.039  -0.648  0.00  0.00    -0.274 OA
ENDROOT
BRANCH  10  13
ATOM     13  C   UNL     1       0.154  -5.568   2.168  0.00  0.00    +0.056 A 
ATOM     14  C   UNL     1      -0.989  -6.353   2.231  0.00  0.00    +0.024 A 
ATOM     15  C   UNL     1      -0.950  -7.577   2.870  0.00  0.00    +0.002 A 
ATOM     16  C   UNL     1       0.226  -8.020   3.446  0.00  0.00    +0.001 A 
ATOM     17  C   UNL     1       1.366  -7.241   3.384  0.00  0.00    +0.014 A 
ATOM     18  C   UNL     1       1.335  -6.018   2.742  0.00  0.00    +0.077 A 
BRANCH  18  19
ATOM     19  C   UNL     1       2.580  -5.172   2.670  0.00  0.00    +0.419 C 
ATOM     20  F   UNL     1       3.631  -5.833   3.314  0.00  0.00    -0.166 F 
ATOM     21  F   UNL     1       2.918  -4.953   1.330  0.00  0.00    -0.166 F 
ATOM     22  F   UNL     1       2.346  -3.944   3.299  0.00  0.00    -0.166 F 
ENDBRANCH  18  19
ENDBRANCH  10  13
TORSDOF 2
