REMARK  Name = ZINC43943884
REMARK  6 active torsions:
REMARK  status: ('A' for Active; 'I' for Inactive)
REMARK    1  A    between atoms: C_1  and  C_2
REMARK    2  A    between atoms: C_5  and  N_9
REMARK    3  A    between atoms: C_10  and  C_12
REMARK    4  A    between atoms: N_14  and  C_15
REMARK    5  A    between atoms: C_15  and  C_16
REMARK    6  A    between atoms: N_24  and  C_25
REMARK                            x       y       z     vdW  Elec       q    Type
REMARK                         _______ _______ _______ _____ _____    ______ ____
ROOT
ATOM      1  C   UNL     1       0.185  -9.377   1.707  0.00  0.00    +0.108 C 
ENDROOT
BRANCH   1   2
ATOM      2  C   UNL     1       0.560  -9.506   3.185  0.00  0.00    +0.009 C 
ATOM      3  C   UNL     1       2.017  -9.078   3.381  0.00  0.00    +0.024 C 
ATOM      4  C   UNL     1       2.378  -9.175   4.866  0.00  0.00    +0.109 C 
ATOM      5  N   UNL     1       2.081 -10.535   5.337  0.00  0.00    -0.285 N 
ATOM      6  C   UNL     1       0.735 -11.080   5.117  0.00  0.00    +0.109 C 
ATOM      7  C   UNL     1       0.391 -10.961   3.629  0.00  0.00    +0.024 C 
ATOM      8  C   UNL     1       3.026 -11.268   5.958  0.00  0.00    +0.306 C 
ATOM      9  O   UNL     1       4.106 -10.774   6.219  0.00  0.00    -0.252 OA
ATOM     10  N   UNL     1       2.774 -12.550   6.290  0.00  0.00    -0.269 N 
ATOM     11  H   UNL     1       1.887 -12.919   6.160  0.00  0.00    +0.156 HD
BRANCH  10  12
ATOM     12  C   UNL     1       3.794 -13.349   6.821  0.00  0.00    +0.035 A 
ATOM     13  C   UNL     1       4.836 -12.766   7.530  0.00  0.00    +0.026 A 
ATOM     14  C   UNL     1       5.840 -13.556   8.055  0.00  0.00    +0.040 A 
ATOM     15  C   UNL     1       5.809 -14.928   7.873  0.00  0.00    +0.124 A 
ATOM     16  C   UNL     1       4.772 -15.512   7.165  0.00  0.00    +0.040 A 
ATOM     17  C   UNL     1       3.762 -14.726   6.645  0.00  0.00    +0.026 A 
ATOM     18  F   UNL     1       6.793 -15.699   8.386  0.00  0.00    -0.205 F 
ENDBRANCH  10  12
ENDBRANCH   1   2
BRANCH   1  21
ATOM     19  C   UNL     1      -0.063  -7.612   0.047  0.00  0.00    +0.299 C 
ATOM     20  O   UNL     1      -0.368  -8.459  -0.766  0.00  0.00    -0.265 OA
ATOM     21  N   UNL     1       0.232  -7.967   1.313  0.00  0.00    -0.307 N 
ATOM     22  H   UNL     1       0.475  -7.290   1.963  0.00  0.00    +0.149 HD
BRANCH  19  24
ATOM     23  N   UNL     1      -0.311  -5.818  -1.621  0.00  0.00    -0.278 N 
ATOM     24  C   UNL     1      -0.016  -6.174  -0.355  0.00  0.00    +0.303 C 
ATOM     25  O   UNL     1       0.289  -5.326   0.458  0.00  0.00    -0.265 OA
ATOM     26  H   UNL     1      -0.666  -6.476  -2.239  0.00  0.00    +0.155 HD
BRANCH  23  31
ATOM     27  C   UNL     1       0.517  -0.474  -3.334  0.00  0.00    +0.047 C 
ATOM     28  C   UNL     1       0.298  -1.894  -2.879  0.00  0.00    -0.015 A 
ATOM     29  C   UNL     1      -0.830  -2.582  -3.286  0.00  0.00    +0.008 A 
ATOM     30  C   UNL     1      -1.035  -3.883  -2.870  0.00  0.00    +0.024 A 
ATOM     31  C   UNL     1      -0.106  -4.502  -2.043  0.00  0.00    +0.037 A 
ATOM     32  C   UNL     1       1.027  -3.810  -1.635  0.00  0.00    +0.062 A 
ATOM     33  C   UNL     1       1.229  -2.508  -2.059  0.00  0.00    +0.128 A 
ATOM     34  F   UNL     1       2.333  -1.835  -1.667  0.00  0.00    -0.205 F 
ENDBRANCH  23  31
ENDBRANCH  19  24
ENDBRANCH   1  21
TORSDOF 5
