REMARK  Name = ZINC54241154
REMARK  8 active torsions:
REMARK  status: ('A' for Active; 'I' for Inactive)
REMARK    1  A    between atoms: C_1  and  C_2
REMARK    2  A    between atoms: C_4  and  S_19
REMARK    3  A    between atoms: C_6  and  N_9
REMARK    4  A    between atoms: C_7  and  C_8
REMARK    5  A    between atoms: N_9  and  C_10
REMARK    6  A    between atoms: C_10  and  C_11
REMARK    7  A    between atoms: N_16  and  C_18
REMARK    8  A    between atoms: S_19  and  N_22
REMARK                            x       y       z     vdW  Elec       q    Type
REMARK                         _______ _______ _______ _____ _____    ______ ____
ROOT
ATOM      1  C   UNL     1      -0.018   1.503   0.010  0.00  0.00    +0.044 C 
ATOM      2  C   UNL     1       0.002  -0.004   0.002  0.00  0.00    -0.044 A 
ATOM      3  C   UNL     1       0.006  -0.688  -1.200  0.00  0.00    +0.032 A 
ATOM      4  C   UNL     1       0.024  -2.071  -1.212  0.00  0.00    +0.107 A 
ATOM      5  C   UNL     1       0.039  -2.773  -0.023  0.00  0.00    +0.051 A 
ATOM      6  C   UNL     1       0.036  -2.089   1.186  0.00  0.00    +0.032 A 
ATOM      7  C   UNL     1       0.023  -0.700   1.194  0.00  0.00    -0.027 A 
ATOM      8  C   UNL     1       0.025   0.046   2.504  0.00  0.00    +0.046 C 
ENDROOT
BRANCH   4   9
ATOM      9  S   UNL     1       0.027  -2.937  -2.746  0.00  0.00    +0.056 S 
ATOM     10  O   UNL     1      -0.505  -4.229  -2.485  0.00  0.00    -0.153 OA
ATOM     11  O   UNL     1      -0.540  -2.060  -3.709  0.00  0.00    -0.153 OA
BRANCH   9  12
ATOM     12  N   UNL     1       1.610  -3.157  -3.181  0.00  0.00    -0.204 NA
ATOM     13  H   UNL     1       2.321  -2.824  -2.611  0.00  0.00    +0.144 HD
ATOM     14  H   UNL     1       1.827  -3.619  -4.006  0.00  0.00    +0.144 HD
ENDBRANCH   9  12
ENDBRANCH   4   9
BRANCH   6  15
ATOM     15  N   UNL     1       0.051  -2.796   2.390  0.00  0.00    -0.343 N 
ATOM     16  H   UNL     1       0.049  -2.318   3.234  0.00  0.00    +0.146 HD
BRANCH  15  17
ATOM     17  C   UNL     1       0.071  -4.261   2.379  0.00  0.00    +0.103 C 
BRANCH  17  18
ATOM     18  C   UNL     1       0.085  -4.782   3.818  0.00  0.00    -0.011 C 
ATOM     19  C   UNL     1       1.392  -4.367   4.499  0.00  0.00    +0.001 C 
ATOM     20  C   UNL     1       1.430  -4.959   5.911  0.00  0.00    -0.018 C 
ATOM     21  C   UNL     1       1.278  -6.479   5.826  0.00  0.00    -0.079 C 
ATOM     22  N   UNL     1      -0.002  -6.811   5.189  0.00  0.00    +0.378 N 
ATOM     23  C   UNL     1      -0.019  -6.309   3.810  0.00  0.00    -0.074 C 
ATOM     24  C   UNL     1      -0.179  -8.269   5.179  0.00  0.00    -0.096 C 
ATOM     25  H   UNL     1      -0.755  -6.387   5.709  0.00  0.00    -0.082 HD
ENDBRANCH  17  18
ENDBRANCH  15  17
ENDBRANCH   6  15
TORSDOF 5
