REMARK  Name = ZINC64143421
REMARK  7 active torsions:
REMARK  status: ('A' for Active; 'I' for Inactive)
REMARK    1  A    between atoms: C_1  and  C_2
REMARK    2  A    between atoms: C_4  and  C_23
REMARK    3  A    between atoms: C_9  and  C_22
REMARK    4  A    between atoms: N_10  and  C_11
REMARK    5  A    between atoms: C_11  and  C_12
REMARK    6  A    between atoms: C_12  and  C_13
REMARK    7  A    between atoms: N_25  and  C_26
REMARK                            x       y       z     vdW  Elec       q    Type
REMARK                         _______ _______ _______ _____ _____    ______ ____
ROOT
ATOM      1  C   UNL     1      -0.770   1.423  -1.024  0.00  0.00    +0.029 C 
ATOM      2  C   UNL     1      -0.721  -0.088  -0.786  0.00  0.00    +0.089 C 
ATOM      3  C   UNL     1       0.482  -0.689  -1.524  0.00  0.00    +0.165 C 
ATOM      4  C   UNL     1       1.750  -0.239  -0.843  0.00  0.00    +0.171 C 
ATOM      5  O   UNL     1       2.779  -0.150  -1.484  0.00  0.00    -0.292 OA
ATOM      6  C   UNL     1       1.751   0.077   0.520  0.00  0.00    +0.065 C 
ATOM      7  C   UNL     1       0.613   0.008   1.252  0.00  0.00    +0.007 C 
ATOM      8  N   UNL     1      -0.559  -0.359   0.651  0.00  0.00    -0.329 N 
ATOM      9  C   UNL     1       0.638   0.333   2.723  0.00  0.00    +0.060 C 
ENDROOT
BRANCH   3  10
ATOM     10  C   UNL     1       0.394  -2.193  -1.489  0.00  0.00    +0.226 C 
ATOM     11  O   UNL     1      -0.064  -2.752  -0.515  0.00  0.00    -0.275 OA
ATOM     12  N   UNL     1       0.825  -2.917  -2.541  0.00  0.00    -0.312 N 
ATOM     13  H   UNL     1       1.192  -2.471  -3.320  0.00  0.00    +0.149 HD
BRANCH  12  14
ATOM     14  C   UNL     1       0.740  -4.380  -2.507  0.00  0.00    +0.073 C 
ATOM     15  C   UNL     1       1.951  -4.933  -1.728  0.00  0.00    +0.022 C 
ATOM     16  C   UNL     1       1.621  -6.322  -1.255  0.00  0.00    +0.002 C 
ATOM     17  C   UNL     1       2.114  -7.409  -2.229  0.00  0.00    +0.000 C 
ATOM     18  C   UNL     1       1.874  -7.042  -3.706  0.00  0.00    +0.000 C 
ATOM     19  C   UNL     1       0.525  -6.413  -3.931  0.00  0.00    +0.002 C 
ATOM     20  C   UNL     1       0.684  -4.880  -3.873  0.00  0.00    +0.022 C 
ENDBRANCH  12  14
ENDBRANCH   3  10
BRANCH   8  21
ATOM     21  C   UNL     1      -1.627  -1.007   1.417  0.00  0.00    +0.109 C 
BRANCH  21  22
ATOM     22  C   UNL     1      -2.606   0.054   1.923  0.00  0.00    +0.052 C 
BRANCH  22  23
ATOM     23  C   UNL     1      -3.745  -0.619   2.646  0.00  0.00    -0.040 C 
ATOM     24  C   UNL     1      -3.853  -0.828   3.978  0.00  0.00    -0.001 A 
ATOM     25  C   UNL     1      -2.976  -0.505   5.109  0.00  0.00    +0.010 A 
ATOM     26  C   UNL     1      -3.363  -0.849   6.358  0.00  0.00    +0.001 A 
ATOM     27  C   UNL     1      -4.578  -1.506   6.599  0.00  0.00    +0.002 A 
ATOM     28  C   UNL     1      -5.437  -1.835   5.611  0.00  0.00    +0.026 A 
ATOM     29  C   UNL     1      -5.131  -1.520   4.258  0.00  0.00    +0.043 A 
ATOM     30  N   UNL     1      -5.787  -1.731   3.143  0.00  0.00    -0.380 N 
ATOM     31  C   UNL     1      -5.002  -1.190   2.029  0.00  0.00    +0.144 C 
ATOM     32  H   UNL     1      -6.650  -2.169   3.068  0.00  0.00    +0.160 HD
ENDBRANCH  22  23
ENDBRANCH  21  22
ENDBRANCH   8  21
TORSDOF 5
