REMARK  Name = ZINC65532887
REMARK  4 active torsions:
REMARK  status: ('A' for Active; 'I' for Inactive)
REMARK    1  A    between atoms: C_1  and  C_2
REMARK    2  A    between atoms: C_5  and  C_9
REMARK    3  A    between atoms: C_7  and  C_8
REMARK    4  A    between atoms: C_15  and  C_17
REMARK                            x       y       z     vdW  Elec       q    Type
REMARK                         _______ _______ _______ _____ _____    ______ ____
ROOT
ATOM      1  C   UNL     1       0.038  -4.399   0.040  0.00  0.00    +0.107 C 
ATOM      2  C   UNL     1       1.431  -5.034  -0.155  0.00  0.00    +0.029 C 
ATOM      3  C   UNL     1       1.124  -6.286  -1.019  0.00  0.00    +0.021 C 
ATOM      4  C   UNL     1      -0.023  -5.767  -1.922  0.00  0.00    +0.109 C 
ATOM      5  N   UNL     1      -0.823  -4.885  -1.048  0.00  0.00    -0.290 N 
ATOM      6  C   UNL     1      -2.124  -4.576  -1.217  0.00  0.00    +0.254 C 
ATOM      7  O   UNL     1      -2.704  -3.907  -0.382  0.00  0.00    -0.270 OA
ENDROOT
BRANCH   6   8
ATOM      8  C   UNL     1      -2.840  -5.045  -2.409  0.00  0.00    +0.120 A 
ATOM      9  C   UNL     1      -2.642  -4.431  -3.653  0.00  0.00    +0.131 A 
ATOM     10  N   UNL     1      -3.294  -4.868  -4.710  0.00  0.00    -0.237 NA
ATOM     11  C   UNL     1      -4.150  -5.890  -4.634  0.00  0.00    +0.140 A 
ATOM     12  C   UNL     1      -4.818  -6.314  -5.795  0.00  0.00    +0.047 A 
ATOM     13  C   UNL     1      -5.693  -7.358  -5.724  0.00  0.00    +0.005 A 
ATOM     14  C   UNL     1      -5.913  -7.992  -4.495  0.00  0.00    +0.018 A 
ATOM     15  C   UNL     1      -5.260  -7.569  -3.387  0.00  0.00    +0.096 A 
ATOM     16  N   UNL     1      -4.385  -6.529  -3.450  0.00  0.00    -0.268 N 
ATOM     17  C   UNL     1      -3.744  -6.133  -2.329  0.00  0.00    +0.271 A 
ATOM     18  O   UNL     1      -3.942  -6.698  -1.268  0.00  0.00    -0.266 OA
ENDBRANCH   6   8
BRANCH   1  23
ATOM     19  C   UNL     1       0.451   1.360  -0.205  0.00  0.00    +0.044 C 
ATOM     20  C   UNL     1       0.344  -0.142  -0.141  0.00  0.00    -0.048 A 
ATOM     21  C   UNL     1       0.327  -0.884  -1.308  0.00  0.00    +0.004 A 
ATOM     22  C   UNL     1       0.228  -2.261  -1.249  0.00  0.00    +0.006 A 
ATOM     23  C   UNL     1       0.147  -2.897  -0.024  0.00  0.00    -0.027 A 
ATOM     24  C   UNL     1       0.165  -2.155   1.142  0.00  0.00    +0.009 A 
ATOM     25  C   UNL     1       0.268  -0.778   1.083  0.00  0.00    -0.047 A 
ATOM     26  C   UNL     1       0.292   0.031   2.355  0.00  0.00    +0.044 C 
ENDBRANCH   1  23
TORSDOF 2
