REMARK  Name = ZINC20136570
REMARK  6 active torsions:
REMARK  status: ('A' for Active; 'I' for Inactive)
REMARK    1  A    between atoms: C_1  and  C_2
REMARK    2  A    between atoms: C_5  and  C_8
REMARK    3  A    between atoms: C_8  and  N_9
REMARK    4  A    between atoms: C_10  and  C_12
REMARK    5  A    between atoms: C_21  and  S_24
REMARK    6  A    between atoms: S_24  and  N_27
REMARK                            x       y       z     vdW  Elec       q    Type
REMARK                         _______ _______ _______ _____ _____    ______ ____
ROOT
ATOM      1  C   UNL     1      -6.415   2.244   2.530  0.00  0.00    +0.051 A 
ATOM      2  C   UNL     1      -7.559   1.501   2.487  0.00  0.00    +0.083 A 
ATOM      3  C   UNL     1      -8.143   1.154   1.194  0.00  0.00    +0.250 A 
ATOM      4  O   UNL     1      -9.165   0.491   1.154  0.00  0.00    -0.268 OA
ATOM      5  N   UNL     1      -7.570   1.555   0.045  0.00  0.00    -0.322 N 
ATOM      6  H   UNL     1      -8.023   1.284  -0.920  0.00  0.00    +0.169 HD
ATOM      7  C   UNL     1      -6.414   2.306   0.046  0.00  0.00    +0.050 A 
ATOM      8  C   UNL     1      -5.806   2.671   1.261  0.00  0.00    +0.012 A 
ATOM      9  C   UNL     1      -4.634   3.431   1.252  0.00  0.00    +0.039 A 
ATOM     10  C   UNL     1      -4.083   3.817   0.062  0.00  0.00    +0.106 A 
ATOM     11  C   UNL     1      -4.682   3.465  -1.139  0.00  0.00    +0.030 A 
ATOM     12  C   UNL     1      -5.835   2.711  -1.154  0.00  0.00    +0.028 A 
ENDROOT
BRANCH   1  14
ATOM     13  N   UNL     1      -6.431   2.321   4.981  0.00  0.00    -0.307 N 
ATOM     14  C   UNL     1      -5.798   2.612   3.828  0.00  0.00    +0.245 C 
ATOM     15  O   UNL     1      -4.723   3.177   3.851  0.00  0.00    -0.270 OA
ATOM     16  H   UNL     1      -7.363   1.737   4.965  0.00  0.00    +0.149 HD
BRANCH  13  17
ATOM     17  C   UNL     1      -5.878   2.782   6.257  0.00  0.00    +0.139 C 
BRANCH  17  22
ATOM     18  C   UNL     1      -9.291   1.037  10.581  0.00  0.00    +0.044 C 
ATOM     19  C   UNL     1      -8.401   1.492   9.454  0.00  0.00    -0.050 A 
ATOM     20  C   UNL     1      -7.361   0.689   9.027  0.00  0.00    +0.003 A 
ATOM     21  C   UNL     1      -6.544   1.106   7.993  0.00  0.00    +0.005 A 
ATOM     22  C   UNL     1      -6.768   2.327   7.385  0.00  0.00    -0.030 A 
ATOM     23  C   UNL     1      -7.806   3.133   7.814  0.00  0.00    +0.005 A 
ATOM     24  C   UNL     1      -8.625   2.713   8.846  0.00  0.00    +0.003 A 
ENDBRANCH  17  22
ENDBRANCH  13  17
ENDBRANCH   1  14
BRANCH  10  25
ATOM     25  S   UNL     1      -2.605   4.776   0.054  0.00  0.00    +0.061 S 
ATOM     26  O   UNL     1      -2.546   5.442   1.308  0.00  0.00    -0.153 OA
ATOM     27  O   UNL     1      -2.583   5.478  -1.182  0.00  0.00    -0.153 OA
BRANCH  25  28
ATOM     28  N   UNL     1      -1.334   3.716   0.019  0.00  0.00    -0.177 NA
ATOM     29  C   UNL     1      -0.778   3.255  -1.260  0.00  0.00    +0.109 C 
ATOM     30  C   UNL     1      -0.764   1.723  -1.268  0.00  0.00    +0.017 C 
ATOM     31  C   UNL     1      -0.009   1.218  -0.036  0.00  0.00    +0.003 C 
ATOM     32  C   UNL     1      -0.726   1.687   1.231  0.00  0.00    +0.017 C 
ATOM     33  C   UNL     1      -0.740   3.219   1.268  0.00  0.00    +0.109 C 
ENDBRANCH  25  28
ENDBRANCH  10  25
TORSDOF 5
