REMARK  Name = ZINC15783103
REMARK  5 active torsions:
REMARK  status: ('A' for Active; 'I' for Inactive)
REMARK    1  A    between atoms: C_1  and  C_2
REMARK    2  A    between atoms: C_2  and  C_3
REMARK    3  A    between atoms: C_2  and  N_4
REMARK    4  A    between atoms: C_15  and  C_17
REMARK    5  A    between atoms: C_17  and  C_18
REMARK                            x       y       z     vdW  Elec       q    Type
REMARK                         _______ _______ _______ _____ _____    ______ ____
ROOT
ATOM      1  N   UNL     1      -0.998   1.640   3.223  0.00  0.00    -0.297 N 
ATOM      2  C   UNL     1      -1.075   0.312   3.007  0.00  0.00    +0.303 C 
ATOM      3  O   UNL     1      -0.334  -0.445   3.602  0.00  0.00    -0.253 OA
ATOM      4  N   UNL     1      -1.975  -0.176   2.130  0.00  0.00    -0.275 N 
ATOM      5  C   UNL     1      -2.005  -1.608   1.794  0.00  0.00    +0.131 C 
ATOM      6  C   UNL     1      -3.335  -2.209   2.261  0.00  0.00    +0.140 C 
ATOM      7  N   UNL     1      -4.434  -1.326   1.853  0.00  0.00    -0.347 N 
ATOM      8  C   UNL     1      -5.752  -1.651   1.759  0.00  0.00    +0.086 A 
ATOM      9  C   UNL     1      -6.431  -0.554   1.362  0.00  0.00    +0.019 A 
ATOM     10  C   UNL     1      -5.494   0.488   1.201  0.00  0.00    +0.024 A 
ATOM     11  C   UNL     1      -4.286  -0.011   1.503  0.00  0.00    +0.040 A 
ATOM     12  C   UNL     1      -2.958   0.709   1.477  0.00  0.00    +0.129 C 
ATOM     13  H   UNL     1      -1.633   2.239   2.799  0.00  0.00    +0.150 HD
ENDROOT
BRANCH   1  15
ATOM     14  C   UNL     1       1.330   2.385   3.297  0.00  0.00    +0.027 C 
ATOM     15  C   UNL     1       0.044   2.180   4.100  0.00  0.00    +0.068 C 
ATOM     16  C   UNL     1      -0.417   3.521   4.675  0.00  0.00    +0.027 C 
ENDBRANCH   1  15
BRANCH  12  17
ATOM     17  C   UNL     1      -2.538   0.979   0.031  0.00  0.00    +0.064 C 
BRANCH  17  18
ATOM     18  C   UNL     1      -1.244   1.752   0.019  0.00  0.00    -0.045 A 
ATOM     19  C   UNL     1      -0.037   1.078   0.000  0.00  0.00    +0.004 A 
ATOM     20  C   UNL     1       1.150   1.787  -0.017  0.00  0.00    +0.000 A 
ATOM     21  C   UNL     1       1.129   3.169  -0.008  0.00  0.00    +0.000 A 
ATOM     22  C   UNL     1      -0.078   3.842   0.016  0.00  0.00    +0.000 A 
ATOM     23  C   UNL     1      -1.264   3.134   0.032  0.00  0.00    +0.004 A 
ENDBRANCH  17  18
ENDBRANCH  12  17
TORSDOF 3
