REMARK  Name = ZINC31863305
REMARK  4 active torsions:
REMARK  status: ('A' for Active; 'I' for Inactive)
REMARK    1  A    between atoms: C_1  and  C_2
REMARK    2  A    between atoms: C_2  and  N_3
REMARK    3  A    between atoms: C_4  and  C_19
REMARK    4  A    between atoms: C_14  and  C_18
REMARK                            x       y       z     vdW  Elec       q    Type
REMARK                         _______ _______ _______ _____ _____    ______ ____
ROOT
ATOM      1  N   UNL     1      -2.103   1.072   1.277  0.00  0.00    -0.295 N 
ATOM      2  C   UNL     1      -2.367  -0.123   1.865  0.00  0.00    +0.128 A 
ATOM      3  N   UNL     1      -3.579  -0.610   1.895  0.00  0.00    -0.225 NA
ATOM      4  C   UNL     1      -4.595   0.053   1.349  0.00  0.00    +0.116 A 
ATOM      5  C   UNL     1      -4.420   1.295   0.719  0.00  0.00    +0.076 A 
ATOM      6  C   UNL     1      -3.080   1.803   0.708  0.00  0.00    +0.263 A 
ATOM      7  O   UNL     1      -2.828   2.877   0.189  0.00  0.00    -0.267 OA
ATOM      8  C   UNL     1      -5.627   1.906   0.163  0.00  0.00    -0.023 A 
ATOM      9  C   UNL     1      -6.782   1.222   0.308  0.00  0.00    -0.004 A 
ATOM     10  S   UNL     1      -6.335  -0.254   1.181  0.00  0.00    -0.073 S 
ATOM     11  C   UNL     1      -8.143   1.629  -0.168  0.00  0.00    +0.046 C 
ATOM     12  C   UNL     1      -8.105   3.121  -0.527  0.00  0.00    -0.009 C 
ATOM     13  C   UNL     1      -6.872   3.386  -1.396  0.00  0.00    +0.008 C 
ATOM     14  C   UNL     1      -5.604   3.254  -0.552  0.00  0.00    +0.037 C 
ATOM     15  C   UNL     1      -9.372   3.495  -1.300  0.00  0.00    +0.008 C 
ENDROOT
BRANCH   1  17
ATOM     16  C   UNL     1      -0.013   1.086   0.008  0.00  0.00    +0.027 C 
ATOM     17  C   UNL     1      -0.729   1.579   1.267  0.00  0.00    +0.123 C 
ENDBRANCH   1  17
BRANCH   2  18
ATOM     18  C   UNL     1      -1.241  -0.902   2.494  0.00  0.00    +0.183 C 
ATOM     19 CL   UNL     1      -1.886  -2.435   3.190  0.00  0.00    -0.117 Cl
ENDBRANCH   2  18
TORSDOF 2
