REMARK  Name = ZINC05191727
REMARK  5 active torsions:
REMARK  status: ('A' for Active; 'I' for Inactive)
REMARK    1  A    between atoms: C_6  and  S_7
REMARK    2  A    between atoms: S_7  and  C_8
REMARK    3  A    between atoms: C_8  and  C_9
REMARK    4  A    between atoms: C_9  and  C_10
REMARK    5  A    between atoms: C_18  and  N_22
REMARK                            x       y       z     vdW  Elec       q    Type
REMARK                         _______ _______ _______ _____ _____    ______ ____
ROOT
ATOM      1  C   UNL     1       1.147   1.655   0.000  0.00  0.00    +0.219 C 
ATOM      2  O   UNL     1       1.130   2.868   0.007  0.00  0.00    -0.275 OA
ATOM      3  N   UNL     1      -0.011   0.966   0.007  0.00  0.00    -0.265 N 
ATOM      4  C   UNL     1      -1.220   1.642   0.017  0.00  0.00    +0.165 A 
ATOM      5  N   UNL     1      -1.440   2.936   0.024  0.00  0.00    -0.225 NA
ATOM      6  C   UNL     1      -2.684   3.462   0.033  0.00  0.00    +0.080 A 
ATOM      7  C   UNL     1      -3.055   4.826   0.041  0.00  0.00    +0.031 A 
ATOM      8  C   UNL     1      -4.376   5.192   0.048  0.00  0.00    +0.035 A 
ATOM      9  C   UNL     1      -5.391   4.246   0.048  0.00  0.00    +0.127 A 
ATOM     10  C   UNL     1      -5.064   2.902   0.040  0.00  0.00    +0.050 A 
ATOM     11  C   UNL     1      -3.743   2.526   0.032  0.00  0.00    +0.043 A 
ATOM     12  S   UNL     1      -2.878   0.975   0.014  0.00  0.00    -0.052 S 
ATOM     13  H   UNL     1       0.002  -0.004   0.002  0.00  0.00    +0.157 HD
ENDROOT
BRANCH   9  14
ATOM     14  N   UNL     1      -6.809   4.670   0.055  0.00  0.00    +0.056 N 
ATOM     15  O   UNL     1      -7.694   3.834   0.054  0.00  0.00    -0.126 OA
ATOM     16  O   UNL     1      -7.090   5.855   0.062  0.00  0.00    -0.126 OA
ENDBRANCH   9  14
BRANCH   1  17
ATOM     17  C   UNL     1       2.462   0.920  -0.017  0.00  0.00    +0.107 C 
BRANCH  17  18
ATOM     18  C   UNL     1       3.611   1.930  -0.022  0.00  0.00    +0.083 C 
BRANCH  18  19
ATOM     19  S   UNL     1       5.194   1.044  -0.042  0.00  0.00    -0.125 S 
BRANCH  19  25
ATOM     20  C   UNL     1       6.001   3.659  -0.041  0.00  0.00    +0.016 A 
ATOM     21  C   UNL     1       6.949   4.663  -0.040  0.00  0.00    +0.021 A 
ATOM     22  C   UNL     1       8.296   4.345  -0.055  0.00  0.00    +0.041 A 
ATOM     23  C   UNL     1       8.697   3.021  -0.065  0.00  0.00    +0.021 A 
ATOM     24  C   UNL     1       7.754   2.012  -0.061  0.00  0.00    +0.016 A 
ATOM     25  C   UNL     1       6.401   2.328  -0.047  0.00  0.00    +0.008 A 
ATOM     26 CL   UNL     1       9.485   5.610  -0.060  0.00  0.00    -0.084 Cl
ENDBRANCH  19  25
ENDBRANCH  18  19
ENDBRANCH  17  18
ENDBRANCH   1  17
TORSDOF 5
