REMARK  Name = ZINC00305164
REMARK  5 active torsions:
REMARK  status: ('A' for Active; 'I' for Inactive)
REMARK    1  A    between atoms: C_1  and  C_2
REMARK    2  A    between atoms: C_2  and  C_4
REMARK    3  A    between atoms: C_2  and  N_8
REMARK    4  A    between atoms: C_4  and  O_6
REMARK    5  A    between atoms: O_6  and  C_7
REMARK                            x       y       z     vdW  Elec       q    Type
REMARK                         _______ _______ _______ _____ _____    ______ ____
ROOT
ATOM      1  N   UNL     1      -1.649   4.504  -4.525  0.00  0.00    -0.285 N 
ATOM      2  C   UNL     1      -1.755   5.809  -4.179  0.00  0.00    +0.204 A 
ATOM      3  N   UNL     1      -1.608   6.237  -2.944  0.00  0.00    -0.230 NA
ATOM      4  C   UNL     1      -1.342   5.329  -2.010  0.00  0.00    +0.116 A 
ATOM      5  C   UNL     1      -1.212   3.947  -2.271  0.00  0.00    +0.076 A 
ATOM      6  C   UNL     1      -1.381   3.522  -3.632  0.00  0.00    +0.263 A 
ATOM      7  O   UNL     1      -1.290   2.352  -3.962  0.00  0.00    -0.267 OA
ATOM      8  C   UNL     1      -0.920   3.104  -1.126  0.00  0.00    -0.023 A 
ATOM      9  C   UNL     1      -0.803   3.725   0.071  0.00  0.00    -0.004 A 
ATOM     10  S   UNL     1      -1.073   5.446  -0.270  0.00  0.00    -0.073 S 
ATOM     11  C   UNL     1      -0.510   3.093   1.397  0.00  0.00    +0.043 C 
ATOM     12  C   UNL     1      -0.726   1.578   1.270  0.00  0.00    +0.005 C 
ATOM     13  C   UNL     1      -0.013   1.086   0.008  0.00  0.00    +0.005 C 
ATOM     14  C   UNL     1      -0.749   1.591  -1.233  0.00  0.00    +0.037 C 
ENDROOT
BRANCH   1  16
ATOM     15  C   UNL     1      -3.234   4.550  -6.387  0.00  0.00    +0.043 C 
ATOM     16  C   UNL     1      -1.833   4.137  -5.931  0.00  0.00    +0.197 C 
BRANCH  16  17
ATOM     17  C   UNL     1      -0.802   4.843  -6.774  0.00  0.00    +0.330 C 
ATOM     18  O   UNL     1       0.004   5.578  -6.253  0.00  0.00    -0.249 OA
BRANCH  17  19
ATOM     19  O   UNL     1      -0.779   4.657  -8.103  0.00  0.00    -0.466 OA
ATOM     20  C   UNL     1       0.242   5.369  -8.851  0.00  0.00    +0.280 C 
ENDBRANCH  17  19
ENDBRANCH  16  17
ENDBRANCH   1  16
TORSDOF 3
