REMARK  Name = ZINC43367969
REMARK  3 active torsions:
REMARK  status: ('A' for Active; 'I' for Inactive)
REMARK    1  A    between atoms: C_2  and  C_11
REMARK    2  A    between atoms: C_11  and  C_13
REMARK    3  A    between atoms: C_11  and  O_17
REMARK                            x       y       z     vdW  Elec       q    Type
REMARK                         _______ _______ _______ _____ _____    ______ ____
ROOT
ATOM      1  C   UNL     1      -0.017   1.381   0.010  0.00  0.00    +0.056 A 
ATOM      2  C   UNL     1       1.171   2.090   0.002  0.00  0.00    -0.005 A 
ATOM      3  C   UNL     1       2.379   1.419  -0.013  0.00  0.00    +0.030 A 
ATOM      4  C   UNL     1       2.406   0.036  -0.021  0.00  0.00    +0.087 A 
ATOM      5  C   UNL     1       1.219  -0.680  -0.014  0.00  0.00    +0.184 A 
ATOM      6  C   UNL     1       0.002  -0.004   0.002  0.00  0.00    +0.168 A 
ATOM      7  O   UNL     1      -1.007  -0.923   0.006  0.00  0.00    -0.453 OA
ATOM      8  C   UNL     1      -0.404  -2.159  -0.419  0.00  0.00    +0.466 C 
ATOM      9  O   UNL     1       0.973  -2.023  -0.020  0.00  0.00    -0.451 OA
ATOM     10 CL   UNL     1       3.926  -0.802  -0.041  0.00  0.00    -0.080 Cl
ENDROOT
BRANCH   2  11
ATOM     11  C   UNL     1       1.147   3.597   0.010  0.00  0.00    +0.249 C 
BRANCH  11  12
ATOM     12  C   UNL     1       1.403   4.103   1.431  0.00  0.00    +0.420 C 
ATOM     13  F   UNL     1       2.654   3.654   1.868  0.00  0.00    -0.168 F 
ATOM     14  F   UNL     1       1.381   5.502   1.439  0.00  0.00    -0.168 F 
ATOM     15  F   UNL     1       0.408   3.616   2.286  0.00  0.00    -0.168 F 
ENDBRANCH  11  12
BRANCH  11  16
ATOM     16  O   UNL     1       2.163   4.094  -0.863  0.00  0.00    -0.379 OA
ATOM     17  H   UNL     1       3.058   3.821  -0.620  0.00  0.00    +0.211 HD
ENDBRANCH  11  16
ENDBRANCH   2  11
TORSDOF 3
