REMARK  Name = ZINC64427070
REMARK  13 active torsions:
REMARK  status: ('A' for Active; 'I' for Inactive)
REMARK    1  A    between atoms: C_1  and  O_2
REMARK    2  A    between atoms: O_2  and  C_3
REMARK    3  A    between atoms: C_5  and  C_10
REMARK    4  A    between atoms: C_8  and  O_9
REMARK    5  A    between atoms: C_18  and  O_42
REMARK    6  A    between atoms: N_21  and  C_22
REMARK    7  A    between atoms: C_22  and  C_23
REMARK    8  A    between atoms: N_25  and  C_26
REMARK    9  A    between atoms: C_26  and  C_28
REMARK   10  A    between atoms: C_26  and  C_38
REMARK   11  A    between atoms: C_28  and  C_29
REMARK   12  A    between atoms: C_38  and  O_40
REMARK   13  A    between atoms: O_40  and  C_41
REMARK                            x       y       z     vdW  Elec       q    Type
REMARK                         _______ _______ _______ _____ _____    ______ ____
ROOT
ATOM      1  C   UNL     1       2.403   0.379  -4.230  0.00  0.00    -0.031 C 
ATOM      2  C   UNL     1       3.915   0.461  -4.018  0.00  0.00    +0.011 C 
ATOM      3  C   UNL     1       4.215   1.090  -2.659  0.00  0.00    +0.005 C 
ATOM      4  C   UNL     1       3.640   2.507  -2.609  0.00  0.00    +0.000 C 
ATOM      5  C   UNL     1       4.277   3.351  -3.715  0.00  0.00    +0.003 C 
ATOM      6  C   UNL     1       3.965   2.726  -5.075  0.00  0.00    +0.035 C 
ATOM      7  C   UNL     1       4.536   1.315  -5.127  0.00  0.00    +0.066 C 
ATOM      8  C   UNL     1       4.181   0.695  -6.483  0.00  0.00    +0.016 C 
ATOM      9  C   UNL     1       2.659   0.604  -6.609  0.00  0.00    -0.075 C 
ATOM     10  N   UNL     1       2.123  -0.237  -5.533  0.00  0.00    +0.390 N 
ATOM     11  H   UNL     1       2.554  -1.148  -5.573  0.00  0.00    -0.080 HD
ENDROOT
BRANCH   1  14
ATOM     12  C   UNL     1       0.606  -0.608  -1.056  0.00  0.00    +0.161 A 
ATOM     13  C   UNL     1       1.173   0.159  -2.062  0.00  0.00    +0.051 A 
ATOM     14  C   UNL     1       1.787  -0.456  -3.137  0.00  0.00    -0.057 A 
ATOM     15  C   UNL     1       1.837  -1.836  -3.212  0.00  0.00    +0.006 A 
ATOM     16  C   UNL     1       1.273  -2.606  -2.212  0.00  0.00    +0.049 A 
ATOM     17  C   UNL     1       0.662  -1.996  -1.129  0.00  0.00    +0.158 A 
BRANCH  12  19
ATOM     18  C   UNL     1      -0.017   1.425   0.010  0.00  0.00    +0.277 C 
ATOM     19  O   UNL     1       0.002  -0.004   0.002  0.00  0.00    -0.491 OA
ENDBRANCH  12  19
BRANCH  17  20
ATOM     20  O   UNL     1       0.112  -2.753  -0.142  0.00  0.00    -0.503 OA
ATOM     21  H   UNL     1      -0.816  -2.979  -0.291  0.00  0.00    +0.292 HD
ENDBRANCH  17  20
ENDBRANCH   1  14
BRANCH   7  22
ATOM     22  O   UNL     1       5.954   1.361  -4.960  0.00  0.00    -0.388 OA
ATOM     23  H   UNL     1       6.412   1.887  -5.630  0.00  0.00    +0.210 HD
ENDBRANCH   7  22
BRANCH  10  24
ATOM     24  C   UNL     1       0.670  -0.379  -5.703  0.00  0.00    +0.019 C 
BRANCH  24  25
ATOM     25  C   UNL     1       0.385  -1.121  -6.983  0.00  0.00    +0.197 C 
ATOM     26  O   UNL     1       1.301  -1.494  -7.685  0.00  0.00    -0.278 OA
ATOM     27  N   UNL     1      -0.888  -1.369  -7.349  0.00  0.00    -0.304 N 
ATOM     28  H   UNL     1      -1.621  -1.070  -6.788  0.00  0.00    +0.149 HD
BRANCH  27  29
ATOM     29  C   UNL     1      -1.166  -2.091  -8.593  0.00  0.00    +0.186 C 
BRANCH  29  30
ATOM     30  C   UNL     1      -1.177  -1.119  -9.745  0.00  0.00    +0.328 C 
ATOM     31  O   UNL     1      -0.975   0.056  -9.547  0.00  0.00    -0.249 OA
BRANCH  30  32
ATOM     32  O   UNL     1      -1.413  -1.558 -10.991  0.00  0.00    -0.467 OA
ATOM     33  C   UNL     1      -1.409  -0.582 -12.035  0.00  0.00    +0.280 C 
ENDBRANCH  30  32
ENDBRANCH  29  30
BRANCH  29  34
ATOM     34  C   UNL     1      -2.530  -2.777  -8.492  0.00  0.00    +0.067 C 
BRANCH  34  35
ATOM     35  C   UNL     1      -2.481  -3.835  -7.420  0.00  0.00    -0.039 C 
ATOM     36  C   UNL     1      -2.860  -3.703  -6.128  0.00  0.00    -0.001 A 
ATOM     37  C   UNL     1      -3.411  -2.577  -5.364  0.00  0.00    +0.010 A 
ATOM     38  C   UNL     1      -3.699  -2.752  -4.054  0.00  0.00    +0.001 A 
ATOM     39  C   UNL     1      -3.486  -3.978  -3.410  0.00  0.00    +0.002 A 
ATOM     40  C   UNL     1      -2.983  -5.058  -4.045  0.00  0.00    +0.026 A 
ATOM     41  C   UNL     1      -2.645  -4.988  -5.425  0.00  0.00    +0.043 A 
ATOM     42  N   UNL     1      -2.151  -5.879  -6.249  0.00  0.00    -0.380 N 
ATOM     43  C   UNL     1      -2.003  -5.262  -7.572  0.00  0.00    +0.144 C 
ATOM     44  H   UNL     1      -1.925  -6.795  -6.023  0.00  0.00    +0.160 HD
ENDBRANCH  34  35
ENDBRANCH  29  34
ENDBRANCH  27  29
ENDBRANCH  24  25
ENDBRANCH  10  24
TORSDOF 11
