REMARK  Name = ZINC09821563
REMARK  6 active torsions:
REMARK  status: ('A' for Active; 'I' for Inactive)
REMARK    1  A    between atoms: C_1  and  C_2
REMARK    2  A    between atoms: C_7  and  C_10
REMARK    3  A    between atoms: C_11  and  C_13
REMARK    4  A    between atoms: N_15  and  C_32
REMARK    5  A    between atoms: N_22  and  C_25
REMARK    6  A    between atoms: C_25  and  C_26
REMARK                            x       y       z     vdW  Elec       q    Type
REMARK                         _______ _______ _______ _____ _____    ______ ____
ROOT
ATOM      1  C   UNL     1      -3.952  -0.205   5.299  0.00  0.00    +0.079 A 
ATOM      2  C   UNL     1      -2.719  -0.801   5.484  0.00  0.00    +0.101 A 
ATOM      3  N   UNL     1      -2.281  -1.274   4.305  0.00  0.00    -0.344 N 
ATOM      4  C   UNL     1      -3.215  -0.998   3.327  0.00  0.00    +0.132 A 
ATOM      5  C   UNL     1      -4.272  -0.329   3.925  0.00  0.00    +0.086 A 
ATOM      6  N   UNL     1      -5.350   0.064   3.152  0.00  0.00    -0.305 N 
ATOM      7  H   UNL     1      -6.094   0.533   3.562  0.00  0.00    +0.170 HD
ATOM      8  C   UNL     1      -5.367  -0.204   1.833  0.00  0.00    +0.330 A 
ATOM      9  O   UNL     1      -6.322   0.148   1.167  0.00  0.00    -0.246 OA
ATOM     10  N   UNL     1      -4.352  -0.852   1.235  0.00  0.00    -0.255 N 
ATOM     11  C   UNL     1      -3.278  -1.263   1.938  0.00  0.00    +0.281 A 
ATOM     12  O   UNL     1      -2.369  -1.854   1.383  0.00  0.00    -0.265 OA
ATOM     13  C   UNL     1      -1.011  -1.972   4.091  0.00  0.00    +0.149 C 
ENDROOT
BRANCH   1  22
ATOM     14  C   UNL     1      -4.794  -3.758   8.761  0.00  0.00    +0.039 C 
ATOM     15  C   UNL     1      -5.450  -2.470   8.260  0.00  0.00    +0.133 C 
ATOM     16  C   UNL     1      -4.366  -1.487   7.802  0.00  0.00    +0.139 C 
ATOM     17  N   UNL     1      -5.006  -0.197   7.502  0.00  0.00    -0.293 N 
ATOM     18  C   UNL     1      -5.897   0.386   8.518  0.00  0.00    +0.139 C 
ATOM     19  C   UNL     1      -6.911  -0.690   8.939  0.00  0.00    +0.133 C 
ATOM     20  O   UNL     1      -6.207  -1.875   9.318  0.00  0.00    -0.371 OA
ATOM     21  C   UNL     1      -7.847  -1.003   7.770  0.00  0.00    +0.039 C 
ATOM     22  C   UNL     1      -4.778   0.436   6.335  0.00  0.00    +0.250 C 
ATOM     23  O   UNL     1      -5.254   1.538   6.137  0.00  0.00    -0.270 OA
ENDBRANCH   1  22
BRANCH  10  24
ATOM     24  C   UNL     1      -4.417  -1.120  -0.204  0.00  0.00    +0.165 C 
BRANCH  24  25
ATOM     25  C   UNL     1      -3.801   0.030  -0.958  0.00  0.00    -0.028 A 
ATOM     26  C   UNL     1      -2.450   0.018  -1.251  0.00  0.00    +0.005 A 
ATOM     27  C   UNL     1      -1.885   1.070  -1.948  0.00  0.00    +0.000 A 
ATOM     28  C   UNL     1      -2.670   2.136  -2.346  0.00  0.00    +0.000 A 
ATOM     29  C   UNL     1      -4.020   2.150  -2.048  0.00  0.00    +0.000 A 
ATOM     30  C   UNL     1      -4.585   1.098  -1.351  0.00  0.00    +0.005 A 
ENDBRANCH  24  25
ENDBRANCH  10  24
TORSDOF 3
