REMARK  Name = ZINC63140277
REMARK  8 active torsions:
REMARK  status: ('A' for Active; 'I' for Inactive)
REMARK    1  A    between atoms: C_1  and  C_2
REMARK    2  A    between atoms: C_2  and  O_3
REMARK    3  A    between atoms: O_3  and  C_4
REMARK    4  A    between atoms: C_4  and  C_5
REMARK    5  A    between atoms: C_5  and  C_6
REMARK    6  A    between atoms: C_6  and  N_7
REMARK    7  A    between atoms: C_27  and  C_29
REMARK    8  A    between atoms: C_34  and  C_35
REMARK                            x       y       z     vdW  Elec       q    Type
REMARK                         _______ _______ _______ _____ _____    ______ ____
ROOT
ATOM      1  N   UNL     1       2.253  -3.184   4.915  0.00  0.00    -0.291 N 
ATOM      2  C   UNL     1       3.653  -3.432   4.616  0.00  0.00    +0.203 C 
ATOM      3  C   UNL     1       4.345  -4.162   5.719  0.00  0.00    +0.234 C 
ATOM      4  O   UNL     1       5.520  -4.422   5.572  0.00  0.00    -0.274 OA
ATOM      5  N   UNL     1       3.760  -4.550   6.859  0.00  0.00    -0.279 N 
ATOM      6  C   UNL     1       2.358  -4.278   7.157  0.00  0.00    +0.167 C 
ATOM      7  C   UNL     1       1.665  -3.554   6.051  0.00  0.00    +0.237 C 
ATOM      8  O   UNL     1       0.490  -3.288   6.195  0.00  0.00    -0.274 OA
ATOM      9  C   UNL     1       2.247  -3.459   8.457  0.00  0.00    +0.065 C 
ATOM     10  C   UNL     1       3.161  -4.119   9.460  0.00  0.00    -0.034 C 
ATOM     11  C   UNL     1       2.951  -4.530  10.704  0.00  0.00    -0.001 A 
ATOM     12  C   UNL     1       1.790  -4.396  11.598  0.00  0.00    +0.010 A 
ATOM     13  C   UNL     1       1.910  -4.968  12.826  0.00  0.00    +0.001 A 
ATOM     14  C   UNL     1       3.054  -5.651  13.248  0.00  0.00    +0.002 A 
ATOM     15  C   UNL     1       4.171  -5.814  12.496  0.00  0.00    +0.026 A 
ATOM     16  C   UNL     1       4.169  -5.250  11.187  0.00  0.00    +0.043 A 
ATOM     17  N   UNL     1       5.097  -5.235  10.276  0.00  0.00    -0.375 N 
ATOM     18  C   UNL     1       4.610  -4.459   9.134  0.00  0.00    +0.131 C 
ATOM     19  C   UNL     1       4.586  -5.284   7.844  0.00  0.00    +0.134 C 
ATOM     20  H   UNL     1       5.964  -5.665  10.341  0.00  0.00    +0.160 HD
ENDROOT
BRANCH  19  21
ATOM     21  C   UNL     1       3.979  -6.636   8.114  0.00  0.00    -0.022 A 
ATOM     22  C   UNL     1       2.683  -6.731   8.585  0.00  0.00    +0.006 A 
ATOM     23  C   UNL     1       2.126  -7.972   8.832  0.00  0.00    +0.000 A 
ATOM     24  C   UNL     1       2.866  -9.118   8.607  0.00  0.00    +0.000 A 
ATOM     25  C   UNL     1       4.161  -9.024   8.135  0.00  0.00    +0.004 A 
ATOM     26  C   UNL     1       4.716  -7.783   7.884  0.00  0.00    -0.045 A 
ATOM     27  C   UNL     1       6.127  -7.680   7.363  0.00  0.00    +0.044 C 
ENDBRANCH  19  21
BRANCH   1  28
ATOM     28  C   UNL     1       1.444  -2.485   3.912  0.00  0.00    +0.110 C 
BRANCH  28  29
ATOM     29  C   UNL     1       1.519  -0.977   4.159  0.00  0.00    +0.047 C 
BRANCH  29  30
ATOM     30  C   UNL     1       0.675  -0.247   3.112  0.00  0.00    +0.161 C 
BRANCH  30  31
ATOM     31  O   UNL     1       0.746   1.162   3.342  0.00  0.00    -0.380 OA
BRANCH  31  33
ATOM     32  C   UNL     1       0.135   3.425   2.754  0.00  0.00    +0.034 C 
ATOM     33  C   UNL     1      -0.012   1.941   2.414  0.00  0.00    +0.156 C 
ENDBRANCH  31  33
ENDBRANCH  30  31
ENDBRANCH  29  30
ENDBRANCH  28  29
ENDBRANCH   1  28
TORSDOF 6
