REMARK  Name = ZINC47962879
REMARK  4 active torsions:
REMARK  status: ('A' for Active; 'I' for Inactive)
REMARK    1  A    between atoms: C_6  and  S_7
REMARK    2  A    between atoms: S_7  and  N_10
REMARK    3  A    between atoms: C_14  and  C_16
REMARK    4  A    between atoms: N_18  and  C_19
REMARK                            x       y       z     vdW  Elec       q    Type
REMARK                         _______ _______ _______ _____ _____    ______ ____
ROOT
ATOM      1  C   UNL     1      -0.017   1.378   0.010  0.00  0.00    +0.030 A 
ATOM      2  C   UNL     1       1.165   2.089   0.002  0.00  0.00    +0.026 A 
ATOM      3  C   UNL     1       2.390   1.418  -0.013  0.00  0.00    +0.040 A 
ATOM      4  C   UNL     1       2.397   0.031  -0.021  0.00  0.00    -0.023 A 
ATOM      5  C   UNL     1       1.211  -0.676  -0.013  0.00  0.00    +0.034 A 
ATOM      6  C   UNL     1       0.002  -0.004   0.002  0.00  0.00    +0.105 A 
ATOM      7  C   UNL     1       3.834  -0.441  -0.037  0.00  0.00    +0.056 C 
ATOM      8  C   UNL     1       4.666   0.852  -0.038  0.00  0.00    +0.119 C 
ATOM      9  N   UNL     1       3.685   1.940  -0.023  0.00  0.00    -0.263 N 
ATOM     10  C   UNL     1       3.988   3.253  -0.019  0.00  0.00    +0.306 C 
ATOM     11  O   UNL     1       3.100   4.081  -0.007  0.00  0.00    -0.265 OA
ENDROOT
BRANCH  10  12
ATOM     12  C   UNL     1       5.416   3.689  -0.030  0.00  0.00    +0.300 C 
ATOM     13  O   UNL     1       6.304   2.862  -0.043  0.00  0.00    -0.265 OA
ATOM     14  N   UNL     1       5.720   5.003  -0.027  0.00  0.00    -0.305 N 
ATOM     15  H   UNL     1       5.010   5.664  -0.017  0.00  0.00    +0.149 HD
BRANCH  14  16
ATOM     16  C   UNL     1       7.121   5.431  -0.038  0.00  0.00    +0.073 C 
ATOM     17  C   UNL     1       7.659   5.453   1.394  0.00  0.00    +0.022 C 
ATOM     18  C   UNL     1       9.187   5.506   1.364  0.00  0.00    +0.002 C 
ATOM     19  C   UNL     1       9.712   4.519   0.320  0.00  0.00    +0.000 C 
ATOM     20  C   UNL     1      10.363   5.291  -0.830  0.00  0.00    +0.000 C 
ATOM     21  C   UNL     1       9.274   5.899  -1.716  0.00  0.00    +0.000 C 
ATOM     22  C   UNL     1       8.675   7.122  -1.021  0.00  0.00    +0.002 C 
ATOM     23  C   UNL     1       7.221   6.833  -0.642  0.00  0.00    +0.022 C 
ENDBRANCH  14  16
ENDBRANCH  10  12
BRANCH   6  24
ATOM     24  S   UNL     1      -1.510  -0.908   0.012  0.00  0.00    +0.056 S 
ATOM     25  O   UNL     1      -1.215  -2.188   0.553  0.00  0.00    -0.153 OA
ATOM     26  O   UNL     1      -2.492  -0.050   0.577  0.00  0.00    -0.153 OA
BRANCH  24  27
ATOM     27  N   UNL     1      -1.946  -1.151  -1.567  0.00  0.00    -0.204 NA
ATOM     28  H   UNL     1      -1.388  -0.809  -2.282  0.00  0.00    +0.144 HD
ATOM     29  H   UNL     1      -2.760  -1.635  -1.776  0.00  0.00    +0.144 HD
ENDBRANCH  24  27
ENDBRANCH   6  24
TORSDOF 4
