REMARK  Name = ZINC40155598
REMARK  9 active torsions:
REMARK  status: ('A' for Active; 'I' for Inactive)
REMARK    1  A    between atoms: C_1  and  O_2
REMARK    2  A    between atoms: O_2  and  C_3
REMARK    3  A    between atoms: C_8  and  O_9
REMARK    4  A    between atoms: O_9  and  C_10
REMARK    5  A    between atoms: N_12  and  C_15
REMARK    6  A    between atoms: C_15  and  C_16
REMARK    7  A    between atoms: C_16  and  N_17
REMARK    8  A    between atoms: N_17  and  C_18
REMARK    9  A    between atoms: C_21  and  N_25
REMARK                            x       y       z     vdW  Elec       q    Type
REMARK                         _______ _______ _______ _____ _____    ______ ____
ROOT
ATOM      1  C   UNL     1       0.606  -0.608  -1.056  0.00  0.00    +0.162 A 
ATOM      2  C   UNL     1       1.173   0.156  -2.062  0.00  0.00    +0.053 A 
ATOM      3  C   UNL     1       1.790  -0.455  -3.142  0.00  0.00    -0.044 A 
ATOM      4  C   UNL     1       1.845  -1.831  -3.218  0.00  0.00    -0.057 A 
ATOM      5  C   UNL     1       1.276  -2.601  -2.214  0.00  0.00    +0.051 A 
ATOM      6  C   UNL     1       0.663  -1.996  -1.131  0.00  0.00    +0.162 A 
ATOM      7  C   UNL     1       2.514  -2.535  -4.370  0.00  0.00    -0.043 C 
ATOM      8  N   UNL     1       2.659  -1.630  -5.513  0.00  0.00    +0.384 N 
ATOM      9  C   UNL     1       3.353  -0.409  -5.073  0.00  0.00    -0.074 C 
ATOM     10  C   UNL     1       2.391   0.415  -4.216  0.00  0.00    +0.017 C 
ATOM     11  H   UNL     1       1.747  -1.389  -5.871  0.00  0.00    -0.081 HD
ENDROOT
BRANCH   1  13
ATOM     12  C   UNL     1      -0.017   1.425   0.010  0.00  0.00    +0.277 C 
ATOM     13  O   UNL     1       0.002  -0.004   0.002  0.00  0.00    -0.491 OA
ENDBRANCH   1  13
BRANCH   6  14
ATOM     14  O   UNL     1       0.113  -2.755  -0.146  0.00  0.00    -0.491 OA
ATOM     15  C   UNL     1       0.209  -4.174  -0.290  0.00  0.00    +0.277 C 
ENDBRANCH   6  14
BRANCH   8  16
ATOM     16  C   UNL     1       3.445  -2.289  -6.565  0.00  0.00    -0.059 C 
BRANCH  16  17
ATOM     17  C   UNL     1       2.670  -3.495  -7.100  0.00  0.00    +0.083 C 
BRANCH  17  18
ATOM     18  N   UNL     1       3.453  -4.152  -8.149  0.00  0.00    -0.344 N 
ATOM     19  H   UNL     1       4.322  -3.801  -8.398  0.00  0.00    +0.146 HD
BRANCH  18  20
ATOM     20  C   UNL     1       2.947  -5.286  -8.792  0.00  0.00    +0.046 A 
ATOM     21  C   UNL     1       1.700  -5.787  -8.442  0.00  0.00    +0.026 A 
ATOM     22  C   UNL     1       1.203  -6.906  -9.079  0.00  0.00    +0.034 A 
ATOM     23  C   UNL     1       1.946  -7.530 -10.065  0.00  0.00    +0.128 A 
ATOM     24  C   UNL     1       3.188  -7.034 -10.417  0.00  0.00    +0.054 A 
ATOM     25  C   UNL     1       3.689  -5.911  -9.788  0.00  0.00    +0.064 A 
ATOM     26 CL   UNL     1       5.245  -5.285 -10.235  0.00  0.00    -0.082 Cl
BRANCH  23  27
ATOM     27  N   UNL     1       1.410  -8.730 -10.745  0.00  0.00    +0.056 N 
ATOM     28  O   UNL     1       0.324  -9.165 -10.438  0.00  0.00    -0.126 OA
ATOM     29  O   UNL     1       2.058  -9.276 -11.608  0.00  0.00    -0.126 OA
ENDBRANCH  23  27
ENDBRANCH  18  20
ENDBRANCH  17  18
ENDBRANCH  16  17
ENDBRANCH   8  16
TORSDOF 7
