REMARK  Name = ZINC15424724
REMARK  1 active torsions:
REMARK  status: ('A' for Active; 'I' for Inactive)
REMARK    1  A    between atoms: N_9  and  C_14
REMARK                            x       y       z     vdW  Elec       q    Type
REMARK                         _______ _______ _______ _____ _____    ______ ____
ROOT
ATOM      1  C   UNL     1      -0.017   1.375   0.010  0.00  0.00    +0.001 A 
ATOM      2  C   UNL     1       1.169   2.093   0.002  0.00  0.00    +0.002 A 
ATOM      3  C   UNL     1       2.386   1.442  -0.013  0.00  0.00    +0.026 A 
ATOM      4  C   UNL     1       2.425   0.056  -0.021  0.00  0.00    +0.056 A 
ATOM      5  C   UNL     1       1.223  -0.673  -0.013  0.00  0.00    +0.063 A 
ATOM      6  C   UNL     1       0.002  -0.004   0.002  0.00  0.00    +0.015 A 
ATOM      7  C   UNL     1       1.301  -2.145  -0.021  0.00  0.00    +0.265 A 
ATOM      8  O   UNL     1       0.291  -2.823  -0.016  0.00  0.00    -0.267 OA
ATOM      9  N   UNL     1       2.522  -2.722  -0.036  0.00  0.00    -0.257 N 
ATOM     10  C   UNL     1       3.642  -1.982  -0.043  0.00  0.00    +0.330 A 
ATOM     11  O   UNL     1       4.716  -2.551  -0.056  0.00  0.00    -0.246 OA
ATOM     12  N   UNL     1       3.627  -0.638  -0.036  0.00  0.00    -0.307 N 
ATOM     13  H   UNL     1       4.464  -0.148  -0.041  0.00  0.00    +0.170 HD
ENDROOT
BRANCH   9  14
ATOM     14  C   UNL     1       2.627  -4.183  -0.044  0.00  0.00    +0.095 C 
ATOM     15  C   UNL     1       3.338  -4.640   1.246  0.00  0.00    +0.025 C 
ATOM     16  C   UNL     1       3.002  -6.086   1.491  0.00  0.00    +0.002 C 
ATOM     17  C   UNL     1       4.059  -7.044   0.910  0.00  0.00    +0.000 C 
ATOM     18  C   UNL     1       4.553  -6.613  -0.485  0.00  0.00    +0.000 C 
ATOM     19  C   UNL     1       3.434  -6.133  -1.369  0.00  0.00    +0.002 C 
ATOM     20  C   UNL     1       3.336  -4.598  -1.245  0.00  0.00    +0.025 C 
ENDBRANCH   9  14
TORSDOF 1
