REMARK  Name = ZINC54546404
REMARK  2 active torsions:
REMARK  status: ('A' for Active; 'I' for Inactive)
REMARK    1  A    between atoms: N_8  and  C_11
REMARK    2  A    between atoms: C_11  and  N_12
REMARK                            x       y       z     vdW  Elec       q    Type
REMARK                         _______ _______ _______ _____ _____    ______ ____
ROOT
ATOM      1  N   UNL     1       3.662  -3.907  -1.391  0.00  0.00    -0.310 N 
ATOM      2  C   UNL     1       2.593  -4.852  -1.740  0.00  0.00    +0.107 C 
ATOM      3  C   UNL     1       3.233  -6.030  -2.486  0.00  0.00    +0.024 C 
ATOM      4  C   UNL     1       3.847  -5.515  -3.787  0.00  0.00    +0.038 C 
ATOM      5  C   UNL     1       4.744  -4.335  -3.517  0.00  0.00    -0.023 A 
ATOM      6  C   UNL     1       4.621  -3.582  -2.359  0.00  0.00    +0.037 A 
ATOM      7  C   UNL     1       5.457  -2.492  -2.143  0.00  0.00    +0.064 A 
ATOM      8  C   UNL     1       6.412  -2.155  -3.083  0.00  0.00    +0.160 A 
ATOM      9  C   UNL     1       6.534  -2.906  -4.243  0.00  0.00    +0.159 A 
ATOM     10  C   UNL     1       5.706  -3.998  -4.454  0.00  0.00    +0.046 A 
ATOM     11  F   UNL     1       7.468  -2.580  -5.163  0.00  0.00    -0.202 F 
ATOM     12  F   UNL     1       7.224  -1.096  -2.874  0.00  0.00    -0.202 F 
ENDROOT
BRANCH   1  13
ATOM     13  C   UNL     1       3.722  -3.312  -0.054  0.00  0.00    +0.256 C 
BRANCH  13  21
ATOM     14  C   UNL     1      -0.016   1.351   0.009  0.00  0.00    +0.005 A 
ATOM     15  C   UNL     1       1.197   2.070   0.002  0.00  0.00    +0.018 A 
ATOM     16  C   UNL     1       2.375   1.423  -0.013  0.00  0.00    +0.098 A 
ATOM     17  N   UNL     1       2.421   0.049  -0.022  0.00  0.00    -0.251 N 
ATOM     18  C   UNL     1       1.248  -0.682  -0.014  0.00  0.00    +0.162 A 
ATOM     19  C   UNL     1       0.002  -0.004   0.002  0.00  0.00    +0.049 A 
ATOM     20  N   UNL     1       1.553  -1.958  -0.024  0.00  0.00    -0.147 NA
ATOM     21  N   UNL     1       2.950  -2.066  -0.039  0.00  0.00    -0.194 N 
ATOM     22  C   UNL     1       3.456  -0.816  -0.037  0.00  0.00    +0.352 A 
ATOM     23  O   UNL     1       4.638  -0.520  -0.048  0.00  0.00    -0.244 OA
ENDBRANCH  13  21
ENDBRANCH   1  13
TORSDOF 2
