REMARK  Name = ZINC35597877
REMARK  4 active torsions:
REMARK  status: ('A' for Active; 'I' for Inactive)
REMARK    1  A    between atoms: C_1  and  N_2
REMARK    2  A    between atoms: C_8  and  C_10
REMARK    3  A    between atoms: C_15  and  C_16
REMARK    4  A    between atoms: C_20  and  C_26
REMARK                            x       y       z     vdW  Elec       q    Type
REMARK                         _______ _______ _______ _____ _____    ______ ____
ROOT
ATOM      1  C   UNL     1      -0.018   1.461   0.010  0.00  0.00    +0.174 C 
ATOM      2  N   UNL     1       0.002  -0.004   0.002  0.00  0.00    -0.251 N 
ATOM      3  C   UNL     1       0.008  -0.791  -1.090  0.00  0.00    +0.129 A 
ATOM      4  C   UNL     1       0.041  -2.092  -0.666  0.00  0.00    +0.045 A 
ATOM      5  C   UNL     1       0.042  -2.089   0.727  0.00  0.00    +0.153 A 
ATOM      6  N   UNL     1       0.025  -0.837   1.132  0.00  0.00    -0.154 NA
ATOM      7  N   UNL     1       0.064  -3.221   1.551  0.00  0.00    -0.265 N 
ATOM      8  C   UNL     1       0.062  -3.078   2.892  0.00  0.00    +0.250 C 
ATOM      9  O   UNL     1       0.042  -1.967   3.385  0.00  0.00    -0.270 OA
ATOM     10  C   UNL     1       0.078  -3.254  -1.626  0.00  0.00    +0.100 C 
ATOM     11  C   UNL     1      -0.624  -2.831  -2.920  0.00  0.00    +0.112 C 
ATOM     12  C   UNL     1      -0.204  -1.450  -3.340  0.00  0.00    +0.219 C 
ATOM     13  O   UNL     1      -0.044  -1.218  -4.520  0.00  0.00    -0.275 OA
ATOM     14  N   UNL     1       0.001  -0.461  -2.445  0.00  0.00    -0.270 N 
ATOM     15  H   UNL     1       0.080  -4.108   1.158  0.00  0.00    +0.157 HD
ATOM     16  H   UNL     1       0.139   0.454  -2.736  0.00  0.00    +0.156 HD
ENDROOT
BRANCH   8  17
ATOM     17  C   UNL     1       0.085  -4.273   3.762  0.00  0.00    +0.049 A 
ATOM     18  C   UNL     1       0.114  -5.550   3.199  0.00  0.00    +0.013 A 
ATOM     19  C   UNL     1       0.135  -6.660   4.018  0.00  0.00    +0.001 A 
ATOM     20  C   UNL     1       0.127  -6.510   5.393  0.00  0.00    +0.001 A 
ATOM     21  C   UNL     1       0.099  -5.247   5.957  0.00  0.00    +0.013 A 
ATOM     22  C   UNL     1       0.083  -4.128   5.150  0.00  0.00    +0.067 A 
BRANCH  22  23
ATOM     23  C   UNL     1       0.059  -2.753   5.767  0.00  0.00    +0.418 C 
ATOM     24  F   UNL     1       0.062  -2.867   7.161  0.00  0.00    -0.166 F 
ATOM     25  F   UNL     1       1.188  -2.038   5.355  0.00  0.00    -0.166 F 
ATOM     26  F   UNL     1      -1.096  -2.079   5.356  0.00  0.00    -0.166 F 
ENDBRANCH  22  23
ENDBRANCH   8  17
BRANCH  10  27
ATOM     27  C   UNL     1       1.509  -3.624  -1.921  0.00  0.00    +0.113 A 
ATOM     28  C   UNL     1       2.078  -4.819  -1.682  0.00  0.00    +0.045 A 
ATOM     29  C   UNL     1       3.423  -4.726  -2.109  0.00  0.00    +0.041 A 
ATOM     30  C   UNL     1       3.595  -3.478  -2.582  0.00  0.00    +0.195 A 
ATOM     31  O   UNL     1       2.431  -2.817  -2.471  0.00  0.00    -0.467 OA
ENDBRANCH  10  27
TORSDOF 3
