REMARK  Name = ZINC25672112
REMARK  7 active torsions:
REMARK  status: ('A' for Active; 'I' for Inactive)
REMARK    1  A    between atoms: C_1  and  C_2
REMARK    2  A    between atoms: C_7  and  C_8
REMARK    3  A    between atoms: N_10  and  C_11
REMARK    4  A    between atoms: N_10  and  O_12
REMARK    5  A    between atoms: O_12  and  C_13
REMARK    6  A    between atoms: C_15  and  C_19
REMARK    7  A    between atoms: C_15  and  C_20
REMARK                            x       y       z     vdW  Elec       q    Type
REMARK                         _______ _______ _______ _____ _____    ______ ____
ROOT
ATOM      1  C   UNL     1      -0.009  -1.955  -4.019  0.00  0.00    +0.047 C 
ATOM      2  C   UNL     1      -0.026  -0.485  -3.686  0.00  0.00    -0.010 A 
ATOM      3  C   UNL     1      -0.050   0.578  -4.596  0.00  0.00    +0.042 A 
ATOM      4  C   UNL     1      -0.057   1.764  -3.862  0.00  0.00    +0.028 A 
ATOM      5  N   UNL     1      -0.048   1.445  -2.567  0.00  0.00    -0.353 N 
ATOM      6  H   UNL     1      -0.061   2.238  -1.805  0.00  0.00    +0.166 HD
ATOM      7  C   UNL     1      -0.022   0.069  -2.436  0.00  0.00    +0.108 A 
ATOM      8  C   UNL     1      -0.077   3.127  -4.507  0.00  0.00    +0.060 C 
ATOM      9  C   UNL     1       0.418   3.008  -5.952  0.00  0.00    -0.023 C 
ATOM     10  C   UNL     1      -0.367   1.930  -6.706  0.00  0.00    +0.086 C 
ATOM     11  C   UNL     1      -0.068   0.582  -6.067  0.00  0.00    +0.166 C 
ATOM     12  O   UNL     1       0.140  -0.417  -6.723  0.00  0.00    -0.292 OA
ATOM     13  C   UNL     1       1.903   2.640  -5.947  0.00  0.00    +0.011 C 
ATOM     14  C   UNL     1       0.234   4.352  -6.659  0.00  0.00    +0.011 C 
ENDROOT
BRANCH   7  15
ATOM     15  C   UNL     1       0.000  -0.672  -1.169  0.00  0.00    +0.286 C 
ATOM     16  O   UNL     1       0.017  -1.888  -1.175  0.00  0.00    -0.266 OA
ATOM     17  N   UNL     1       0.002  -0.004   0.002  0.00  0.00    -0.179 N 
ATOM     18  C   UNL     1       0.024  -0.743   1.267  0.00  0.00    +0.167 C 
BRANCH  17  19
ATOM     19  O   UNL     1      -0.017   1.412   0.010  0.00  0.00    -0.280 OA
ATOM     20  C   UNL     1       1.280   2.011   0.001  0.00  0.00    +0.227 C 
ENDBRANCH  17  19
ENDBRANCH   7  15
TORSDOF 2
