REMARK  Name = ZINC04971115
REMARK  3 active torsions:
REMARK  status: ('A' for Active; 'I' for Inactive)
REMARK    1  A    between atoms: C_1  and  N_2
REMARK    2  A    between atoms: C_9  and  C_10
REMARK    3  A    between atoms: N_12  and  C_13
REMARK                            x       y       z     vdW  Elec       q    Type
REMARK                         _______ _______ _______ _____ _____    ______ ____
ROOT
ATOM      1  C   UNL     1       2.421  -2.736   0.060  0.00  0.00    +0.265 C 
ATOM      2  O   UNL     1       1.355  -2.147   0.078  0.00  0.00    -0.268 OA
ATOM      3  N   UNL     1       3.571  -2.044  -0.059  0.00  0.00    -0.280 N 
ATOM      4  H   UNL     1       4.415  -2.515  -0.141  0.00  0.00    +0.155 HD
ENDROOT
BRANCH   1  13
ATOM      5  C   UNL     1      -0.044  -4.590   0.108  0.00  0.00    +0.149 C 
ATOM      6  N   UNL     1       1.352  -5.027   0.188  0.00  0.00    -0.339 N 
ATOM      7  C   UNL     1       1.778  -6.349   0.297  0.00  0.00    +0.057 A 
ATOM      8  C   UNL     1       1.215  -7.630   0.370  0.00  0.00    +0.034 A 
ATOM      9  C   UNL     1       2.011  -8.715   0.475  0.00  0.00    +0.048 A 
ATOM     10  S   UNL     1       3.646  -8.000   0.480  0.00  0.00    -0.095 S 
ATOM     11  C   UNL     1       3.176  -6.294   0.341  0.00  0.00    +0.038 A 
ATOM     12  C   UNL     1       3.586  -4.973   0.255  0.00  0.00    +0.048 A 
ATOM     13  C   UNL     1       2.452  -4.196   0.166  0.00  0.00    +0.106 A 
ENDBRANCH   1  13
BRANCH   3  14
ATOM     14  C   UNL     1       3.548  -0.645  -0.064  0.00  0.00    +0.034 A 
ATOM     15  C   UNL     1       4.584   0.070   0.523  0.00  0.00    +0.025 A 
ATOM     16  C   UNL     1       4.560   1.450   0.516  0.00  0.00    +0.022 A 
ATOM     17  C   UNL     1       3.504   2.122  -0.075  0.00  0.00    +0.041 A 
ATOM     18  C   UNL     1       2.471   1.412  -0.661  0.00  0.00    +0.022 A 
ATOM     19  C   UNL     1       2.490   0.032  -0.657  0.00  0.00    +0.025 A 
ATOM     20 CL   UNL     1       3.476   3.858  -0.082  0.00  0.00    -0.084 Cl
ENDBRANCH   3  14
TORSDOF 2
