REMARK  Name = ZINC62495357
REMARK  3 active torsions:
REMARK  status: ('A' for Active; 'I' for Inactive)
REMARK    1  A    between atoms: C_6  and  C_7
REMARK    2  A    between atoms: C_7  and  C_8
REMARK    3  A    between atoms: C_16  and  O_20
REMARK                            x       y       z     vdW  Elec       q    Type
REMARK                         _______ _______ _______ _____ _____    ______ ____
ROOT
ATOM      1  C   UNL     1      -1.745  -1.028  -1.429  0.00  0.00    +0.263 C 
ATOM      2  C   UNL     1      -2.972  -1.904  -1.423  0.00  0.00    +0.258 C 
ATOM      3  O   UNL     1      -2.861  -3.108  -1.515  0.00  0.00    -0.271 OA
ATOM      4  N   UNL     1      -4.195  -1.343  -1.315  0.00  0.00    -0.280 N 
ATOM      5  C   UNL     1      -4.310   0.056  -1.337  0.00  0.00    +0.076 A 
ATOM      6  C   UNL     1      -5.508   0.668  -1.003  0.00  0.00    +0.030 A 
ATOM      7  C   UNL     1      -5.604   2.046  -1.016  0.00  0.00    +0.047 A 
ATOM      8  C   UNL     1      -4.505   2.818  -1.363  0.00  0.00    +0.120 A 
ATOM      9  C   UNL     1      -3.306   2.209  -1.703  0.00  0.00    +0.093 A 
ATOM     10  C   UNL     1      -3.208   0.829  -1.697  0.00  0.00    +0.146 A 
ATOM     11  O   UNL     1      -2.049   0.219  -2.059  0.00  0.00    -0.477 OA
ATOM     12  H   UNL     1      -4.984  -1.900  -1.223  0.00  0.00    +0.155 HD
ENDROOT
BRANCH   8  13
ATOM     13  O   UNL     1      -4.603   4.175  -1.369  0.00  0.00    -0.507 OA
ATOM     14  H   UNL     1      -4.380   4.589  -0.525  0.00  0.00    +0.292 HD
ENDBRANCH   8  13
BRANCH   1  15
ATOM     15  C   UNL     1      -1.293  -0.775   0.010  0.00  0.00    +0.089 C 
BRANCH  15  21
ATOM     16  C   UNL     1      -0.017   1.378   0.010  0.00  0.00    +0.006 A 
ATOM     17  C   UNL     1       1.170   2.086   0.002  0.00  0.00    +0.040 A 
ATOM     18  C   UNL     1       2.379   1.412  -0.013  0.00  0.00    +0.142 A 
ATOM     19  C   UNL     1       2.397   0.026  -0.021  0.00  0.00    +0.076 A 
ATOM     20  C   UNL     1       1.208  -0.680  -0.013  0.00  0.00    +0.026 A 
ATOM     21  C   UNL     1       0.002  -0.004   0.002  0.00  0.00    -0.042 A 
ATOM     22 CL   UNL     1       3.911  -0.823  -0.040  0.00  0.00    -0.081 Cl
ATOM     23  F   UNL     1       3.539   2.103  -0.021  0.00  0.00    -0.204 F 
ENDBRANCH  15  21
ENDBRANCH   1  15
TORSDOF 3
