REMARK  Name = ZINC37130029
REMARK  2 active torsions:
REMARK  status: ('A' for Active; 'I' for Inactive)
REMARK    1  A    between atoms: C_7  and  N_12
REMARK    2  A    between atoms: N_12  and  C_13
REMARK                            x       y       z     vdW  Elec       q    Type
REMARK                         _______ _______ _______ _____ _____    ______ ____
ROOT
ATOM      1  N   UNL     1      -0.048  -2.624   0.725  0.00  0.00    -0.337 N 
ATOM      2  H   UNL     1       0.069  -2.888   1.651  0.00  0.00    +0.147 HD
ENDROOT
BRANCH   1   3
ATOM      3  C   UNL     1      -1.321  -2.647   0.146  0.00  0.00    +0.030 A 
ATOM      4  C   UNL     1      -1.486  -2.274  -1.184  0.00  0.00    +0.026 A 
ATOM      5  C   UNL     1      -2.740  -2.295  -1.760  0.00  0.00    +0.050 A 
ATOM      6  C   UNL     1      -3.840  -2.688  -1.014  0.00  0.00    +0.157 A 
ATOM      7  C   UNL     1      -3.676  -3.062   0.320  0.00  0.00    +0.089 A 
ATOM      8  C   UNL     1      -2.417  -3.047   0.896  0.00  0.00    +0.052 A 
ATOM      9  N   UNL     1      -4.943  -3.400   0.798  0.00  0.00    -0.288 N 
ATOM     10  H   UNL     1      -5.155  -3.701   1.695  0.00  0.00    +0.172 HD
ATOM     11  C   UNL     1      -5.816  -3.231  -0.214  0.00  0.00    +0.419 A 
ATOM     12  O   UNL     1      -7.013  -3.434  -0.150  0.00  0.00    -0.223 OA
ATOM     13  O   UNL     1      -5.160  -2.803  -1.304  0.00  0.00    -0.408 OA
ENDBRANCH   1   3
BRANCH   1  20
ATOM     14  C   UNL     1      -0.017   1.374   0.010  0.00  0.00    +0.000 A 
ATOM     15  C   UNL     1       1.171   2.083   0.002  0.00  0.00    +0.001 A 
ATOM     16  C   UNL     1       2.369   1.401  -0.004  0.00  0.00    +0.015 A 
ATOM     17  C   UNL     1       2.390   0.006  -0.010  0.00  0.00    +0.013 A 
ATOM     18  C   UNL     1       1.206  -0.705  -0.017  0.00  0.00    -0.014 A 
ATOM     19  C   UNL     1       0.002  -0.004   0.002  0.00  0.00    +0.006 A 
ATOM     20  C   UNL     1       1.110  -2.202  -0.068  0.00  0.00    +0.102 C 
ATOM     21  C   UNL     1       2.343  -2.911   0.464  0.00  0.00    +0.038 C 
ATOM     22  C   UNL     1       3.555  -2.522  -0.395  0.00  0.00    +0.076 C 
ATOM     23  S   UNL     1       3.963  -0.796   0.002  0.00  0.00    -0.125 S 
ENDBRANCH   1  20
TORSDOF 2
