REMARK  Name = ZINC21866190
REMARK  6 active torsions:
REMARK  status: ('A' for Active; 'I' for Inactive)
REMARK    1  A    between atoms: C_4  and  C_7
REMARK    2  A    between atoms: C_8  and  S_9
REMARK    3  A    between atoms: S_9  and  N_12
REMARK    4  A    between atoms: N_12  and  C_13
REMARK    5  A    between atoms: C_17  and  S_19
REMARK    6  A    between atoms: S_19  and  N_22
REMARK                            x       y       z     vdW  Elec       q    Type
REMARK                         _______ _______ _______ _____ _____    ______ ____
ROOT
ATOM      1  C   UNL     1       4.333  -4.774   1.520  0.00  0.00    +0.050 A 
ATOM      2  C   UNL     1       3.032  -4.654   1.048  0.00  0.00    +0.024 A 
ATOM      3  C   UNL     1       2.139  -5.694   1.217  0.00  0.00    +0.004 A 
ATOM      4  C   UNL     1       2.539  -6.854   1.856  0.00  0.00    +0.029 A 
ATOM      5  C   UNL     1       3.833  -6.976   2.327  0.00  0.00    +0.114 A 
ATOM      6  C   UNL     1       4.733  -5.942   2.156  0.00  0.00    +0.053 A 
ENDROOT
BRANCH   5   7
ATOM      7  S   UNL     1       4.336  -8.455   3.142  0.00  0.00    +0.100 S 
ATOM      8  O   UNL     1       5.437  -8.108   3.971  0.00  0.00    -0.146 OA
ATOM      9  O   UNL     1       3.156  -9.058   3.655  0.00  0.00    -0.146 OA
BRANCH   7  10
ATOM     10  N   UNL     1       4.924  -9.478   1.980  0.00  0.00    -0.118 NA
ATOM     11  C   UNL     1       5.365 -10.648   2.311  0.00  0.00    +0.117 C 
ATOM     12  C   UNL     1       5.931 -11.669   1.349  0.00  0.00    +0.074 C 
ATOM     13  C   UNL     1       6.683 -12.671   2.254  0.00  0.00    +0.026 C 
ATOM     14  C   UNL     1       5.946 -12.506   3.601  0.00  0.00    +0.103 C 
ATOM     15  N   UNL     1       5.396 -11.146   3.584  0.00  0.00    -0.331 N 
ATOM     16  H   UNL     1       5.094 -10.665   4.370  0.00  0.00    +0.147 HD
ENDBRANCH   7  10
ENDBRANCH   5   7
BRANCH   1  17
ATOM     17  N   UNL     1       5.239  -3.725   1.350  0.00  0.00    -0.217 N 
ATOM     18  H   UNL     1       5.796  -3.440   2.091  0.00  0.00    +0.174 HD
BRANCH  17  19
ATOM     19  S   UNL     1       5.362  -2.966  -0.117  0.00  0.00    +0.066 S 
ATOM     20  O   UNL     1       6.427  -2.032  -0.004  0.00  0.00    -0.151 OA
ATOM     21  O   UNL     1       4.045  -2.579  -0.485  0.00  0.00    -0.151 OA
BRANCH  19  23
ATOM     22  C   UNL     1       5.073  -4.519  -2.286  0.00  0.00    +0.028 C 
ATOM     23  C   UNL     1       5.877  -4.178  -1.288  0.00  0.00    +0.157 C 
BRANCH  22  27
ATOM     24  C   UNL     1       6.315  -7.437  -5.111  0.00  0.00    +0.000 A 
ATOM     25  C   UNL     1       5.071  -6.845  -5.234  0.00  0.00    +0.001 A 
ATOM     26  C   UNL     1       4.662  -5.896  -4.320  0.00  0.00    +0.008 A 
ATOM     27  C   UNL     1       5.505  -5.535  -3.269  0.00  0.00    -0.024 A 
ATOM     28  C   UNL     1       6.758  -6.136  -3.150  0.00  0.00    +0.008 A 
ATOM     29  C   UNL     1       7.156  -7.084  -4.071  0.00  0.00    +0.001 A 
ENDBRANCH  22  27
ENDBRANCH  19  23
ENDBRANCH  17  19
ENDBRANCH   1  17
TORSDOF 6
