REMARK  Name = ZINC63344383
REMARK  9 active torsions:
REMARK  status: ('A' for Active; 'I' for Inactive)
REMARK    1  A    between atoms: C_1  and  C_2
REMARK    2  A    between atoms: C_6  and  N_8
REMARK    3  A    between atoms: N_8  and  C_9
REMARK    4  A    between atoms: C_9  and  N_11
REMARK    5  A    between atoms: N_11  and  N_12
REMARK    6  A    between atoms: C_13  and  C_15
REMARK    7  A    between atoms: C_19  and  S_21
REMARK    8  A    between atoms: S_21  and  N_24
REMARK    9  A    between atoms: N_24  and  C_25
REMARK                            x       y       z     vdW  Elec       q    Type
REMARK                         _______ _______ _______ _____ _____    ______ ____
ROOT
ATOM      1  N   UNL     1       0.283  -4.218   4.706  0.00  0.00    -0.231 N 
ATOM      2  C   UNL     1       0.399  -4.902   5.862  0.00  0.00    +0.260 C 
ATOM      3  O   UNL     1       0.488  -4.303   6.916  0.00  0.00    -0.269 OA
ATOM      4  H   UNL     1       0.212  -4.695   3.865  0.00  0.00    +0.173 HD
ENDROOT
BRANCH   2   5
ATOM      5  C   UNL     1       0.418  -6.380   5.847  0.00  0.00    +0.040 A 
ATOM      6  C   UNL     1       0.321  -7.070   4.637  0.00  0.00    +0.013 A 
ATOM      7  C   UNL     1       0.340  -8.449   4.630  0.00  0.00    +0.003 A 
ATOM      8  C   UNL     1       0.453  -9.149   5.819  0.00  0.00    +0.028 A 
ATOM      9  C   UNL     1       0.548  -8.471   7.021  0.00  0.00    +0.106 A 
ATOM     10  C   UNL     1       0.537  -7.091   7.042  0.00  0.00    +0.041 A 
BRANCH   9  11
ATOM     11  S   UNL     1       0.692  -9.371   8.529  0.00  0.00    +0.058 S 
ATOM     12  O   UNL     1       0.217  -8.516   9.559  0.00  0.00    -0.153 OA
ATOM     13  O   UNL     1       0.135 -10.656   8.289  0.00  0.00    -0.153 OA
BRANCH  11  14
ATOM     14  N   UNL     1       2.307  -9.600   8.811  0.00  0.00    -0.193 NA
ATOM     15  C   UNL     1       3.176  -8.449   9.070  0.00  0.00    +0.127 C 
ATOM     16  H   UNL     1       2.679 -10.496   8.805  0.00  0.00    +0.148 HD
ENDBRANCH  11  14
ENDBRANCH   9  11
ENDBRANCH   2   5
BRANCH   1  17
ATOM     17  N   UNL     1       0.265  -2.817   4.720  0.00  0.00    -0.245 N 
ATOM     18  H   UNL     1       0.336  -2.339   5.561  0.00  0.00    +0.172 HD
BRANCH  17  19
ATOM     19  C   UNL     1       0.149  -2.133   3.565  0.00  0.00    +0.151 C 
ATOM     20  S   UNL     1       0.128  -0.421   3.582  0.00  0.00    -0.017 S 
BRANCH  19  21
ATOM     21  N   UNL     1       0.051  -2.796   2.396  0.00  0.00    -0.294 N 
ATOM     22  H   UNL     1      -0.000  -3.765   2.391  0.00  0.00    +0.154 HD
BRANCH  21  28
ATOM     23  C   UNL     1      -1.755   0.896  -0.302  0.00  0.00    +0.044 C 
ATOM     24  C   UNL     1      -0.844  -0.294  -0.147  0.00  0.00    -0.049 A 
ATOM     25  C   UNL     1      -0.036  -0.686  -1.198  0.00  0.00    +0.006 A 
ATOM     26  C   UNL     1       0.801  -1.778  -1.061  0.00  0.00    +0.040 A 
ATOM     27  C   UNL     1       0.833  -2.480   0.130  0.00  0.00    +0.144 A 
ATOM     28  C   UNL     1       0.022  -2.087   1.188  0.00  0.00    +0.069 A 
ATOM     29  C   UNL     1      -0.813  -0.988   1.047  0.00  0.00    +0.029 A 
ATOM     30  F   UNL     1       1.651  -3.547   0.264  0.00  0.00    -0.204 F 
ENDBRANCH  21  28
ENDBRANCH  19  21
ENDBRANCH  17  19
ENDBRANCH   1  17
TORSDOF 7
