REMARK  Name = ZINC12371456
REMARK  6 active torsions:
REMARK  status: ('A' for Active; 'I' for Inactive)
REMARK    1  A    between atoms: C_1  and  O_2
REMARK    2  A    between atoms: O_2  and  C_3
REMARK    3  A    between atoms: C_13  and  C_27
REMARK    4  A    between atoms: C_18  and  C_20
REMARK    5  A    between atoms: C_20  and  C_21
REMARK    6  A    between atoms: C_30  and  N_33
REMARK                            x       y       z     vdW  Elec       q    Type
REMARK                         _______ _______ _______ _____ _____    ______ ____
ROOT
ATOM      1  C   UNL     1      -4.995   0.793   5.543  0.00  0.00    +0.121 A 
ATOM      2  C   UNL     1      -3.973  -0.117   5.784  0.00  0.00    +0.047 A 
ATOM      3  C   UNL     1      -3.055  -0.470   4.810  0.00  0.00    +0.030 A 
ATOM      4  C   UNL     1      -3.194   0.128   3.560  0.00  0.00    +0.047 A 
ATOM      5  C   UNL     1      -4.236   1.057   3.312  0.00  0.00    +0.007 A 
ATOM      6  C   UNL     1      -5.155   1.403   4.308  0.00  0.00    +0.056 A 
ATOM      7  C   UNL     1      -4.082   1.474   1.932  0.00  0.00    -0.015 A 
ATOM      8  C   UNL     1      -3.012   0.816   1.438  0.00  0.00    +0.046 A 
ATOM      9  N   UNL     1      -2.474   0.007   2.403  0.00  0.00    -0.356 N 
ATOM     10  H   UNL     1      -1.701  -0.567   2.284  0.00  0.00    +0.166 HD
ATOM     11  C   UNL     1      -2.514   0.980   0.019  0.00  0.00    +0.153 C 
ATOM     12  N   UNL     1      -3.541   1.725  -0.727  0.00  0.00    -0.288 N 
ATOM     13  C   UNL     1      -4.152   2.901  -0.089  0.00  0.00    +0.113 C 
ATOM     14  C   UNL     1      -4.930   2.446   1.151  0.00  0.00    +0.056 C 
ATOM     15  C   UNL     1      -3.913   1.340  -1.964  0.00  0.00    +0.221 C 
ATOM     16  O   UNL     1      -3.399   0.368  -2.476  0.00  0.00    -0.275 OA
ENDROOT
BRANCH  11  17
ATOM     17  C   UNL     1      -1.219   1.751   0.017  0.00  0.00    -0.021 A 
ATOM     18  C   UNL     1      -0.099   1.219  -0.594  0.00  0.00    +0.008 A 
ATOM     19  C   UNL     1       1.087   1.929  -0.601  0.00  0.00    +0.033 A 
ATOM     20  C   UNL     1       1.155   3.168   0.009  0.00  0.00    +0.126 A 
ATOM     21  C   UNL     1       0.036   3.697   0.625  0.00  0.00    +0.033 A 
ATOM     22  C   UNL     1      -1.150   2.988   0.631  0.00  0.00    +0.008 A 
BRANCH  20  23
ATOM     23  N   UNL     1       2.425   3.928   0.002  0.00  0.00    +0.056 N 
ATOM     24  O   UNL     1       3.411   3.462  -0.541  0.00  0.00    -0.126 OA
ATOM     25  O   UNL     1       2.485   5.019   0.539  0.00  0.00    -0.126 OA
ENDBRANCH  20  23
ENDBRANCH  11  17
BRANCH   1  27
ATOM     26  C   UNL     1      -5.657   0.439   7.800  0.00  0.00    +0.277 C 
ATOM     27  O   UNL     1      -5.863   1.093   6.546  0.00  0.00    -0.495 OA
ENDBRANCH   1  27
BRANCH  15  28
ATOM     28  C   UNL     1      -4.966   2.117  -2.711  0.00  0.00    +0.131 C 
BRANCH  28  29
ATOM     29  C   UNL     1      -5.196   1.484  -4.059  0.00  0.00    -0.039 A 
ATOM     30  C   UNL     1      -4.455   1.896  -5.151  0.00  0.00    +0.004 A 
ATOM     31  C   UNL     1      -4.663   1.312  -6.387  0.00  0.00    +0.000 A 
ATOM     32  C   UNL     1      -5.618   0.323  -6.533  0.00  0.00    +0.000 A 
ATOM     33  C   UNL     1      -6.362  -0.085  -5.442  0.00  0.00    +0.000 A 
ATOM     34  C   UNL     1      -6.151   0.496  -4.205  0.00  0.00    +0.004 A 
ENDBRANCH  28  29
ENDBRANCH  15  28
TORSDOF 5
