REMARK  Name = ZINC46817446
REMARK  6 active torsions:
REMARK  status: ('A' for Active; 'I' for Inactive)
REMARK    1  A    between atoms: C_1  and  C_2
REMARK    2  A    between atoms: N_11  and  C_15
REMARK    3  A    between atoms: C_15  and  C_16
REMARK    4  A    between atoms: N_18  and  C_19
REMARK    5  A    between atoms: C_19  and  C_20
REMARK    6  A    between atoms: C_25  and  C_26
REMARK                            x       y       z     vdW  Elec       q    Type
REMARK                         _______ _______ _______ _____ _____    ______ ____
ROOT
ATOM      1  C   UNL     1       1.267   0.606   5.501  0.00  0.00    +0.231 C 
ATOM      2  O   UNL     1       1.635  -0.530   5.291  0.00  0.00    -0.274 OA
ATOM      3  N   UNL     1       1.182   1.065   6.765  0.00  0.00    -0.310 N 
ATOM      4  H   UNL     1       0.888   1.974   6.933  0.00  0.00    +0.149 HD
ENDROOT
BRANCH   1   5
ATOM      5  C   UNL     1       0.904   1.505   4.347  0.00  0.00    +0.213 C 
BRANCH   5  15
ATOM      6  C   UNL     1      -0.019   1.526   0.010  0.00  0.00    +0.010 C 
ATOM      7  C   UNL     1       0.002  -0.004   0.002  0.00  0.00    +0.018 C 
ATOM      8  C   UNL     1      -1.434  -0.533   0.012  0.00  0.00    +0.006 C 
ATOM      9  C   UNL     1      -1.413  -2.063   0.024  0.00  0.00    +0.000 C 
ATOM     10  C   UNL     1      -0.690  -2.554   1.280  0.00  0.00    +0.003 C 
ATOM     11  C   UNL     1       0.749  -2.033   1.276  0.00  0.00    +0.035 C 
ATOM     12  C   UNL     1       0.741  -0.509   1.237  0.00  0.00    +0.115 C 
ATOM     13  C   UNL     1       0.111   0.049   2.493  0.00  0.00    +0.247 C 
ATOM     14  O   UNL     1      -1.023  -0.123   2.884  0.00  0.00    -0.273 OA
ATOM     15  N   UNL     1       1.078   0.778   3.087  0.00  0.00    -0.215 N 
ATOM     16  C   UNL     1       2.217   0.755   2.383  0.00  0.00    +0.310 C 
ATOM     17  O   UNL     1       3.230   1.337   2.717  0.00  0.00    -0.252 OA
ATOM     18  N   UNL     1       2.113   0.013   1.264  0.00  0.00    -0.285 N 
ATOM     19  H   UNL     1       2.808  -0.145   0.606  0.00  0.00    +0.151 HD
ENDBRANCH   5  15
ENDBRANCH   1   5
BRANCH   3  20
ATOM     20  C   UNL     1       1.535   0.191   7.887  0.00  0.00    +0.140 C 
BRANCH  20  21
ATOM     21  C   UNL     1       1.355   0.939   9.182  0.00  0.00    -0.019 A 
ATOM     22  C   UNL     1       2.451   1.492   9.818  0.00  0.00    +0.008 A 
ATOM     23  C   UNL     1       2.288   2.179  11.006  0.00  0.00    +0.038 A 
ATOM     24  C   UNL     1       1.026   2.313  11.560  0.00  0.00    +0.124 A 
ATOM     25  C   UNL     1      -0.071   1.760  10.922  0.00  0.00    +0.051 A 
ATOM     26  C   UNL     1       0.094   1.078   9.731  0.00  0.00    +0.062 A 
ATOM     27  F   UNL     1       0.865   2.984  12.721  0.00  0.00    -0.205 F 
BRANCH  26  28
ATOM     28  C   UNL     1      -1.101   0.480   9.034  0.00  0.00    +0.418 C 
ATOM     29  F   UNL     1      -2.256   0.749   9.775  0.00  0.00    -0.166 F 
ATOM     30  F   UNL     1      -1.224   1.040   7.758  0.00  0.00    -0.166 F 
ATOM     31  F   UNL     1      -0.931  -0.904   8.921  0.00  0.00    -0.166 F 
ENDBRANCH  26  28
ENDBRANCH  20  21
ENDBRANCH   3  20
TORSDOF 5
