REMARK  Name = ZINC14988482
REMARK  9 active torsions:
REMARK  status: ('A' for Active; 'I' for Inactive)
REMARK    1  A    between atoms: C_1  and  C_2
REMARK    2  A    between atoms: C_2  and  O_3
REMARK    3  A    between atoms: O_3  and  C_4
REMARK    4  A    between atoms: C_9  and  N_64
REMARK    5  A    between atoms: C_18  and  C_23
REMARK    6  A    between atoms: C_20  and  O_21
REMARK    7  A    between atoms: O_21  and  C_22
REMARK    8  A    between atoms: C_26  and  S_29
REMARK    9  A    between atoms: S_29  and  C_30
REMARK                            x       y       z     vdW  Elec       q    Type
REMARK                         _______ _______ _______ _____ _____    ______ ____
ROOT
ATOM      1  C   UNL     1      -0.025   1.529  -0.075  0.00  0.00    -0.036 C 
ATOM      2  C   UNL     1      -0.026   0.016  -0.087  0.00  0.00    +0.211 C 
ATOM      3  O   UNL     1       0.600  -0.483  -1.276  0.00  0.00    -0.490 OA
ATOM      4  C   UNL     1       1.955  -0.604  -1.214  0.00  0.00    +0.163 A 
ATOM      5  C   UNL     1       2.745   0.528  -1.151  0.00  0.00    -0.018 A 
ATOM      6  C   UNL     1       4.116   0.423  -1.054  0.00  0.00    +0.014 A 
ATOM      7  C   UNL     1       4.712  -0.838  -1.040  0.00  0.00    -0.014 A 
ATOM      8  C   UNL     1       3.921  -1.981  -1.125  0.00  0.00    +0.058 A 
ATOM      9  C   UNL     1       2.544  -1.866  -1.211  0.00  0.00    +0.162 A 
ATOM     10  C   UNL     1       2.091   1.895  -1.223  0.00  0.00    -0.039 C 
ATOM     11  N   UNL     1       1.333   2.103   0.034  0.00  0.00    +0.387 N 
ATOM     12  H   UNL     1       1.829   1.632   0.800  0.00  0.00    -0.081 HD
ENDROOT
BRANCH  11  18
ATOM     13  C   UNL     1      -1.123   6.680   1.526  0.00  0.00    +0.403 C 
ATOM     14  O   UNL     1      -1.791   7.259   0.692  0.00  0.00    -0.226 OA
ATOM     15  N   UNL     1      -0.094   5.899   1.140  0.00  0.00    -0.268 N 
ATOM     16  C   UNL     1       0.232   5.738  -0.283  0.00  0.00    +0.109 C 
ATOM     17  C   UNL     1       0.273   4.243  -0.614  0.00  0.00    +0.004 C 
ATOM     18  C   UNL     1       1.245   3.541   0.337  0.00  0.00    -0.065 C 
ATOM     19  C   UNL     1       0.759   3.703   1.778  0.00  0.00    +0.004 C 
ATOM     20  C   UNL     1       0.724   5.192   2.136  0.00  0.00    +0.109 C 
BRANCH  13  21
ATOM     21  O   UNL     1      -1.410   6.818   2.834  0.00  0.00    -0.451 OA
BRANCH  21  23
ATOM     22  C   UNL     1      -2.703   7.708   4.695  0.00  0.00    +0.048 C 
ATOM     23  C   UNL     1      -2.531   7.675   3.175  0.00  0.00    +0.230 C 
ENDBRANCH  21  23
ENDBRANCH  13  21
ENDBRANCH  11  18
BRANCH   7  24
ATOM     24  C   UNL     1       6.187  -0.961  -0.936  0.00  0.00    -0.018 A 
ATOM     25  C   UNL     1       6.979   0.184  -0.858  0.00  0.00    +0.009 A 
ATOM     26  C   UNL     1       8.349   0.068  -0.756  0.00  0.00    +0.015 A 
ATOM     27  C   UNL     1       8.941  -1.190  -0.743  0.00  0.00    +0.008 A 
ATOM     28  C   UNL     1       8.153  -2.333  -0.826  0.00  0.00    +0.015 A 
ATOM     29  C   UNL     1       6.783  -2.221  -0.922  0.00  0.00    +0.009 A 
BRANCH  27  30
ATOM     30  S   UNL     1      10.693  -1.337  -0.620  0.00  0.00    -0.129 S 
ATOM     31  C   UNL     1      11.272   0.381  -0.538  0.00  0.00    +0.090 C 
ENDBRANCH  27  30
ENDBRANCH   7  24
BRANCH   9  32
ATOM     32  O   UNL     1       1.769  -2.981  -1.291  0.00  0.00    -0.491 OA
ATOM     33  C   UNL     1       2.443  -4.241  -1.282  0.00  0.00    +0.277 C 
ENDBRANCH   9  32
TORSDOF 6
