REMARK  Name = ZINC01805663
REMARK  7 active torsions:
REMARK  status: ('A' for Active; 'I' for Inactive)
REMARK    1  A    between atoms: C_1  and  C_2
REMARK    2  A    between atoms: C_2  and  C_3
REMARK    3  A    between atoms: C_3  and  C_4
REMARK    4  A    between atoms: C_4  and  N_5
REMARK    5  A    between atoms: C_12  and  C_16
REMARK    6  A    between atoms: C_23  and  C_25
REMARK    7  A    between atoms: C_23  and  C_26
REMARK                            x       y       z     vdW  Elec       q    Type
REMARK                         _______ _______ _______ _____ _____    ______ ____
ROOT
ATOM      1  N   UNL     1      -0.011   0.966   0.007  0.00  0.00    -0.328 N 
ATOM      2  C   UNL     1      -1.221   1.643   0.017  0.00  0.00    +0.136 A 
ATOM      3  C   UNL     1      -2.424   0.950   0.019  0.00  0.00    +0.080 A 
ATOM      4  C   UNL     1      -3.647   1.632   0.028  0.00  0.00    +0.093 A 
ATOM      5  C   UNL     1      -4.856   0.789   0.029  0.00  0.00    +0.037 A 
ATOM      6  C   UNL     1      -6.206   1.218   0.037  0.00  0.00    -0.025 A 
ATOM      7  C   UNL     1      -7.204   0.295   0.032  0.00  0.00    +0.011 A 
ATOM      8  C   UNL     1      -6.889  -1.073   0.026  0.00  0.00    +0.113 A 
ATOM      9  N   UNL     1      -5.622  -1.471   0.021  0.00  0.00    -0.236 NA
ATOM     10  C   UNL     1      -4.636  -0.601   0.022  0.00  0.00    +0.112 A 
ATOM     11  S   UNL     1      -2.867  -0.765   0.012  0.00  0.00    -0.064 S 
ATOM     12  C   UNL     1      -8.655   0.704   0.024  0.00  0.00    +0.198 C 
ATOM     13  O   UNL     1      -8.784   2.073   0.403  0.00  0.00    -0.369 OA
ATOM     14  C   UNL     1      -7.941   2.950  -0.353  0.00  0.00    +0.068 C 
ATOM     15  C   UNL     1      -6.488   2.696   0.057  0.00  0.00    +0.070 C 
ATOM     16  C   UNL     1      -8.313   4.404  -0.057  0.00  0.00    +0.041 C 
ATOM     17  C   UNL     1      -8.112   2.668  -1.847  0.00  0.00    +0.041 C 
ATOM     18  N   UNL     1      -3.574   2.983   0.035  0.00  0.00    -0.234 NA
ATOM     19  C   UNL     1      -2.421   3.603   0.033  0.00  0.00    +0.224 A 
ATOM     20  N   UNL     1      -1.259   2.975   0.030  0.00  0.00    -0.220 NA
ATOM     21  H   UNL     1       0.002  -0.004   0.002  0.00  0.00    +0.147 HD
ENDROOT
BRANCH   8  22
ATOM     22  C   UNL     1      -7.972  -2.075   0.026  0.00  0.00    +0.153 A 
ATOM     23  C   UNL     1      -7.948  -3.279  -0.609  0.00  0.00    +0.051 A 
ATOM     24  C   UNL     1      -9.181  -3.904  -0.342  0.00  0.00    +0.042 A 
ATOM     25  C   UNL     1      -9.891  -3.061   0.435  0.00  0.00    +0.196 A 
ATOM     26  O   UNL     1      -9.156  -1.961   0.660  0.00  0.00    -0.461 OA
ENDBRANCH   8  22
BRANCH   1  27
ATOM     27  C   UNL     1       1.248   1.716  -0.001  0.00  0.00    +0.103 C 
BRANCH  27  28
ATOM     28  C   UNL     1       2.424   0.737  -0.017  0.00  0.00    +0.018 C 
BRANCH  28  30
ATOM     29  C   UNL     1       4.915   0.542  -0.042  0.00  0.00    +0.004 C 
ATOM     30  C   UNL     1       3.738   1.520  -0.025  0.00  0.00    -0.002 C 
ENDBRANCH  28  30
ENDBRANCH  27  28
ENDBRANCH   1  27
TORSDOF 4
