REMARK  Name = ZINC02874203
REMARK  8 active torsions:
REMARK  status: ('A' for Active; 'I' for Inactive)
REMARK    1  A    between atoms: C_1  and  O_2
REMARK    2  A    between atoms: O_2  and  C_3
REMARK    3  A    between atoms: C_7  and  C_17
REMARK    4  A    between atoms: C_8  and  O_9
REMARK    5  A    between atoms: O_9  and  C_10
REMARK    6  A    between atoms: C_10  and  C_11
REMARK    7  A    between atoms: C_29  and  S_32
REMARK    8  A    between atoms: S_32  and  C_33
REMARK                            x       y       z     vdW  Elec       q    Type
REMARK                         _______ _______ _______ _____ _____    ______ ____
ROOT
ATOM      1  C   UNL     1       1.248   3.262   2.327  0.00  0.00    +0.297 C 
ATOM      2  N   UNL     1       0.254   4.301   2.581  0.00  0.00    -0.305 N 
ATOM      3  C   UNL     1       0.220   4.907   3.840  0.00  0.00    +0.039 A 
ATOM      4  C   UNL     1      -0.833   4.701   4.712  0.00  0.00    +0.024 A 
ATOM      5  C   UNL     1      -0.827   5.305   5.956  0.00  0.00    +0.002 A 
ATOM      6  C   UNL     1       0.230   6.115   6.335  0.00  0.00    +0.001 A 
ATOM      7  C   UNL     1       1.287   6.335   5.474  0.00  0.00    +0.012 A 
ATOM      8  C   UNL     1       1.290   5.740   4.219  0.00  0.00    +0.028 A 
ATOM      9  C   UNL     1       2.384   5.976   3.253  0.00  0.00    +0.156 A 
ATOM     10  C   UNL     1       2.966   4.880   2.577  0.00  0.00    +0.248 A 
ATOM     11  N   UNL     1       3.938   5.111   1.711  0.00  0.00    -0.184 NA
ATOM     12  C   UNL     1       4.341   6.362   1.505  0.00  0.00    +0.212 A 
ATOM     13  N   UNL     1       3.784   7.376   2.154  0.00  0.00    -0.122 NA
ATOM     14  N   UNL     1       2.833   7.196   3.004  0.00  0.00    -0.141 NA
ATOM     15  O   UNL     1       2.529   3.624   2.831  0.00  0.00    -0.449 OA
ATOM     16  H   UNL     1      -0.371   4.565   1.888  0.00  0.00    +0.150 HD
ENDROOT
BRANCH   1  21
ATOM     17  C   UNL     1      -0.480  -0.048   2.950  0.00  0.00    +0.162 A 
ATOM     18  C   UNL     1      -0.011  -0.365   4.215  0.00  0.00    +0.049 A 
ATOM     19  C   UNL     1       0.856   0.493   4.865  0.00  0.00    +0.004 A 
ATOM     20  C   UNL     1       1.262   1.665   4.255  0.00  0.00    +0.013 A 
ATOM     21  C   UNL     1       0.803   1.984   2.990  0.00  0.00    +0.056 A 
ATOM     22  C   UNL     1      -0.067   1.129   2.333  0.00  0.00    +0.171 A 
BRANCH  17  24
ATOM     23  C   UNL     1      -1.718  -2.078   3.005  0.00  0.00    +0.277 C 
ATOM     24  O   UNL     1      -1.337  -0.888   2.311  0.00  0.00    -0.491 OA
ENDBRANCH  17  24
BRANCH  22  25
ATOM     25  O   UNL     1      -0.519   1.441   1.089  0.00  0.00    -0.483 OA
BRANCH  25  26
ATOM     26  C   UNL     1       0.256   0.978  -0.019  0.00  0.00    +0.264 C 
BRANCH  26  27
ATOM     27  C   UNL     1      -0.396   1.417  -1.305  0.00  0.00    -0.010 A 
ATOM     28  C   UNL     1      -1.327   0.602  -1.921  0.00  0.00    +0.007 A 
ATOM     29  C   UNL     1      -1.928   1.006  -3.099  0.00  0.00    +0.000 A 
ATOM     30  C   UNL     1      -1.590   2.220  -3.666  0.00  0.00    +0.000 A 
ATOM     31  C   UNL     1      -0.654   3.033  -3.053  0.00  0.00    +0.000 A 
ATOM     32  C   UNL     1      -0.057   2.631  -1.873  0.00  0.00    +0.007 A 
ENDBRANCH  26  27
ENDBRANCH  25  26
ENDBRANCH  22  25
ENDBRANCH   1  21
BRANCH  12  33
ATOM     33  S   UNL     1       5.636   6.676   0.352  0.00  0.00    -0.088 S 
ATOM     34  C   UNL     1       5.748   8.477   0.488  0.00  0.00    +0.093 C 
ENDBRANCH  12  33
TORSDOF 6
