REMARK  Name = ZINC18097704
REMARK  11 active torsions:
REMARK  status: ('A' for Active; 'I' for Inactive)
REMARK    1  A    between atoms: C_1  and  C_2
REMARK    2  A    between atoms: C_7  and  C_10
REMARK    3  A    between atoms: C_11  and  C_13
REMARK    4  A    between atoms: C_13  and  O_14
REMARK    5  A    between atoms: O_14  and  N_15
REMARK    6  A    between atoms: N_15  and  C_16
REMARK    7  A    between atoms: C_17  and  C_31
REMARK    8  A    between atoms: N_25  and  C_30
REMARK    9  A    between atoms: N_28  and  C_29
REMARK   10  A    between atoms: C_31  and  C_32
REMARK   11  A    between atoms: C_31  and  C_33
REMARK                            x       y       z     vdW  Elec       q    Type
REMARK                         _______ _______ _______ _____ _____    ______ ____
ROOT
ATOM      1  C   UNL     1      -3.526  -7.130  -2.221  0.00  0.00    +0.082 A 
ATOM      2  C   UNL     1      -3.492  -8.525  -2.188  0.00  0.00    -0.003 A 
ATOM      3  C   UNL     1      -4.254  -9.242  -3.086  0.00  0.00    +0.090 A 
ATOM      4  N   UNL     1      -5.019  -8.642  -3.982  0.00  0.00    -0.347 N 
ATOM      5  H   UNL     1      -5.540  -9.183  -4.596  0.00  0.00    +0.167 HD
ATOM      6  C   UNL     1      -5.094  -7.325  -4.063  0.00  0.00    +0.129 A 
ATOM      7  C   UNL     1      -4.352  -6.521  -3.179  0.00  0.00    +0.106 A 
ATOM      8  C   UNL     1      -4.464  -5.062  -3.294  0.00  0.00    +0.268 A 
ATOM      9  O   UNL     1      -3.837  -4.327  -2.554  0.00  0.00    -0.267 OA
ATOM     10  N   UNL     1      -5.282  -4.557  -4.244  0.00  0.00    -0.263 N 
ATOM     11  C   UNL     1      -5.975  -5.364  -5.062  0.00  0.00    +0.333 A 
ATOM     12  O   UNL     1      -6.697  -4.860  -5.901  0.00  0.00    -0.246 OA
ATOM     13  N   UNL     1      -5.897  -6.704  -5.003  0.00  0.00    -0.282 N 
ATOM     14  C   UNL     1      -6.685  -7.517  -5.933  0.00  0.00    +0.155 C 
ATOM     15  C   UNL     1      -5.415  -3.104  -4.382  0.00  0.00    +0.157 C 
ENDROOT
BRANCH   2  16
ATOM     16  C   UNL     1      -2.630  -9.241  -1.180  0.00  0.00    +0.016 C 
ATOM     17  C   UNL     1      -3.486 -10.234  -0.391  0.00  0.00    +0.012 C 
ATOM     18  C   UNL     1      -1.514  -9.995  -1.907  0.00  0.00    +0.012 C 
ENDBRANCH   2  16
BRANCH   1  19
ATOM     19  N   UNL     1      -2.776  -6.373  -1.337  0.00  0.00    -0.264 N 
ATOM     20  H   UNL     1      -3.157  -5.575  -0.938  0.00  0.00    +0.194 HD
BRANCH  19  21
ATOM     21  O   UNL     1      -1.454  -6.764  -1.016  0.00  0.00    -0.265 OA
BRANCH  21  22
ATOM     22  C   UNL     1      -0.798  -5.893  -0.092  0.00  0.00    +0.288 C 
BRANCH  22  31
ATOM     23  C   UNL     1       4.424  -6.575   3.140  0.00  0.00    +0.039 C 
ATOM     24  C   UNL     1       2.959  -6.270   2.821  0.00  0.00    +0.133 C 
ATOM     25  C   UNL     1       2.768  -6.212   1.301  0.00  0.00    +0.139 C 
ATOM     26  N   UNL     1       1.404  -5.734   1.023  0.00  0.00    -0.295 N 
ATOM     27  C   UNL     1       0.949  -4.508   1.697  0.00  0.00    +0.139 C 
ATOM     28  C   UNL     1       1.230  -4.649   3.198  0.00  0.00    +0.133 C 
ATOM     29  O   UNL     1       2.600  -5.008   3.390  0.00  0.00    -0.371 OA
ATOM     30  C   UNL     1       0.947  -3.318   3.898  0.00  0.00    +0.039 C 
ATOM     31  C   UNL     1       0.595  -6.401   0.176  0.00  0.00    +0.244 C 
ATOM     32  O   UNL     1       0.987  -7.410  -0.370  0.00  0.00    -0.273 OA
ENDBRANCH  22  31
ENDBRANCH  21  22
ENDBRANCH  19  21
ENDBRANCH   1  19
TORSDOF 5
