REMARK  Name = ZINC01680531
REMARK  7 active torsions:
REMARK  status: ('A' for Active; 'I' for Inactive)
REMARK    1  A    between atoms: C_1  and  C_2
REMARK    2  A    between atoms: C_2  and  C_3
REMARK    3  A    between atoms: C_2  and  C_4
REMARK    4  A    between atoms: C_2  and  C_5
REMARK    5  A    between atoms: N_14  and  N_18
REMARK    6  A    between atoms: N_18  and  C_19
REMARK    7  A    between atoms: N_18  and  C_20
REMARK                            x       y       z     vdW  Elec       q    Type
REMARK                         _______ _______ _______ _____ _____    ______ ____
ROOT
ATOM      1  C   UNL     1       3.190   3.138   2.747  0.00  0.00    -0.006 C 
ATOM      2  C   UNL     1       1.907   2.309   2.850  0.00  0.00    +0.004 C 
ATOM      3  C   UNL     1       0.757   3.065   2.182  0.00  0.00    +0.008 C 
ATOM      4  C   UNL     1       1.094   3.308   0.710  0.00  0.00    -0.013 C 
ATOM      5  C   UNL     1       2.377   4.133   0.604  0.00  0.00    +0.008 C 
ATOM      6  C   UNL     1       3.526   3.377   1.274  0.00  0.00    +0.004 C 
ATOM      7  C   UNL     1       1.288   1.964   0.000  0.00  0.00    +0.105 C 
ATOM      8  C   UNL     1      -0.014   1.208   0.009  0.00  0.00    +0.236 C 
ATOM      9  O   UNL     1       0.002  -0.004   0.002  0.00  0.00    -0.274 OA
ATOM     10  N   UNL     1      -1.192   1.850   0.018  0.00  0.00    -0.171 N 
ATOM     11  C   UNL     1      -1.287   3.188   0.043  0.00  0.00    +0.236 C 
ATOM     12  O   UNL     1      -2.382   3.706   0.065  0.00  0.00    -0.274 OA
ATOM     13  C   UNL     1      -0.058   4.059   0.036  0.00  0.00    +0.105 C 
ENDROOT
BRANCH   1  15
ATOM     14  C   UNL     1       4.543   1.038   2.716  0.00  0.00    +0.011 C 
ATOM     15  C   UNL     1       4.340   2.382   3.417  0.00  0.00    -0.035 C 
ATOM     16  C   UNL     1       5.622   3.211   3.314  0.00  0.00    +0.011 C 
ATOM     17  C   UNL     1       4.004   2.144   4.890  0.00  0.00    +0.011 C 
ENDBRANCH   1  15
BRANCH  10  18
ATOM     18  N   UNL     1      -2.341   1.111   0.007  0.00  0.00    -0.224 NA
ATOM     19  C   UNL     1      -3.155   1.387   1.199  0.00  0.00    +0.128 C 
ATOM     20  C   UNL     1      -3.110   1.351  -1.222  0.00  0.00    +0.128 C 
ENDBRANCH  10  18
TORSDOF 2
