REMARK  Name = ZINC66967108
REMARK  5 active torsions:
REMARK  status: ('A' for Active; 'I' for Inactive)
REMARK    1  A    between atoms: C_1  and  C_2
REMARK    2  A    between atoms: C_4  and  C_19
REMARK    3  A    between atoms: C_7  and  N_8
REMARK    4  A    between atoms: C_16  and  C_18
REMARK    5  A    between atoms: C_26  and  C_28
REMARK                            x       y       z     vdW  Elec       q    Type
REMARK                         _______ _______ _______ _____ _____    ______ ____
ROOT
ATOM      1  C   UNL     1      -1.273   1.623  -0.095  0.00  0.00    +0.045 C 
ATOM      2  C   UNL     1      -0.761   0.206  -0.140  0.00  0.00    -0.028 A 
ATOM      3  C   UNL     1      -0.967  -0.564  -1.262  0.00  0.00    +0.018 A 
ATOM      4  C   UNL     1      -0.492  -1.878  -1.303  0.00  0.00    +0.037 A 
ATOM      5  C   UNL     1       0.192  -2.405  -0.204  0.00  0.00    +0.015 A 
ATOM      6  C   UNL     1       0.394  -1.630   0.915  0.00  0.00    +0.024 A 
ATOM      7  C   UNL     1      -0.076  -0.320   0.951  0.00  0.00    +0.038 A 
ENDROOT
BRANCH   7   8
ATOM      8  N   UNL     1       0.136   0.464   2.083  0.00  0.00    -0.269 N 
ATOM      9  C   UNL     1       1.125   0.153   2.944  0.00  0.00    +0.307 C 
ATOM     10  O   UNL     1       1.902  -0.745   2.678  0.00  0.00    -0.252 OA
ATOM     11  N   UNL     1       1.255   0.836   4.098  0.00  0.00    -0.283 N 
ATOM     12  C   UNL     1       0.403   2.000   4.379  0.00  0.00    +0.109 C 
ATOM     13  C   UNL     1      -0.281   1.795   5.734  0.00  0.00    +0.019 C 
ATOM     14  C   UNL     1       0.782   1.522   6.801  0.00  0.00    +0.003 C 
ATOM     15  C   UNL     1       1.546   0.244   6.447  0.00  0.00    +0.022 C 
ATOM     16  C   UNL     1       2.246   0.428   5.103  0.00  0.00    +0.074 C 
ATOM     17  C   UNL     1       2.892  -0.893   4.679  0.00  0.00    +0.028 C 
ATOM     18  H   UNL     1      -0.429   1.234   2.253  0.00  0.00    +0.156 HD
ENDBRANCH   7   8
BRANCH   4  19
ATOM     19  C   UNL     1      -0.711  -2.706  -2.505  0.00  0.00    +0.247 C 
ATOM     20  O   UNL     1      -0.637  -2.206  -3.610  0.00  0.00    -0.270 OA
ATOM     21  N   UNL     1      -0.993  -4.018  -2.376  0.00  0.00    -0.295 N 
ATOM     22  C   UNL     1      -1.187  -4.615  -1.048  0.00  0.00    +0.108 C 
ATOM     23  C   UNL     1      -2.535  -5.343  -1.027  0.00  0.00    +0.019 C 
ATOM     24  C   UNL     1      -2.587  -6.346  -2.182  0.00  0.00    +0.003 C 
ATOM     25  C   UNL     1      -2.460  -5.602  -3.513  0.00  0.00    +0.022 C 
ATOM     26  C   UNL     1      -1.117  -4.877  -3.562  0.00  0.00    +0.073 C 
ATOM     27  C   UNL     1      -1.047  -4.018  -4.827  0.00  0.00    +0.028 C 
ENDBRANCH   4  19
TORSDOF 2
