REMARK  Name = ZINC12496941
REMARK  7 active torsions:
REMARK  status: ('A' for Active; 'I' for Inactive)
REMARK    1  A    between atoms: C_1  and  O_2
REMARK    2  A    between atoms: O_2  and  C_3
REMARK    3  A    between atoms: C_3  and  C_5
REMARK    4  A    between atoms: C_5  and  C_28
REMARK    5  A    between atoms: C_10  and  C_12
REMARK    6  A    between atoms: N_19  and  C_22
REMARK    7  A    between atoms: C_28  and  C_29
REMARK                            x       y       z     vdW  Elec       q    Type
REMARK                         _______ _______ _______ _____ _____    ______ ____
ROOT
ATOM      1  C   UNL     1       2.922   0.806  -1.464  0.00  0.00    +0.048 C 
ATOM      2  C   UNL     1       4.256   0.154  -1.505  0.00  0.00    +0.086 C 
ATOM      3  C   UNL     1       4.783   0.631  -2.916  0.00  0.00    +0.078 C 
ATOM      4  C   UNL     1       4.505   2.107  -2.752  0.00  0.00    -0.020 C 
ATOM      5  C   UNL     1       6.110  -0.024  -2.875  0.00  0.00    +0.229 C 
ATOM      6  O   UNL     1       7.152   0.397  -3.330  0.00  0.00    -0.275 OA
ATOM      7  N   UNL     1       5.909  -1.207  -2.214  0.00  0.00    -0.210 N 
ATOM      8  C   UNL     1       4.716  -1.235  -1.536  0.00  0.00    +0.229 C 
ATOM      9  O   UNL     1       4.153  -2.203  -1.070  0.00  0.00    -0.275 OA
ATOM     10  N   UNL     1       3.127   2.100  -2.175  0.00  0.00    +0.396 N 
ATOM     11  H   UNL     1       3.024   2.880  -1.514  0.00  0.00    -0.083 HD
ATOM     12  H   UNL     1       2.435   2.196  -2.927  0.00  0.00    -0.083 HD
ENDROOT
BRANCH   7  13
ATOM     13  C   UNL     1       6.821  -2.271  -2.228  0.00  0.00    +0.044 A 
ATOM     14  C   UNL     1       6.543  -3.435  -1.525  0.00  0.00    +0.024 A 
ATOM     15  C   UNL     1       7.442  -4.484  -1.545  0.00  0.00    +0.002 A 
ATOM     16  C   UNL     1       8.623  -4.371  -2.256  0.00  0.00    +0.000 A 
ATOM     17  C   UNL     1       8.905  -3.211  -2.953  0.00  0.00    +0.002 A 
ATOM     18  C   UNL     1       8.008  -2.160  -2.941  0.00  0.00    +0.024 A 
ENDBRANCH   7  13
BRANCH   4  19
ATOM     19  C   UNL     1       4.534   2.812  -4.084  0.00  0.00    -0.023 A 
ATOM     20  C   UNL     1       5.483   3.634  -4.594  0.00  0.00    +0.009 A 
ATOM     21  C   UNL     1       5.298   4.172  -5.854  0.00  0.00    +0.008 A 
ATOM     22  C   UNL     1       4.167   3.869  -6.538  0.00  0.00    +0.045 A 
ATOM     23  S   UNL     1       3.323   2.788  -5.396  0.00  0.00    -0.103 S 
ENDBRANCH   4  19
BRANCH   1  24
ATOM     24  C   UNL     1       1.900  -0.037  -2.182  0.00  0.00    +0.297 C 
ATOM     25  O   UNL     1       2.052  -1.233  -2.262  0.00  0.00    -0.252 OA
BRANCH  24  27
ATOM     26  C   UNL     1      -0.122  -0.333  -3.408  0.00  0.00    +0.280 C 
ATOM     27  O   UNL     1       0.821   0.541  -2.732  0.00  0.00    -0.469 OA
ENDBRANCH  24  27
ENDBRANCH   1  24
BRANCH   1  28
ATOM     28  C   UNL     1       2.490   1.048  -0.016  0.00  0.00    +0.034 C 
BRANCH  28  29
ATOM     29  C   UNL     1       1.175   1.783   0.000  0.00  0.00    -0.048 A 
ATOM     30  C   UNL     1      -0.013   1.076   0.008  0.00  0.00    +0.003 A 
ATOM     31  C   UNL     1      -1.219   1.751   0.017  0.00  0.00    +0.000 A 
ATOM     32  C   UNL     1      -1.238   3.133   0.029  0.00  0.00    +0.000 A 
ATOM     33  C   UNL     1      -0.050   3.840   0.022  0.00  0.00    +0.000 A 
ATOM     34  C   UNL     1       1.156   3.165   0.008  0.00  0.00    +0.003 A 
ENDBRANCH  28  29
ENDBRANCH   1  28
TORSDOF 6
