REMARK  Name = ZINC12573866
REMARK  6 active torsions:
REMARK  status: ('A' for Active; 'I' for Inactive)
REMARK    1  A    between atoms: C_1  and  O_2
REMARK    2  A    between atoms: O_2  and  C_3
REMARK    3  A    between atoms: C_6  and  C_10
REMARK    4  A    between atoms: N_12  and  N_13
REMARK    5  A    between atoms: C_14  and  C_15
REMARK    6  A    between atoms: C_19  and  N_21
REMARK                            x       y       z     vdW  Elec       q    Type
REMARK                         _______ _______ _______ _____ _____    ______ ____
ROOT
ATOM      1  C   UNL     1      -2.519   3.868   0.048  0.00  0.00    +0.263 C 
ATOM      2  O   UNL     1      -2.533   5.084   0.054  0.00  0.00    -0.268 OA
ATOM      3  N   UNL     1      -3.678   3.180   0.056  0.00  0.00    -0.203 N 
ATOM      4  H   UNL     1      -3.667   2.210   0.050  0.00  0.00    +0.178 HD
ENDROOT
BRANCH   1   8
ATOM      5  C   UNL     1       1.182   1.786   0.000  0.00  0.00    +0.133 A 
ATOM      6  C   UNL     1      -0.013   1.076   0.008  0.00  0.00    +0.047 A 
ATOM      7  C   UNL     1      -1.215   1.747   0.017  0.00  0.00    +0.017 A 
ATOM      8  C   UNL     1      -1.233   3.144   0.031  0.00  0.00    +0.040 A 
ATOM      9  C   UNL     1      -0.030   3.855   0.023  0.00  0.00    +0.031 A 
ATOM     10  C   UNL     1       1.169   3.176   0.007  0.00  0.00    +0.056 A 
ATOM     11  I   UNL     1       2.974   4.240  -0.005  0.00  0.00    -0.040 I 
BRANCH   5  13
ATOM     12  C   UNL     1       2.306  -0.307  -0.022  0.00  0.00    +0.277 C 
ATOM     13  O   UNL     1       2.365   1.121  -0.015  0.00  0.00    -0.494 OA
ENDBRANCH   5  13
ENDBRANCH   1   8
BRANCH   3  14
ATOM     14  N   UNL     1      -4.900   3.867   0.071  0.00  0.00    -0.187 NA
ATOM     15  C   UNL     1      -6.016   3.205   0.079  0.00  0.00    +0.138 C 
BRANCH  15  16
ATOM     16  C   UNL     1      -7.301   3.927   0.096  0.00  0.00    -0.003 A 
ATOM     17  C   UNL     1      -7.321   5.324   0.109  0.00  0.00    +0.011 A 
ATOM     18  C   UNL     1      -8.526   5.994   0.118  0.00  0.00    +0.023 A 
ATOM     19  C   UNL     1      -9.716   5.285   0.126  0.00  0.00    +0.071 A 
ATOM     20  C   UNL     1      -9.704   3.900   0.119  0.00  0.00    +0.145 A 
ATOM     21  C   UNL     1      -8.505   3.218   0.104  0.00  0.00    +0.043 A 
ATOM     22 CL   UNL     1     -11.229   6.135   0.146  0.00  0.00    -0.081 Cl
BRANCH  20  23
ATOM     23  N   UNL     1     -10.980   3.150   0.128  0.00  0.00    +0.058 N 
ATOM     24  O   UNL     1     -10.970   1.932   0.121  0.00  0.00    -0.126 OA
ATOM     25  O   UNL     1     -12.039   3.751   0.141  0.00  0.00    -0.126 OA
ENDBRANCH  20  23
ENDBRANCH  15  16
ENDBRANCH   3  14
TORSDOF 5
