REMARK  Name = ZINC45439155
REMARK  2 active torsions:
REMARK  status: ('A' for Active; 'I' for Inactive)
REMARK    1  A    between atoms: C_3  and  C_22
REMARK    2  A    between atoms: C_6  and  N_9
REMARK                            x       y       z     vdW  Elec       q    Type
REMARK                         _______ _______ _______ _____ _____    ______ ____
ROOT
ATOM      1  N   UNL     1       0.740  -1.962  -1.269  0.00  0.00    -0.296 N 
ATOM      2  C   UNL     1      -0.315  -2.648  -1.752  0.00  0.00    +0.302 C 
ATOM      3  O   UNL     1      -1.319  -2.055  -2.096  0.00  0.00    -0.253 OA
ATOM      4  N   UNL     1      -0.257  -3.991  -1.853  0.00  0.00    -0.285 N 
ATOM      5  C   UNL     1      -1.349  -4.742  -2.487  0.00  0.00    +0.114 C 
ATOM      6  C   UNL     1      -1.829  -5.827  -1.518  0.00  0.00    +0.084 C 
ATOM      7  C   UNL     1      -0.637  -6.685  -1.088  0.00  0.00    +0.173 C 
ATOM      8  C   UNL     1       0.399  -5.816  -0.373  0.00  0.00    +0.084 C 
ATOM      9  C   UNL     1       0.902  -4.731  -1.336  0.00  0.00    +0.114 C 
ATOM     10  O   UNL     1      -0.042  -7.295  -2.241  0.00  0.00    -0.346 OA
ATOM     11  C   UNL     1      -0.142  -8.723  -2.069  0.00  0.00    +0.191 C 
ATOM     12  C   UNL     1      -1.296  -8.873  -1.047  0.00  0.00    +0.191 C 
ATOM     13  O   UNL     1      -1.090  -7.718  -0.198  0.00  0.00    -0.346 OA
ATOM     14  H   UNL     1       1.513  -2.438  -0.927  0.00  0.00    +0.151 HD
ENDROOT
BRANCH   1  19
ATOM     15  C   UNL     1      -0.013   1.526   0.010  0.00  0.00    +0.002 C 
ATOM     16  C   UNL     1       1.422   2.056  -0.007  0.00  0.00    +0.012 C 
ATOM     17  C   UNL     1       2.133   1.563  -1.269  0.00  0.00    +0.095 C 
ATOM     18  C   UNL     1       2.154   0.033  -1.278  0.00  0.00    +0.034 C 
ATOM     19  C   UNL     1       0.719  -0.497  -1.261  0.00  0.00    +0.075 C 
ATOM     20  C   UNL     1       0.008  -0.004   0.001  0.00  0.00    +0.022 C 
BRANCH  17  21
ATOM     21  C   UNL     1       3.568   2.093  -1.286  0.00  0.00    +0.393 C 
ATOM     22  F   UNL     1       4.250   1.630  -0.155  0.00  0.00    -0.170 F 
ATOM     23  F   UNL     1       4.218   1.642  -2.439  0.00  0.00    -0.170 F 
ATOM     24  F   UNL     1       3.549   3.492  -1.278  0.00  0.00    -0.170 F 
ENDBRANCH  17  21
ENDBRANCH   1  19
TORSDOF 2
