REMARK  Name = ZINC15612134
REMARK  3 active torsions:
REMARK  status: ('A' for Active; 'I' for Inactive)
REMARK    1  A    between atoms: C_3  and  S_8
REMARK    2  A    between atoms: S_8  and  N_11
REMARK    3  A    between atoms: C_15  and  C_18
REMARK                            x       y       z     vdW  Elec       q    Type
REMARK                         _______ _______ _______ _____ _____    ______ ____
ROOT
ATOM      1  N   UNL     1       5.375   2.829  -1.859  0.00  0.00    -0.176 NA
ATOM      2  C   UNL     1       5.828   3.638  -0.720  0.00  0.00    +0.109 C 
ATOM      3  C   UNL     1       4.812   4.757  -0.475  0.00  0.00    +0.018 C 
ATOM      4  C   UNL     1       3.419   4.147  -0.298  0.00  0.00    +0.015 C 
ATOM      5  C   UNL     1       3.021   3.404  -1.575  0.00  0.00    +0.091 C 
ATOM      6  C   UNL     1       4.017   2.269  -1.833  0.00  0.00    +0.122 C 
ENDROOT
BRANCH   5   7
ATOM      7  C   UNL     1       1.636   2.831  -1.412  0.00  0.00    +0.220 C 
ATOM      8  O   UNL     1       1.488   1.636  -1.267  0.00  0.00    -0.275 OA
ATOM      9  N   UNL     1       0.563   3.646  -1.427  0.00  0.00    -0.298 N 
ATOM     10  C   UNL     1       0.715   5.084  -1.694  0.00  0.00    +0.108 C 
ATOM     11  C   UNL     1       0.040   5.871  -0.566  0.00  0.00    +0.019 C 
ATOM     12  C   UNL     1      -1.410   5.405  -0.414  0.00  0.00    +0.007 C 
ATOM     13  C   UNL     1      -1.426   3.917  -0.042  0.00  0.00    +0.010 C 
ATOM     14  C   UNL     1      -0.784   3.119  -1.179  0.00  0.00    +0.079 C 
ATOM     15  C   UNL     1      -0.710   1.640  -0.814  0.00  0.00    +0.023 C 
ATOM     16  C   UNL     1       0.101   1.461   0.471  0.00  0.00    +0.002 C 
ATOM     17  C   UNL     1      -0.573   2.237   1.605  0.00  0.00    +0.000 C 
ATOM     18  C   UNL     1      -0.619   3.721   1.243  0.00  0.00    +0.005 C 
ENDBRANCH   5   7
BRANCH   1  19
ATOM     19  S   UNL     1       6.375   2.553  -3.150  0.00  0.00    +0.061 S 
ATOM     20  O   UNL     1       7.705   2.706  -2.672  0.00  0.00    -0.153 OA
ATOM     21  O   UNL     1       5.921   1.357  -3.769  0.00  0.00    -0.153 OA
BRANCH  19  24
ATOM     22  C   UNL     1       6.643   6.032  -5.141  0.00  0.00    +0.040 A 
ATOM     23  C   UNL     1       6.855   5.012  -4.234  0.00  0.00    +0.031 A 
ATOM     24  C   UNL     1       6.104   3.854  -4.307  0.00  0.00    +0.106 A 
ATOM     25  C   UNL     1       5.143   3.713  -5.291  0.00  0.00    +0.031 A 
ATOM     26  C   UNL     1       4.925   4.734  -6.196  0.00  0.00    +0.040 A 
ATOM     27  C   UNL     1       5.677   5.895  -6.124  0.00  0.00    +0.124 A 
ATOM     28  F   UNL     1       5.469   6.892  -7.011  0.00  0.00    -0.205 F 
ENDBRANCH  19  24
ENDBRANCH   1  19
TORSDOF 3
