REMARK  Name = ZINC36697159
REMARK  4 active torsions:
REMARK  status: ('A' for Active; 'I' for Inactive)
REMARK    1  A    between atoms: C_1  and  C_2
REMARK    2  A    between atoms: C_5  and  C_25
REMARK    3  A    between atoms: C_10  and  C_12
REMARK    4  A    between atoms: C_15  and  C_24
REMARK                            x       y       z     vdW  Elec       q    Type
REMARK                         _______ _______ _______ _____ _____    ______ ____
ROOT
ATOM      1  C   UNL     1       1.919   1.022   3.341  0.00  0.00    +0.109 C 
ATOM      2  C   UNL     1       1.232   2.346   3.009  0.00  0.00    +0.039 C 
ATOM      3  C   UNL     1       0.576   2.897   4.282  0.00  0.00    +0.068 C 
ATOM      4  N   UNL     1       1.643   3.173   5.254  0.00  0.00    -0.341 N 
ATOM      5  C   UNL     1       2.655   2.224   5.435  0.00  0.00    +0.031 A 
ATOM      6  C   UNL     1       2.820   1.181   4.537  0.00  0.00    -0.015 A 
ATOM      7  C   UNL     1       3.833   0.259   4.739  0.00  0.00    +0.006 A 
ATOM      8  C   UNL     1       4.673   0.375   5.830  0.00  0.00    +0.000 A 
ATOM      9  C   UNL     1       4.508   1.415   6.726  0.00  0.00    +0.002 A 
ATOM     10  C   UNL     1       3.502   2.337   6.532  0.00  0.00    +0.023 A 
ATOM     11  C   UNL     1      -0.179   4.188   3.960  0.00  0.00    +0.028 C 
ATOM     12  H   UNL     1       1.647   4.000   5.761  0.00  0.00    +0.146 HD
ENDROOT
BRANCH   1  20
ATOM     13  C   UNL     1      -0.164   1.089   0.053  0.00  0.00    +0.009 C 
ATOM     14  C   UNL     1       0.008  -0.428   0.156  0.00  0.00    +0.004 C 
ATOM     15  C   UNL     1       0.732  -0.946  -1.089  0.00  0.00    +0.009 C 
ATOM     16  C   UNL     1       2.093  -0.258  -1.213  0.00  0.00    +0.004 C 
ATOM     17  C   UNL     1       2.944  -0.594   0.016  0.00  0.00    +0.111 C 
ATOM     18  N   UNL     1       2.192  -0.231   1.225  0.00  0.00    -0.300 N 
ATOM     19  C   UNL     1       0.834  -0.766   1.401  0.00  0.00    +0.111 C 
ATOM     20  C   UNL     1       2.738   0.577   2.157  0.00  0.00    +0.223 C 
ATOM     21  O   UNL     1       3.888   0.945   2.042  0.00  0.00    -0.275 OA
ATOM     22  C   UNL     1       2.802  -0.751  -2.476  0.00  0.00    +0.009 C 
ENDBRANCH   1  20
TORSDOF 1
