REMARK  Name = ZINC37375653
REMARK  5 active torsions:
REMARK  status: ('A' for Active; 'I' for Inactive)
REMARK    1  A    between atoms: C_1  and  C_2
REMARK    2  A    between atoms: C_6  and  N_8
REMARK    3  A    between atoms: C_9  and  N_26
REMARK    4  A    between atoms: C_11  and  C_21
REMARK    5  A    between atoms: N_17  and  C_18
REMARK                            x       y       z     vdW  Elec       q    Type
REMARK                         _______ _______ _______ _____ _____    ______ ____
ROOT
ATOM      1  N   UNL     1      -0.281  -2.694   2.571  0.00  0.00    -0.216 N 
ATOM      2  C   UNL     1      -0.623  -3.994   2.667  0.00  0.00    +0.131 A 
ATOM      3  C   UNL     1      -0.079  -4.483   3.848  0.00  0.00    +0.086 A 
ATOM      4  C   UNL     1      -0.067  -5.728   4.518  0.00  0.00    +0.089 A 
ATOM      5  N   UNL     1       0.585  -5.814   5.673  0.00  0.00    -0.214 NA
ATOM      6  C   UNL     1       1.217  -4.774   6.207  0.00  0.00    +0.218 A 
ATOM      7  N   UNL     1       1.256  -3.581   5.651  0.00  0.00    -0.193 NA
ATOM      8  C   UNL     1       0.635  -3.357   4.476  0.00  0.00    +0.189 A 
ATOM      9  N   UNL     1       0.490  -2.322   3.678  0.00  0.00    -0.144 NA
ATOM     10  N   UNL     1       1.869  -4.955   7.413  0.00  0.00    -0.311 N 
ATOM     11  H   UNL     1       1.857  -5.823   7.846  0.00  0.00    +0.149 HD
ENDROOT
BRANCH   1  17
ATOM     12  C   UNL     1      -1.547   1.787   0.990  0.00  0.00    +0.044 C 
ATOM     13  C   UNL     1      -1.258   0.332   0.723  0.00  0.00    -0.048 A 
ATOM     14  C   UNL     1      -1.347  -0.165  -0.565  0.00  0.00    +0.003 A 
ATOM     15  C   UNL     1      -1.083  -1.499  -0.814  0.00  0.00    +0.002 A 
ATOM     16  C   UNL     1      -0.729  -2.340   0.223  0.00  0.00    +0.028 A 
ATOM     17  C   UNL     1      -0.639  -1.844   1.517  0.00  0.00    +0.068 A 
ATOM     18  C   UNL     1      -0.900  -0.502   1.764  0.00  0.00    +0.031 A 
ENDBRANCH   1  17
BRANCH   4  19
ATOM     19  C   UNL     1      -0.760  -6.902   3.950  0.00  0.00    +0.008 A 
ATOM     20  C   UNL     1      -1.578  -7.708   4.746  0.00  0.00    +0.017 A 
ATOM     21  C   UNL     1      -2.167  -8.756   4.130  0.00  0.00    +0.046 A 
ATOM     22  S   UNL     1      -1.574  -8.602   2.458  0.00  0.00    -0.104 S 
ATOM     23  C   UNL     1      -0.625  -7.227   2.631  0.00  0.00    +0.055 A 
ENDBRANCH   4  19
BRANCH  10  24
ATOM     24  C   UNL     1       2.579  -3.835   8.037  0.00  0.00    +0.073 C 
ATOM     25  C   UNL     1       3.962  -4.116   8.628  0.00  0.00    +0.024 C 
ATOM     26  C   UNL     1       2.768  -3.876   9.555  0.00  0.00    +0.024 C 
ENDBRANCH  10  24
BRANCH   2  27
ATOM     27  N   UNL     1      -1.377  -4.711   1.757  0.00  0.00    -0.342 N 
ATOM     28  H   UNL     1      -1.575  -4.332   0.886  0.00  0.00    +0.144 HD
ATOM     29  H   UNL     1      -1.708  -5.592   1.989  0.00  0.00    +0.144 HD
ENDBRANCH   2  27
TORSDOF 4
