REMARK  Name = ZINC08894450
REMARK  4 active torsions:
REMARK  status: ('A' for Active; 'I' for Inactive)
REMARK    1  A    between atoms: C_4  and  N_7
REMARK    2  A    between atoms: N_7  and  C_8
REMARK    3  A    between atoms: C_16  and  C_18
REMARK    4  A    between atoms: C_18  and  N_19
REMARK                            x       y       z     vdW  Elec       q    Type
REMARK                         _______ _______ _______ _____ _____    ______ ____
ROOT
ATOM      1  C   UNL     1      -3.033  -1.958  -1.047  0.00  0.00    +0.214 C 
ENDROOT
BRANCH   1   2
ATOM      2  N   UNL     1      -1.758  -1.243  -0.958  0.00  0.00    -0.215 N 
ATOM      3  C   UNL     1      -1.356  -0.541   0.122  0.00  0.00    +0.252 C 
ATOM      4  O   UNL     1      -1.958  -0.387   1.163  0.00  0.00    -0.272 OA
ATOM      5  C   UNL     1       0.002   0.015  -0.240  0.00  0.00    +0.144 C 
ATOM      6  C   UNL     1      -0.026   1.540  -0.222  0.00  0.00    +0.081 C 
ATOM      7  C   UNL     1       1.418   2.051  -0.327  0.00  0.00    +0.232 C 
ATOM      8  O   UNL     1       2.136   1.621   0.830  0.00  0.00    -0.492 OA
ATOM      9  C   UNL     1       2.059   0.311   1.179  0.00  0.00    +0.126 A 
ATOM     10  C   UNL     1       1.050  -0.510   0.701  0.00  0.00    +0.027 A 
ATOM     11  C   UNL     1       1.001  -1.837   1.093  0.00  0.00    +0.010 A 
ATOM     12  C   UNL     1       1.953  -2.347   1.953  0.00  0.00    +0.001 A 
ATOM     13  C   UNL     1       2.964  -1.531   2.428  0.00  0.00    +0.004 A 
ATOM     14  C   UNL     1       3.018  -0.207   2.042  0.00  0.00    +0.046 A 
ATOM     15  N   UNL     1       0.239  -0.480  -1.602  0.00  0.00    -0.281 N 
ATOM     16  C   UNL     1      -0.846  -1.205  -1.937  0.00  0.00    +0.310 C 
ATOM     17  O   UNL     1      -0.981  -1.763  -3.008  0.00  0.00    -0.252 OA
ATOM     18  H   UNL     1       1.021  -0.316  -2.151  0.00  0.00    +0.152 HD
ENDBRANCH   1   2
BRANCH   1  20
ATOM     19  N   UNL     1      -3.919  -4.187  -0.443  0.00  0.00    -0.265 N 
ATOM     20  C   UNL     1      -2.853  -3.369  -0.549  0.00  0.00    +0.238 C 
ATOM     21  O   UNL     1      -1.749  -3.769  -0.243  0.00  0.00    -0.273 OA
BRANCH  19  22
ATOM     22  C   UNL     1      -5.226  -3.756  -0.945  0.00  0.00    +0.104 C 
ATOM     23  C   UNL     1      -5.648  -4.646  -2.126  0.00  0.00    +0.047 C 
ATOM     24  C   UNL     1      -7.143  -4.414  -2.453  0.00  0.00    +0.168 C 
ATOM     25  S   UNL     1      -7.838  -3.909  -0.827  0.00  0.00    -0.029 S 
ATOM     26  O   UNL     1      -8.331  -2.580  -0.927  0.00  0.00    -0.174 OA
ATOM     27  O   UNL     1      -8.695  -4.938  -0.350  0.00  0.00    -0.174 OA
ATOM     28  C   UNL     1      -6.293  -3.902   0.177  0.00  0.00    +0.188 C 
ENDBRANCH  19  22
BRANCH  19  32
ATOM     29  C   UNL     1      -3.496  -7.943   1.311  0.00  0.00    +0.000 A 
ATOM     30  C   UNL     1      -2.445  -7.044   1.343  0.00  0.00    +0.002 A 
ATOM     31  C   UNL     1      -2.582  -5.798   0.762  0.00  0.00    +0.023 A 
ATOM     32  C   UNL     1      -3.777  -5.449   0.146  0.00  0.00    +0.037 A 
ATOM     33  C   UNL     1      -4.832  -6.351   0.121  0.00  0.00    +0.023 A 
ATOM     34  C   UNL     1      -4.687  -7.597   0.699  0.00  0.00    +0.002 A 
ENDBRANCH  19  32
ENDBRANCH   1  20
TORSDOF 4
