REMARK  Name = ZINC48286348
REMARK  8 active torsions:
REMARK  status: ('A' for Active; 'I' for Inactive)
REMARK    1  A    between atoms: C_1  and  C_2
REMARK    2  A    between atoms: C_12  and  C_14
REMARK    3  A    between atoms: C_14  and  O_15
REMARK    4  A    between atoms: O_15  and  C_16
REMARK    5  A    between atoms: C_16  and  C_18
REMARK    6  A    between atoms: C_25  and  C_32
REMARK    7  A    between atoms: N_27  and  S_28
REMARK    8  A    between atoms: S_28  and  C_31
REMARK                            x       y       z     vdW  Elec       q    Type
REMARK                         _______ _______ _______ _____ _____    ______ ____
ROOT
ATOM      1  C   UNL     1       1.302  -0.928   5.929  0.00  0.00    +0.340 C 
ATOM      2  O   UNL     1       2.305  -1.606   5.827  0.00  0.00    -0.245 OA
ENDROOT
BRANCH   1   3
ATOM      3  C   UNL     1       0.779  -0.584   7.264  0.00  0.00    +0.059 A 
ATOM      4  C   UNL     1      -0.379   0.191   7.388  0.00  0.00    +0.017 A 
ATOM      5  C   UNL     1      -0.862   0.508   8.622  0.00  0.00    +0.026 A 
ATOM      6  C   UNL     1      -0.210   0.065   9.779  0.00  0.00    +0.054 A 
ATOM      7  C   UNL     1       0.940  -0.706   9.657  0.00  0.00    -0.022 A 
ATOM      8  C   UNL     1       1.433  -1.035   8.414  0.00  0.00    +0.020 A 
ATOM      9  C   UNL     1       1.438  -1.047  11.043  0.00  0.00    +0.061 C 
ATOM     10  C   UNL     1       0.429  -0.376  11.989  0.00  0.00    +0.099 C 
ATOM     11  N   UNL     1      -0.543   0.281  11.111  0.00  0.00    -0.204 N 
ATOM     12  C   UNL     1       1.133   0.658  12.870  0.00  0.00    +0.030 C 
BRANCH  11  13
ATOM     13  S   UNL     1      -1.850   1.154  11.631  0.00  0.00    +0.043 S 
ATOM     14  O   UNL     1      -1.482   1.626  12.919  0.00  0.00    -0.155 OA
ATOM     15  O   UNL     1      -2.120   2.066  10.575  0.00  0.00    -0.155 OA
ATOM     16  C   UNL     1      -3.195  -0.056  11.770  0.00  0.00    +0.218 C 
ENDBRANCH  11  13
ENDBRANCH   1   3
BRANCH   1  17
ATOM     17  O   UNL     1       0.668  -0.491   4.824  0.00  0.00    -0.452 OA
BRANCH  17  18
ATOM     18  C   UNL     1       1.231  -0.862   3.564  0.00  0.00    +0.328 C 
BRANCH  18  29
ATOM     19  C   UNL     1      -0.019   1.526   0.010  0.00  0.00    +0.029 C 
ATOM     20  C   UNL     1       0.002  -0.004   0.002  0.00  0.00    +0.083 C 
ATOM     21  C   UNL     1       0.778  -0.520  -1.221  0.00  0.00    +0.059 C 
ATOM     22  C   UNL     1       1.932  -1.304  -0.637  0.00  0.00    -0.024 A 
ATOM     23  C   UNL     1       2.960  -1.995  -1.249  0.00  0.00    +0.005 A 
ATOM     24  C   UNL     1       3.912  -2.643  -0.485  0.00  0.00    +0.000 A 
ATOM     25  C   UNL     1       3.833  -2.599   0.895  0.00  0.00    +0.002 A 
ATOM     26  C   UNL     1       2.809  -1.912   1.510  0.00  0.00    +0.024 A 
ATOM     27  C   UNL     1       1.844  -1.254   0.745  0.00  0.00    +0.040 A 
ATOM     28  N   UNL     1       0.735  -0.509   1.166  0.00  0.00    -0.265 N 
ATOM     29  C   UNL     1       0.393  -0.287   2.450  0.00  0.00    +0.258 C 
ATOM     30  O   UNL     1      -0.589   0.375   2.711  0.00  0.00    -0.271 OA
ENDBRANCH  18  29
ENDBRANCH  17  18
ENDBRANCH   1  17
TORSDOF 5
