REMARK  Name = ZINC66248198
REMARK  3 active torsions:
REMARK  status: ('A' for Active; 'I' for Inactive)
REMARK    1  A    between atoms: C_1  and  N_2
REMARK    2  A    between atoms: N_10  and  S_11
REMARK    3  A    between atoms: S_11  and  C_14
REMARK                            x       y       z     vdW  Elec       q    Type
REMARK                         _______ _______ _______ _____ _____    ______ ____
ROOT
ATOM      1  S   UNL     1       2.083  -6.340   2.886  0.00  0.00    +0.103 S 
ATOM      2  O   UNL     1       3.293  -6.036   2.206  0.00  0.00    -0.146 OA
ATOM      3  O   UNL     1       1.764  -5.790   4.157  0.00  0.00    -0.146 OA
ENDROOT
BRANCH   1  13
ATOM      4  C   UNL     1      -0.018   1.465   0.010  0.00  0.00    +0.105 C 
ATOM      5  N   UNL     1       0.002  -0.004   0.002  0.00  0.00    -0.300 NA
ATOM      6  C   UNL     1      -1.363  -0.550   0.029  0.00  0.00    +0.090 C 
ATOM      7  C   UNL     1      -1.342  -2.034  -0.341  0.00  0.00    +0.069 C 
ATOM      8  C   UNL     1      -0.319  -2.738   0.549  0.00  0.00    +0.030 A 
ATOM      9  C   UNL     1       0.611  -2.011   1.185  0.00  0.00    +0.026 A 
ATOM     10  S   UNL     1       1.559  -3.212   2.080  0.00  0.00    -0.052 S 
ATOM     11  C   UNL     1       0.654  -4.661   1.555  0.00  0.00    +0.192 A 
ATOM     12  N   UNL     1      -0.299  -4.101   0.737  0.00  0.00    -0.336 N 
ATOM     13  N   UNL     1       0.848  -5.919   1.866  0.00  0.00    -0.103 NA
ATOM     14  C   UNL     1       0.789  -0.528   1.134  0.00  0.00    +0.128 C 
ATOM     15  H   UNL     1      -0.954  -4.664   0.295  0.00  0.00    +0.168 HD
ENDBRANCH   1  13
BRANCH   1  16
ATOM     16  C   UNL     1       2.034  -8.092   3.069  0.00  0.00    +0.139 A 
ATOM     17  C   UNL     1       2.973  -8.963   2.671  0.00  0.00    +0.114 A 
ATOM     18  N   UNL     1       2.587 -10.240   2.982  0.00  0.00    -0.344 N 
ATOM     19  H   UNL     1       3.103 -11.039   2.792  0.00  0.00    +0.167 HD
ATOM     20  C   UNL     1       1.361 -10.222   3.602  0.00  0.00    +0.140 A 
ATOM     21  C   UNL     1       0.963  -8.874   3.689  0.00  0.00    +0.046 A 
ATOM     22  C   UNL     1      -0.258  -8.555   4.287  0.00  0.00    +0.015 A 
ATOM     23  C   UNL     1      -1.031  -9.591   4.777  0.00  0.00    +0.020 A 
ATOM     24  C   UNL     1      -0.576 -10.895   4.661  0.00  0.00    +0.113 A 
ATOM     25  N   UNL     1       0.575 -11.175   4.087  0.00  0.00    -0.237 NA
ENDBRANCH   1  16
TORSDOF 2
