REMARK  Name = ZINC09465938
REMARK  12 active torsions:
REMARK  status: ('A' for Active; 'I' for Inactive)
REMARK    1  A    between atoms: C_1  and  C_2
REMARK    2  A    between atoms: C_2  and  N_3
REMARK    3  A    between atoms: C_7  and  S_25
REMARK    4  A    between atoms: C_11  and  C_12
REMARK    5  A    between atoms: C_12  and  N_56
REMARK    6  A    between atoms: C_13  and  N_56
REMARK    7  A    between atoms: C_14  and  C_15
REMARK    8  A    between atoms: C_14  and  N_56
REMARK    9  A    between atoms: C_18  and  C_21
REMARK   10  A    between atoms: S_25  and  N_28
REMARK   11  A    between atoms: N_28  and  C_29
REMARK   12  A    between atoms: N_28  and  C_30
REMARK                            x       y       z     vdW  Elec       q    Type
REMARK                         _______ _______ _______ _____ _____    ______ ____
ROOT
ATOM      1  N   UNL     1      -0.020   1.094   2.454  0.00  0.00    -0.329 N 
ATOM      2  C   UNL     1      -0.258  -0.091   3.121  0.00  0.00    +0.069 A 
ATOM      3  C   UNL     1      -1.149  -1.140   2.941  0.00  0.00    +0.030 A 
ATOM      4  C   UNL     1      -1.129  -2.210   3.811  0.00  0.00    +0.030 A 
ATOM      5  C   UNL     1      -0.225  -2.244   4.863  0.00  0.00    +0.108 A 
ATOM      6  C   UNL     1       0.665  -1.225   5.050  0.00  0.00    +0.058 A 
ATOM      7  C   UNL     1       0.659  -0.128   4.185  0.00  0.00    +0.091 A 
ATOM      8  N   UNL     1       1.388   1.016   4.118  0.00  0.00    -0.234 NA
ATOM      9  C   UNL     1       0.990   1.730   3.106  0.00  0.00    +0.094 A 
ENDROOT
BRANCH   5  10
ATOM     10  S   UNL     1      -0.218  -3.622   5.961  0.00  0.00    +0.060 S 
ATOM     11  O   UNL     1       0.349  -3.165   7.182  0.00  0.00    -0.153 OA
ATOM     12  O   UNL     1      -1.513  -4.202   5.893  0.00  0.00    -0.153 OA
BRANCH  10  13
ATOM     13  N   UNL     1       0.835  -4.738   5.339  0.00  0.00    -0.183 NA
ATOM     14  C   UNL     1       2.249  -4.704   5.721  0.00  0.00    +0.131 C 
ATOM     15  C   UNL     1       0.353  -5.761   4.408  0.00  0.00    +0.131 C 
ENDBRANCH  10  13
ENDBRANCH   5  10
BRANCH   1  17
ATOM     16  C   UNL     1      -0.013   1.086   0.008  0.00  0.00    +0.027 C 
ATOM     17  C   UNL     1      -0.729   1.579   1.267  0.00  0.00    +0.120 C 
ENDBRANCH   1  17
BRANCH   9  18
ATOM     18  C   UNL     1       1.565   3.066   2.713  0.00  0.00    -0.003 C 
BRANCH  18  20
ATOM     19  C   UNL     1      -0.563   4.202   2.926  0.00  0.00    -0.095 C 
ATOM     20  N   UNL     1       0.827   4.131   3.425  0.00  0.00    +0.385 N 
ATOM     21  H   UNL     1       0.810   3.912   4.428  0.00  0.00    -0.081 HD
BRANCH  20  22
ATOM     22  C   UNL     1       1.501   5.431   3.228  0.00  0.00    -0.043 C 
BRANCH  22  23
ATOM     23  C   UNL     1       0.863   6.452   4.135  0.00  0.00    -0.064 A 
ATOM     24  C   UNL     1      -0.198   7.213   3.681  0.00  0.00    +0.002 A 
ATOM     25  C   UNL     1      -0.786   8.146   4.515  0.00  0.00    +0.012 A 
ATOM     26  C   UNL     1      -0.307   8.324   5.799  0.00  0.00    +0.055 A 
ATOM     27  C   UNL     1       0.757   7.566   6.252  0.00  0.00    +0.012 A 
ATOM     28  C   UNL     1       1.342   6.630   5.420  0.00  0.00    +0.002 A 
BRANCH  26  29
ATOM     29  C   UNL     1      -0.945   9.345   6.706  0.00  0.00    +0.417 C 
ATOM     30  F   UNL     1      -0.302  10.577   6.547  0.00  0.00    -0.166 F 
ATOM     31  F   UNL     1      -2.299   9.478   6.378  0.00  0.00    -0.166 F 
ATOM     32  F   UNL     1      -0.827   8.925   8.036  0.00  0.00    -0.166 F 
ENDBRANCH  26  29
ENDBRANCH  22  23
ENDBRANCH  20  22
ENDBRANCH  18  20
ENDBRANCH   9  18
TORSDOF 8
