REMARK  Name = ZINC67586297
REMARK  2 active torsions:
REMARK  status: ('A' for Active; 'I' for Inactive)
REMARK    1  A    between atoms: C_9  and  N_11
REMARK    2  A    between atoms: C_18  and  C_20
REMARK                            x       y       z     vdW  Elec       q    Type
REMARK                         _______ _______ _______ _____ _____    ______ ____
ROOT
ATOM      1  N   UNL     1       4.577  -0.496  -0.997  0.00  0.00    -0.292 N 
ATOM      2  C   UNL     1       5.524   0.384  -0.617  0.00  0.00    +0.306 C 
ATOM      3  O   UNL     1       5.538   0.808   0.522  0.00  0.00    -0.252 OA
ATOM      4  N   UNL     1       6.456   0.794  -1.500  0.00  0.00    -0.247 N 
ATOM      5  C   UNL     1       7.434   1.702  -1.108  0.00  0.00    +0.189 A 
ATOM      6  N   UNL     1       7.620   2.268   0.069  0.00  0.00    -0.125 NA
ATOM      7  N   UNL     1       8.563   3.082   0.277  0.00  0.00    -0.139 NA
ATOM      8  C   UNL     1       9.385   3.377  -0.710  0.00  0.00    +0.169 A 
ATOM      9  S   UNL     1       8.695   2.363  -2.010  0.00  0.00    -0.030 S 
ATOM     10  H   UNL     1       4.566  -0.835  -1.906  0.00  0.00    +0.151 HD
ATOM     11  H   UNL     1       6.445   0.456  -2.409  0.00  0.00    +0.158 HD
ENDROOT
BRANCH   1  20
ATOM     12  C   UNL     1      -0.017   1.377   0.010  0.00  0.00    +0.000 A 
ATOM     13  C   UNL     1       1.172   2.083   0.002  0.00  0.00    +0.000 A 
ATOM     14  C   UNL     1       2.376   1.406  -0.013  0.00  0.00    +0.006 A 
ATOM     15  C   UNL     1       2.396   0.021  -0.021  0.00  0.00    -0.024 A 
ATOM     16  C   UNL     1       1.208  -0.685  -0.013  0.00  0.00    -0.042 A 
ATOM     17  C   UNL     1       0.002  -0.004   0.002  0.00  0.00    +0.004 A 
ATOM     18  C   UNL     1       1.496  -2.171  -0.025  0.00  0.00    +0.037 C 
ATOM     19  C   UNL     1       2.966  -2.294  -0.480  0.00  0.00    +0.032 C 
ATOM     20  C   UNL     1       3.564  -0.942  -0.037  0.00  0.00    +0.105 C 
ENDBRANCH   1  20
BRANCH   8  21
ATOM     21  C   UNL     1      10.573   4.303  -0.734  0.00  0.00    +0.398 C 
ATOM     22  F   UNL     1      11.158   4.344   0.536  0.00  0.00    -0.202 F 
ATOM     23  F   UNL     1      11.509   3.837  -1.664  0.00  0.00    -0.202 F 
ENDBRANCH   8  21
TORSDOF 2
