REMARK  Name = ZINC66951521
REMARK  6 active torsions:
REMARK  status: ('A' for Active; 'I' for Inactive)
REMARK    1  A    between atoms: C_1  and  C_2
REMARK    2  A    between atoms: C_2  and  N_3
REMARK    3  A    between atoms: N_3  and  C_4
REMARK    4  A    between atoms: N_3  and  S_22
REMARK    5  A    between atoms: N_12  and  C_13
REMARK    6  A    between atoms: S_22  and  C_25
REMARK                            x       y       z     vdW  Elec       q    Type
REMARK                         _______ _______ _______ _____ _____    ______ ____
ROOT
ATOM      1  C   UNL     1       2.126  -0.372  -0.954  0.00  0.00    +0.082 C 
ATOM      2  C   UNL     1       2.250  -1.359   0.210  0.00  0.00    +0.039 C 
ATOM      3  C   UNL     1       3.720  -1.747   0.391  0.00  0.00    +0.111 C 
ATOM      4  N   UNL     1       4.516  -0.523   0.551  0.00  0.00    -0.285 N 
ATOM      5  C   UNL     1       4.403   0.532  -0.466  0.00  0.00    +0.111 C 
ATOM      6  C   UNL     1       2.925   0.894  -0.637  0.00  0.00    +0.039 C 
ATOM      7  C   UNL     1       5.335  -0.369   1.611  0.00  0.00    +0.307 C 
ATOM      8  O   UNL     1       5.350  -1.206   2.493  0.00  0.00    -0.252 OA
ATOM      9  N   UNL     1       6.136   0.711   1.692  0.00  0.00    -0.267 N 
ATOM     10  H   UNL     1       6.065   1.419   1.034  0.00  0.00    +0.156 HD
ENDROOT
BRANCH   9  11
ATOM     11  C   UNL     1       7.074   0.811   2.730  0.00  0.00    +0.073 A 
ATOM     12  C   UNL     1       7.441  -0.319   3.447  0.00  0.00    +0.029 A 
ATOM     13  C   UNL     1       8.365  -0.220   4.469  0.00  0.00    +0.043 A 
ATOM     14  C   UNL     1       8.927   1.006   4.780  0.00  0.00    +0.161 A 
ATOM     15  C   UNL     1       8.564   2.138   4.067  0.00  0.00    +0.195 A 
ATOM     16  C   UNL     1       7.643   2.041   3.038  0.00  0.00    +0.182 A 
ATOM     17  F   UNL     1       7.292   3.143   2.337  0.00  0.00    -0.200 F 
ATOM     18  F   UNL     1       9.113   3.334   4.372  0.00  0.00    -0.199 F 
ATOM     19  F   UNL     1       9.830   1.100   5.781  0.00  0.00    -0.202 F 
ENDBRANCH   9  11
BRANCH   1  20
ATOM     20  N   UNL     1       0.717  -0.024  -1.151  0.00  0.00    -0.179 NA
BRANCH  20  21
ATOM     21  S   UNL     1      -0.045  -0.425  -2.565  0.00  0.00    +0.029 S 
ATOM     22  O   UNL     1       0.607  -1.609  -3.006  0.00  0.00    -0.158 OA
ATOM     23  O   UNL     1      -1.429  -0.439  -2.241  0.00  0.00    -0.158 OA
ATOM     24  C   UNL     1       0.319   0.946  -3.696  0.00  0.00    +0.215 C 
ENDBRANCH  20  21
BRANCH  20  26
ATOM     25  C   UNL     1      -0.567  -0.338   0.907  0.00  0.00    +0.022 C 
ATOM     26  C   UNL     1      -0.019   0.679  -0.097  0.00  0.00    +0.106 C 
ENDBRANCH  20  26
ENDBRANCH   1  20
TORSDOF 4
