REMARK  Name = ZINC66793219
REMARK  9 active torsions:
REMARK  status: ('A' for Active; 'I' for Inactive)
REMARK    1  A    between atoms: C_1  and  C_2
REMARK    2  A    between atoms: C_2  and  C_3
REMARK    3  A    between atoms: C_2  and  C_4
REMARK    4  A    between atoms: C_7  and  C_10
REMARK    5  A    between atoms: N_12  and  C_16
REMARK    6  A    between atoms: C_16  and  N_17
REMARK    7  A    between atoms: C_21  and  C_24
REMARK    8  A    between atoms: C_24  and  N_25
REMARK    9  A    between atoms: C_26  and  C_28
REMARK                            x       y       z     vdW  Elec       q    Type
REMARK                         _______ _______ _______ _____ _____    ______ ____
ROOT
ATOM      1  C   UNL     1       2.786  -1.911   4.664  0.00  0.00    +0.247 A 
ATOM      2  N   UNL     1       2.280  -2.683   5.582  0.00  0.00    -0.131 NA
ATOM      3  N   UNL     1       3.277  -2.916   6.542  0.00  0.00    -0.240 N 
ATOM      4  C   UNL     1       4.376  -2.246   6.135  0.00  0.00    +0.265 A 
ATOM      5  S   UNL     1       5.885  -2.191   6.942  0.00  0.00    +0.011 S 
ATOM      6  O   UNL     1       4.070  -1.634   4.978  0.00  0.00    -0.412 OA
ENDROOT
BRANCH   1  10
ATOM      7  C   UNL     1       0.731  -0.503   1.223  0.00  0.00    -0.045 A 
ATOM      8  C   UNL     1       2.051  -0.146   1.431  0.00  0.00    +0.004 A 
ATOM      9  C   UNL     1       2.724  -0.600   2.547  0.00  0.00    +0.013 A 
ATOM     10  C   UNL     1       2.070  -1.421   3.466  0.00  0.00    +0.038 A 
ATOM     11  C   UNL     1       0.739  -1.778   3.251  0.00  0.00    +0.013 A 
ATOM     12  C   UNL     1       0.075  -1.312   2.134  0.00  0.00    +0.004 A 
BRANCH   7  14
ATOM     13  C   UNL     1      -0.019   1.526   0.010  0.00  0.00    +0.012 C 
ATOM     14  C   UNL     1       0.002  -0.004   0.002  0.00  0.00    +0.013 C 
ATOM     15  C   UNL     1       0.718  -0.497  -1.257  0.00  0.00    +0.012 C 
ENDBRANCH   7  14
ENDBRANCH   1  10
BRANCH   3  16
ATOM     16  C   UNL     1       3.149  -3.731   7.752  0.00  0.00    +0.073 C 
BRANCH  16  17
ATOM     17  N   UNL     1       3.171  -5.154   7.389  0.00  0.00    +0.393 N 
ATOM     18  C   UNL     1       1.992  -5.468   6.574  0.00  0.00    -0.076 C 
ATOM     19  C   UNL     1       2.052  -6.930   6.125  0.00  0.00    -0.018 C 
ATOM     20  C   UNL     1       2.077  -7.836   7.360  0.00  0.00    +0.001 C 
ATOM     21  C   UNL     1       3.269  -7.450   8.240  0.00  0.00    -0.010 C 
ATOM     22  C   UNL     1       3.164  -5.969   8.610  0.00  0.00    -0.071 C 
ATOM     23  H   UNL     1       4.007  -5.352   6.859  0.00  0.00    -0.079 HD
BRANCH  21  24
ATOM     24  C   UNL     1       3.259  -8.298   9.514  0.00  0.00    +0.105 C 
BRANCH  24  25
ATOM     25  N   UNL     1       3.474  -9.705   9.166  0.00  0.00    -0.315 N 
ATOM     26  C   UNL     1       3.505 -10.641  10.134  0.00  0.00    +0.210 C 
ATOM     27  O   UNL     1       3.354 -10.320  11.294  0.00  0.00    -0.276 OA
ATOM     28  C   UNL     1       3.726 -12.088   9.776  0.00  0.00    +0.109 C 
ATOM     29  H   UNL     1       3.595  -9.962   8.238  0.00  0.00    +0.149 HD
ENDBRANCH  24  25
ENDBRANCH  21  24
ENDBRANCH  16  17
ENDBRANCH   3  16
TORSDOF 6
