REMARK  Name = ZINC39737803
REMARK  8 active torsions:
REMARK  status: ('A' for Active; 'I' for Inactive)
REMARK    1  A    between atoms: C_1  and  C_2
REMARK    2  A    between atoms: C_3  and  C_30
REMARK    3  A    between atoms: C_5  and  N_10
REMARK    4  A    between atoms: C_6  and  C_7
REMARK    5  A    between atoms: C_11  and  C_13
REMARK    6  A    between atoms: C_16  and  S_19
REMARK    7  A    between atoms: S_19  and  N_22
REMARK    8  A    between atoms: C_27  and  C_29
REMARK                            x       y       z     vdW  Elec       q    Type
REMARK                         _______ _______ _______ _____ _____    ______ ____
ROOT
ATOM      1  N   UNL     1      -0.799  -2.026   2.944  0.00  0.00    -0.275 N 
ATOM      2  C   UNL     1      -1.010  -3.248   2.418  0.00  0.00    +0.249 C 
ATOM      3  O   UNL     1      -1.394  -3.358   1.270  0.00  0.00    -0.270 OA
ATOM      4  H   UNL     1      -0.492  -1.938   3.860  0.00  0.00    +0.156 HD
ENDROOT
BRANCH   1   9
ATOM      5  C   UNL     1      -1.032   2.904   1.813  0.00  0.00    +0.045 C 
ATOM      6  C   UNL     1      -1.165   1.427   1.544  0.00  0.00    -0.027 A 
ATOM      7  C   UNL     1      -1.575   0.951   0.354  0.00  0.00    -0.008 A 
ATOM      8  S   UNL     1      -1.548  -0.813   0.586  0.00  0.00    -0.078 S 
ATOM      9  C   UNL     1      -1.021  -0.894   2.177  0.00  0.00    +0.085 A 
ATOM     10  C   UNL     1      -0.854   0.433   2.546  0.00  0.00    +0.068 A 
ATOM     11  C   UNL     1      -1.963   1.726  -0.879  0.00  0.00    +0.052 C 
BRANCH  10  12
ATOM     12  C   UNL     1      -0.391   0.808   3.886  0.00  0.00    +0.244 C 
ATOM     13  O   UNL     1      -1.197   0.992   4.779  0.00  0.00    -0.270 OA
ATOM     14  N   UNL     1       0.927   0.950   4.128  0.00  0.00    -0.325 N 
ATOM     15  H   UNL     1       1.570   0.803   3.416  0.00  0.00    +0.145 HD
ATOM     16  H   UNL     1       1.234   1.198   5.014  0.00  0.00    +0.145 HD
ENDBRANCH  10  12
ENDBRANCH   1   9
BRANCH   2  17
ATOM     17  C   UNL     1      -0.773  -4.456   3.236  0.00  0.00    +0.037 A 
ATOM     18  C   UNL     1      -0.336  -4.333   4.557  0.00  0.00    +0.015 A 
ATOM     19  C   UNL     1      -0.117  -5.465   5.315  0.00  0.00    +0.029 A 
ATOM     20  C   UNL     1      -0.329  -6.719   4.770  0.00  0.00    +0.106 A 
ATOM     21  C   UNL     1      -0.761  -6.847   3.462  0.00  0.00    +0.029 A 
ATOM     22  C   UNL     1      -0.990  -5.724   2.694  0.00  0.00    +0.015 A 
BRANCH  20  23
ATOM     23  S   UNL     1      -0.047  -8.158   5.746  0.00  0.00    +0.061 S 
ATOM     24  O   UNL     1       0.373  -9.180   4.851  0.00  0.00    -0.153 OA
ATOM     25  O   UNL     1       0.739  -7.748   6.856  0.00  0.00    -0.153 OA
BRANCH  23  26
ATOM     26  N   UNL     1      -1.512  -8.634   6.353  0.00  0.00    -0.174 NA
ATOM     27  C   UNL     1      -2.274  -9.714   5.711  0.00  0.00    +0.110 C 
ATOM     28  C   UNL     1      -2.614 -10.771   6.766  0.00  0.00    +0.017 C 
ATOM     29  C   UNL     1      -3.337 -10.103   7.938  0.00  0.00    +0.003 C 
ATOM     30  C   UNL     1      -2.419  -9.060   8.578  0.00  0.00    +0.020 C 
ATOM     31  C   UNL     1      -2.073  -7.987   7.547  0.00  0.00    +0.077 C 
ATOM     32  C   UNL     1      -1.044  -7.022   8.139  0.00  0.00    +0.026 C 
ENDBRANCH  23  26
ENDBRANCH  20  23
ENDBRANCH   2  17
TORSDOF 5
