REMARK  Name = ZINC50416917
REMARK  7 active torsions:
REMARK  status: ('A' for Active; 'I' for Inactive)
REMARK    1  A    between atoms: C_1  and  C_2
REMARK    2  A    between atoms: C_2  and  C_4
REMARK    3  A    between atoms: C_2  and  N_10
REMARK    4  A    between atoms: N_8  and  C_9
REMARK    5  A    between atoms: N_10  and  S_11
REMARK    6  A    between atoms: S_11  and  C_14
REMARK    7  A    between atoms: C_19  and  N_20
REMARK                            x       y       z     vdW  Elec       q    Type
REMARK                         _______ _______ _______ _____ _____    ______ ____
ROOT
ATOM      1  S   UNL     1       2.171  -0.903   1.024  0.00  0.00    +0.061 S 
ATOM      2  O   UNL     1       2.617  -1.524   2.221  0.00  0.00    -0.153 OA
ATOM      3  O   UNL     1       2.106  -1.596  -0.215  0.00  0.00    -0.153 OA
ENDROOT
BRANCH   1   4
ATOM      4  C   UNL     1       3.208   0.497   0.765  0.00  0.00    +0.127 A 
ATOM      5  C   UNL     1       3.802   0.699  -0.466  0.00  0.00    +0.045 A 
ATOM      6  C   UNL     1       4.618   1.797  -0.670  0.00  0.00    +0.020 A 
ATOM      7  C   UNL     1       4.840   2.697   0.357  0.00  0.00    +0.017 A 
ATOM      8  C   UNL     1       4.249   2.501   1.590  0.00  0.00    +0.026 A 
ATOM      9  C   UNL     1       3.425   1.401   1.796  0.00  0.00    +0.051 A 
ATOM     10 BR   UNL     1       5.430   2.069  -2.356  0.00  0.00    -0.050 Br
BRANCH   9  11
ATOM     11  N   UNL     1       2.821   1.203   3.040  0.00  0.00    -0.356 N 
ATOM     12  H   UNL     1       2.227   0.448   3.176  0.00  0.00    +0.142 HD
ATOM     13  H   UNL     1       2.995   1.820   3.768  0.00  0.00    +0.142 HD
ENDBRANCH   9  11
ENDBRANCH   1   4
BRANCH   1  14
ATOM     14  N   UNL     1       0.646  -0.333   1.327  0.00  0.00    -0.180 NA
ATOM     15  H   UNL     1       0.232  -0.490   2.190  0.00  0.00    +0.149 HD
BRANCH  14  17
ATOM     16  C   UNL     1      -0.458   1.791   0.825  0.00  0.00    +0.034 C 
ATOM     17  C   UNL     1      -0.078   0.408   0.291  0.00  0.00    +0.141 C 
BRANCH  17  18
ATOM     18  C   UNL     1      -1.328  -0.345  -0.086  0.00  0.00    +0.151 A 
ATOM     19  N   UNL     1      -2.179  -0.893   0.738  0.00  0.00    -0.133 NA
ATOM     20  N   UNL     1      -3.127  -1.451   0.073  0.00  0.00    -0.138 NA
ATOM     21  C   UNL     1      -2.924  -1.285  -1.206  0.00  0.00    +0.224 A 
ATOM     22  N   UNL     1      -1.779  -0.574  -1.343  0.00  0.00    -0.319 N 
ATOM     23  C   UNL     1      -1.154  -0.143  -2.596  0.00  0.00    +0.151 C 
ENDBRANCH  17  18
ENDBRANCH  14  17
ENDBRANCH   1  14
TORSDOF 5
