REMARK  Name = ZINC63770015
REMARK  12 active torsions:
REMARK  status: ('A' for Active; 'I' for Inactive)
REMARK    1  A    between atoms: C_1  and  C_2
REMARK    2  A    between atoms: C_4  and  O_26
REMARK    3  A    between atoms: C_6  and  C_23
REMARK    4  A    between atoms: C_10  and  C_11
REMARK    5  A    between atoms: N_13  and  C_14
REMARK    6  A    between atoms: C_14  and  C_15
REMARK    7  A    between atoms: C_15  and  C_16
REMARK    8  A    between atoms: C_15  and  C_17
REMARK    9  A    between atoms: C_17  and  N_18
REMARK   10  A    between atoms: C_23  and  O_24
REMARK   11  A    between atoms: O_24  and  C_25
REMARK   12  A    between atoms: O_26  and  C_27
REMARK                            x       y       z     vdW  Elec       q    Type
REMARK                         _______ _______ _______ _____ _____    ______ ____
ROOT
ATOM      1  C   UNL     1      -0.649   0.890  -0.155  0.00  0.00    +0.046 C 
ATOM      2  C   UNL     1      -0.503  -0.606  -0.050  0.00  0.00    -0.017 A 
ATOM      3  C   UNL     1      -0.510  -1.396  -1.209  0.00  0.00    +0.073 A 
ATOM      4  C   UNL     1      -0.642  -0.998  -2.570  0.00  0.00    +0.226 A 
ATOM      5  N   UNL     1      -0.622  -1.920  -3.516  0.00  0.00    -0.195 NA
ATOM      6  C   UNL     1      -0.484  -3.206  -3.246  0.00  0.00    +0.160 A 
ATOM      7  N   UNL     1      -0.357  -3.639  -2.007  0.00  0.00    -0.222 NA
ATOM      8  C   UNL     1      -0.366  -2.790  -1.000  0.00  0.00    +0.116 A 
ATOM      9  S   UNL     1      -0.231  -2.927   0.764  0.00  0.00    -0.064 S 
ATOM     10  C   UNL     1      -0.359  -1.194   1.169  0.00  0.00    +0.079 A 
ENDROOT
BRANCH  10  11
ATOM     11  C   UNL     1      -0.320  -0.558   2.492  0.00  0.00    +0.251 C 
ATOM     12  O   UNL     1      -0.425   0.650   2.590  0.00  0.00    -0.270 OA
ATOM     13  N   UNL     1      -0.169  -1.313   3.598  0.00  0.00    -0.311 N 
ATOM     14  H   UNL     1      -0.085  -2.276   3.520  0.00  0.00    +0.149 HD
BRANCH  13  15
ATOM     15  C   UNL     1      -0.130  -0.678   4.918  0.00  0.00    +0.106 C 
BRANCH  15  16
ATOM     16  C   UNL     1       0.049  -1.751   5.994  0.00  0.00    -0.014 C 
ATOM     17  C   UNL     1       1.415  -2.419   5.826  0.00  0.00    +0.007 C 
BRANCH  16  18
ATOM     18  C   UNL     1      -0.036  -1.104   7.378  0.00  0.00    -0.074 C 
BRANCH  18  19
ATOM     19  N   UNL     1      -1.391  -0.580   7.592  0.00  0.00    +0.380 N 
ATOM     20  C   UNL     1      -2.358  -1.699   7.724  0.00  0.00    -0.079 C 
ATOM     21  C   UNL     1      -3.547  -1.052   8.479  0.00  0.00    -0.020 C 
ATOM     22  C   UNL     1      -2.848  -0.098   9.474  0.00  0.00    -0.020 C 
ATOM     23  C   UNL     1      -1.455   0.162   8.870  0.00  0.00    -0.079 C 
ATOM     24  H   UNL     1      -1.656   0.022   6.826  0.00  0.00    -0.082 HD
ENDBRANCH  18  19
ENDBRANCH  16  18
ENDBRANCH  15  16
ENDBRANCH  13  15
ENDBRANCH  10  11
BRANCH   4  25
ATOM     25  O   UNL     1      -0.786   0.309  -2.891  0.00  0.00    -0.479 OA
ATOM     26  C   UNL     1      -0.912   0.626  -4.279  0.00  0.00    +0.279 C 
ENDBRANCH   4  25
BRANCH   6  27
ATOM     27  C   UNL     1      -0.471  -4.199  -4.379  0.00  0.00    +0.235 C 
BRANCH  27  28
ATOM     28  O   UNL     1       0.871  -4.389  -4.831  0.00  0.00    -0.375 OA
ATOM     29  C   UNL     1       0.996  -5.318  -5.910  0.00  0.00    +0.194 C 
ENDBRANCH  27  28
ENDBRANCH   6  27
TORSDOF 8
