REMARK  Name = ZINC37785521
REMARK  5 active torsions:
REMARK  status: ('A' for Active; 'I' for Inactive)
REMARK    1  A    between atoms: C_1  and  C_2
REMARK    2  A    between atoms: C_2  and  C_22
REMARK    3  A    between atoms: C_5  and  N_13
REMARK    4  A    between atoms: N_13  and  C_14
REMARK    5  A    between atoms: N_19  and  C_21
REMARK                            x       y       z     vdW  Elec       q    Type
REMARK                         _______ _______ _______ _____ _____    ______ ____
ROOT
ATOM      1  C   UNL     1      -0.019   1.526   0.010  0.00  0.00    +0.016 C 
ATOM      2  C   UNL     1       0.002  -0.004   0.002  0.00  0.00    -0.009 C 
ATOM      3  C   UNL     1      -1.433  -0.527  -0.015  0.00  0.00    +0.013 C 
ATOM      4  C   UNL     1      -1.397  -2.045   0.197  0.00  0.00    +0.028 C 
ATOM      5  C   UNL     1      -0.972  -2.321   1.638  0.00  0.00    +0.101 C 
ATOM      6  C   UNL     1       0.286  -1.564   1.973  0.00  0.00    -0.024 A 
ATOM      7  C   UNL     1       0.732  -0.498   1.224  0.00  0.00    -0.037 A 
ATOM      8  C   UNL     1       1.897   0.162   1.592  0.00  0.00    +0.004 A 
ATOM      9  C   UNL     1       2.614  -0.245   2.698  0.00  0.00    +0.000 A 
ATOM     10  C   UNL     1       2.169  -1.318   3.448  0.00  0.00    +0.000 A 
ATOM     11  C   UNL     1       1.010  -1.973   3.085  0.00  0.00    +0.006 A 
ATOM     12  C   UNL     1       0.731  -0.492  -1.252  0.00  0.00    +0.016 C 
ENDROOT
BRANCH   5  13
ATOM     13  N   UNL     1      -0.731  -3.756   1.804  0.00  0.00    -0.336 N 
ATOM     14  H   UNL     1      -0.491  -4.300   1.038  0.00  0.00    +0.147 HD
BRANCH  13  15
ATOM     15  C   UNL     1      -0.847  -4.344   3.073  0.00  0.00    +0.044 A 
ATOM     16  C   UNL     1      -1.199  -3.559   4.185  0.00  0.00    +0.030 A 
ATOM     17  C   UNL     1      -1.307  -4.148   5.410  0.00  0.00    +0.072 A 
ATOM     18  C   UNL     1      -1.063  -5.526   5.536  0.00  0.00    +0.251 A 
ATOM     19  O   UNL     1      -1.157  -6.063   6.629  0.00  0.00    -0.268 OA
ATOM     20  N   UNL     1      -0.727  -6.255   4.456  0.00  0.00    -0.316 N 
ATOM     21  C   UNL     1      -0.623  -5.675   3.229  0.00  0.00    +0.111 A 
ATOM     22  C   UNL     1      -0.475  -7.691   4.601  0.00  0.00    +0.152 C 
ENDBRANCH  13  15
ENDBRANCH   5  13
TORSDOF 2
