REMARK  Name = ZINC06480323
REMARK  4 active torsions:
REMARK  status: ('A' for Active; 'I' for Inactive)
REMARK    1  A    between atoms: C_3  and  O_9
REMARK    2  A    between atoms: O_9  and  C_10
REMARK    3  A    between atoms: C_10  and  C_11
REMARK    4  A    between atoms: C_17  and  C_19
REMARK                            x       y       z     vdW  Elec       q    Type
REMARK                         _______ _______ _______ _____ _____    ______ ____
ROOT
ATOM      1  C   UNL     1       0.749  -2.741  -0.020  0.00  0.00    +0.258 C 
ATOM      2  O   UNL     1      -0.435  -2.479  -0.007  0.00  0.00    -0.272 OA
ATOM      3  N   UNL     1       1.660  -1.748  -0.024  0.00  0.00    -0.236 N 
ATOM      4  C   UNL     1       1.243  -0.425  -0.012  0.00  0.00    +0.315 A 
ATOM      5  N   UNL     1       0.002  -0.004   0.002  0.00  0.00    -0.092 NA
ATOM      6  N   UNL     1      -0.015   1.282   0.009  0.00  0.00    -0.105 NA
ATOM      7  C   UNL     1       1.218   1.734  -0.000  0.00  0.00    +0.257 A 
ATOM      8  O   UNL     1       2.040   0.661  -0.014  0.00  0.00    -0.404 OA
ATOM      9  H   UNL     1       2.607  -1.957  -0.034  0.00  0.00    +0.159 HD
ENDROOT
BRANCH   7  10
ATOM     10  C   UNL     1       1.629   3.146   0.004  0.00  0.00    +0.077 A 
ATOM     11  C   UNL     1       0.842   4.282   0.018  0.00  0.00    +0.022 A 
ATOM     12  C   UNL     1       1.464   5.510   0.020  0.00  0.00    +0.028 A 
ATOM     13  C   UNL     1       2.823   5.566   0.007  0.00  0.00    +0.079 A 
ATOM     14  S   UNL     1       3.274   3.839  -0.001  0.00  0.00    -0.072 S 
ATOM     15 CL   UNL     1       3.855   6.962   0.005  0.00  0.00    -0.076 Cl
ENDBRANCH   7  10
BRANCH   1  16
ATOM     16  C   UNL     1       1.202  -4.178  -0.033  0.00  0.00    +0.325 C 
BRANCH  16  17
ATOM     17  O   UNL     1       0.061  -5.038  -0.026  0.00  0.00    -0.481 OA
BRANCH  17  20
ATOM     18  C   UNL     1       1.836  -8.214  -0.061  0.00  0.00    +0.023 A 
ATOM     19  C   UNL     1       1.599  -6.853  -0.051  0.00  0.00    +0.048 A 
ATOM     20  C   UNL     1       0.296  -6.377  -0.036  0.00  0.00    +0.140 A 
ATOM     21  C   UNL     1      -0.767  -7.270  -0.025  0.00  0.00    +0.084 A 
ATOM     22  C   UNL     1      -0.525  -8.630  -0.040  0.00  0.00    +0.043 A 
ATOM     23  C   UNL     1       0.776  -9.102  -0.055  0.00  0.00    +0.043 A 
ATOM     24 CL   UNL     1       1.077 -10.812  -0.067  0.00  0.00    -0.083 Cl
ATOM     25 CL   UNL     1      -2.399  -6.677   0.002  0.00  0.00    -0.080 Cl
ENDBRANCH  17  20
ENDBRANCH  16  17
ENDBRANCH   1  16
TORSDOF 4
