REMARK  Name = ZINC30993429
REMARK  2 active torsions:
REMARK  status: ('A' for Active; 'I' for Inactive)
REMARK    1  A    between atoms: C_1  and  C_2
REMARK    2  A    between atoms: N_14  and  C_15
REMARK                            x       y       z     vdW  Elec       q    Type
REMARK                         _______ _______ _______ _____ _____    ______ ____
ROOT
ATOM      1  C   UNL     1       1.268  -1.862  -1.066  0.00  0.00    +0.033 C 
ATOM      2  C   UNL     1       1.328  -0.751  -0.016  0.00  0.00    +0.105 C 
ATOM      3  C   UNL     1      -0.070  -0.177   0.210  0.00  0.00    -0.017 A 
ATOM      4  C   UNL     1      -1.198  -0.971   0.411  0.00  0.00    +0.013 A 
ATOM      5  C   UNL     1      -2.405  -0.393   0.610  0.00  0.00    +0.046 A 
ATOM      6  S   UNL     1      -2.001   1.344   0.516  0.00  0.00    -0.101 S 
ATOM      7  C   UNL     1      -0.260   1.170   0.225  0.00  0.00    -0.004 A 
ATOM      8  C   UNL     1       0.761   2.244   0.033  0.00  0.00    +0.062 C 
ATOM      9  C   UNL     1       2.159   1.631   0.210  0.00  0.00    +0.115 C 
ATOM     10  N   UNL     1       2.189   0.339  -0.492  0.00  0.00    -0.278 N 
ATOM     11  C   UNL     1       2.996   0.158  -1.556  0.00  0.00    +0.303 C 
ATOM     12  O   UNL     1       2.954  -0.884  -2.181  0.00  0.00    -0.253 OA
ATOM     13  N   UNL     1       3.849   1.133  -1.929  0.00  0.00    -0.296 N 
ATOM     14  H   UNL     1       3.948   2.041  -1.316  0.00  0.00    +0.151 HD
ENDROOT
BRANCH  13  15
ATOM     15  C   UNL     1       4.645   0.983  -3.150  0.00  0.00    +0.074 C 
ATOM     16  C   UNL     1       5.955   0.232  -2.837  0.00  0.00    +0.022 C 
ATOM     17  C   UNL     1       7.011   0.919  -3.740  0.00  0.00    +0.002 C 
ATOM     18  C   UNL     1       6.590   2.409  -3.687  0.00  0.00    +0.002 C 
ATOM     19  C   UNL     1       5.047   2.366  -3.690  0.00  0.00    +0.022 C 
ENDBRANCH  13  15
TORSDOF 1
