REMARK  Name = ZINC07856193
REMARK  5 active torsions:
REMARK  status: ('A' for Active; 'I' for Inactive)
REMARK    1  A    between atoms: C_1  and  C_2
REMARK    2  A    between atoms: C_2  and  C_4
REMARK    3  A    between atoms: C_2  and  N_50
REMARK    4  A    between atoms: C_20  and  C_22
REMARK    5  A    between atoms: N_26  and  C_27
REMARK                            x       y       z     vdW  Elec       q    Type
REMARK                         _______ _______ _______ _____ _____    ______ ____
ROOT
ATOM      1  C   UNL     1      -1.886   1.573  -0.658  0.00  0.00    -0.004 C 
ATOM      2  C   UNL     1      -0.458   2.040  -0.946  0.00  0.00    +0.018 C 
ENDROOT
BRANCH   2   3
ATOM      3  C   UNL     1      -0.355   3.523  -0.697  0.00  0.00    +0.206 C 
ATOM      4  O   UNL     1       0.252   3.935   0.269  0.00  0.00    -0.277 OA
ATOM      5  N   UNL     1      -0.936   4.391  -1.549  0.00  0.00    -0.262 N 
ATOM      6  C   UNL     1      -1.771   3.917  -2.663  0.00  0.00    +0.209 C 
ATOM      7  C   UNL     1      -1.458   4.723  -3.893  0.00  0.00    +0.235 C 
ATOM      8  O   UNL     1      -1.595   4.220  -4.989  0.00  0.00    -0.274 OA
ATOM      9  N   UNL     1      -1.025   5.994  -3.795  0.00  0.00    -0.283 N 
ATOM     10  C   UNL     1      -0.811   6.581  -2.543  0.00  0.00    +0.055 A 
ATOM     11  C   UNL     1      -0.761   5.776  -1.403  0.00  0.00    +0.058 A 
ATOM     12  C   UNL     1      -0.543   6.342  -0.161  0.00  0.00    +0.025 A 
ATOM     13  C   UNL     1      -0.378   7.711  -0.049  0.00  0.00    +0.002 A 
ATOM     14  C   UNL     1      -0.430   8.511  -1.176  0.00  0.00    +0.002 A 
ATOM     15  C   UNL     1      -0.646   7.952  -2.422  0.00  0.00    +0.025 A 
ATOM     16  H   UNL     1      -0.859   6.508  -4.600  0.00  0.00    +0.155 HD
ENDBRANCH   2   3
BRANCH   2  21
ATOM     17  C   UNL     1       1.833   1.913  -0.149  0.00  0.00    -0.077 C 
ATOM     18  C   UNL     1       2.793   0.712   0.041  0.00  0.00    -0.020 C 
ATOM     19  C   UNL     1       2.039  -0.414  -0.714  0.00  0.00    -0.011 C 
ATOM     20  C   UNL     1       0.557  -0.099  -0.419  0.00  0.00    -0.020 C 
ATOM     21  N   UNL     1       0.485   1.325  -0.047  0.00  0.00    +0.393 N 
ATOM     22  H   UNL     1       0.152   1.407   0.921  0.00  0.00    -0.080 HD
BRANCH  20  23
ATOM     23  C   UNL     1      -0.281  -0.371  -1.641  0.00  0.00    +0.005 A 
ATOM     24  C   UNL     1      -0.072   0.137  -2.873  0.00  0.00    +0.021 A 
ATOM     25  C   UNL     1      -1.079  -0.372  -3.716  0.00  0.00    +0.019 A 
ATOM     26  C   UNL     1      -1.871  -1.165  -2.966  0.00  0.00    +0.085 A 
ATOM     27  N   UNL     1      -1.386  -1.168  -1.691  0.00  0.00    -0.355 N 
ATOM     28  C   UNL     1      -1.958  -1.906  -0.562  0.00  0.00    +0.148 C 
ENDBRANCH  20  23
ENDBRANCH   2  21
TORSDOF 3
