REMARK  Name = ZINC39928275
REMARK  8 active torsions:
REMARK  status: ('A' for Active; 'I' for Inactive)
REMARK    1  A    between atoms: C_1  and  C_2
REMARK    2  A    between atoms: C_5  and  N_9
REMARK    3  A    between atoms: C_6  and  C_8
REMARK    4  A    between atoms: N_9  and  C_10
REMARK    5  A    between atoms: C_10  and  C_11
REMARK    6  A    between atoms: C_16  and  O_23
REMARK    7  A    between atoms: O_23  and  C_24
REMARK    8  A    between atoms: C_25  and  C_27
REMARK                            x       y       z     vdW  Elec       q    Type
REMARK                         _______ _______ _______ _____ _____    ______ ____
ROOT
ATOM      1  N   UNL     1      -0.157  -4.474  -0.508  0.00  0.00    -0.268 N 
ATOM      2  C   UNL     1      -1.030  -5.303   0.099  0.00  0.00    +0.249 C 
ATOM      3  O   UNL     1      -0.670  -6.402   0.463  0.00  0.00    -0.272 OA
ENDROOT
BRANCH   1   8
ATOM      4  C   UNL     1      -1.928   0.514  -2.549  0.00  0.00    +0.044 C 
ATOM      5  C   UNL     1      -1.458  -0.811  -2.007  0.00  0.00    -0.050 A 
ATOM      6  C   UNL     1      -1.579  -1.087  -0.657  0.00  0.00    +0.005 A 
ATOM      7  C   UNL     1      -1.149  -2.300  -0.157  0.00  0.00    +0.024 A 
ATOM      8  C   UNL     1      -0.594  -3.244  -1.011  0.00  0.00    +0.039 A 
ATOM      9  C   UNL     1      -0.474  -2.964  -2.366  0.00  0.00    -0.029 A 
ATOM     10  C   UNL     1      -0.911  -1.751  -2.861  0.00  0.00    +0.008 A 
ATOM     11  C   UNL     1       0.127  -3.986  -3.296  0.00  0.00    +0.045 C 
ENDBRANCH   1   8
BRANCH   2  12
ATOM     12  C   UNL     1      -2.454  -4.864   0.323  0.00  0.00    +0.204 C 
ATOM     13  C   UNL     1      -2.554  -4.063   1.639  0.00  0.00    +0.043 C 
ATOM     14  C   UNL     1      -3.904  -4.558   2.225  0.00  0.00    +0.031 C 
ATOM     15  C   UNL     1      -3.906  -6.033   1.752  0.00  0.00    +0.161 C 
ATOM     16  O   UNL     1      -3.303  -6.011   0.447  0.00  0.00    -0.367 OA
ENDBRANCH   2  12
BRANCH   1  17
ATOM     17  C   UNL     1       1.250  -4.861  -0.639  0.00  0.00    +0.130 C 
BRANCH  17  18
ATOM     18  C   UNL     1       1.985  -4.563   0.669  0.00  0.00    +0.116 C 
ATOM     19  C   UNL     1       3.292  -5.332   0.653  0.00  0.00    -0.003 C 
ATOM     20  C   UNL     1       4.442  -4.612   0.781  0.00  0.00    -0.004 A 
ATOM     21  C   UNL     1       5.747  -5.275   0.777  0.00  0.00    +0.055 A 
ATOM     22  C   UNL     1       6.870  -4.515   0.908  0.00  0.00    +0.121 A 
ATOM     23  C   UNL     1       6.794  -3.124   1.046  0.00  0.00    +0.047 A 
ATOM     24  C   UNL     1       5.614  -2.454   1.057  0.00  0.00    +0.027 A 
ATOM     25  C   UNL     1       4.395  -3.146   0.928  0.00  0.00    +0.041 A 
ATOM     26  N   UNL     1       3.244  -2.474   0.940  0.00  0.00    -0.284 N 
ATOM     27  C   UNL     1       2.065  -3.061   0.825  0.00  0.00    +0.226 C 
ATOM     28  O   UNL     1       1.048  -2.394   0.843  0.00  0.00    -0.275 OA
ATOM     29  H   UNL     1       3.272  -1.510   1.039  0.00  0.00    +0.155 HD
BRANCH  22  30
ATOM     30  O   UNL     1       8.087  -5.120   0.905  0.00  0.00    -0.495 OA
ATOM     31  C   UNL     1       9.231  -4.275   1.046  0.00  0.00    +0.277 C 
ENDBRANCH  22  30
ENDBRANCH  17  18
ENDBRANCH   1  17
TORSDOF 5
