REMARK  Name = ZINC08313979
REMARK  8 active torsions:
REMARK  status: ('A' for Active; 'I' for Inactive)
REMARK    1  A    between atoms: C_1  and  O_2
REMARK    2  A    between atoms: O_2  and  C_3
REMARK    3  A    between atoms: C_6  and  C_9
REMARK    4  A    between atoms: C_9  and  C_11
REMARK    5  A    between atoms: C_9  and  N_57
REMARK    6  A    between atoms: C_11  and  N_12
REMARK    7  A    between atoms: C_13  and  C_15
REMARK    8  A    between atoms: C_15  and  C_16
REMARK                            x       y       z     vdW  Elec       q    Type
REMARK                         _______ _______ _______ _____ _____    ______ ____
ROOT
ATOM      1  N   UNL     1       0.334  -2.307   2.268  0.00  0.00    -0.316 N 
ATOM      2  C   UNL     1       0.339  -2.616   3.580  0.00  0.00    +0.215 C 
ATOM      3  O   UNL     1       1.236  -3.290   4.041  0.00  0.00    -0.276 OA
ATOM      4  H   UNL     1      -0.383  -1.768   1.900  0.00  0.00    +0.149 HD
ENDROOT
BRANCH   1   5
ATOM      5  C   UNL     1       1.411  -2.786   1.399  0.00  0.00    +0.093 C 
BRANCH   5   6
ATOM      6  C   UNL     1       1.240  -2.192  -0.001  0.00  0.00    -0.020 C 
BRANCH   6  10
ATOM      7  C   UNL     1       1.755   2.046   0.179  0.00  0.00    +0.120 A 
ATOM      8  C   UNL     1       0.479   1.502   0.142  0.00  0.00    +0.046 A 
ATOM      9  C   UNL     1       0.315   0.132   0.084  0.00  0.00    +0.005 A 
ATOM     10  C   UNL     1       1.421  -0.697   0.062  0.00  0.00    -0.059 A 
ATOM     11  C   UNL     1       2.694  -0.158   0.098  0.00  0.00    +0.005 A 
ATOM     12  C   UNL     1       2.863   1.212   0.157  0.00  0.00    +0.046 A 
BRANCH   7  14
ATOM     13  C   UNL     1       3.261   3.884   0.270  0.00  0.00    +0.277 C 
ATOM     14  O   UNL     1       1.919   3.394   0.235  0.00  0.00    -0.495 OA
ENDBRANCH   7  14
ENDBRANCH   6  10
BRANCH   6  19
ATOM     15  C   UNL     1       2.111  -4.248  -0.972  0.00  0.00    -0.078 C 
ATOM     16  C   UNL     1       2.830  -4.608  -2.296  0.00  0.00    -0.020 C 
ATOM     17  C   UNL     1       2.441  -3.439  -3.230  0.00  0.00    -0.020 C 
ATOM     18  C   UNL     1       2.052  -2.284  -2.288  0.00  0.00    -0.078 C 
ATOM     19  N   UNL     1       2.251  -2.784  -0.927  0.00  0.00    +0.385 N 
ATOM     20  H   UNL     1       3.192  -2.535  -0.601  0.00  0.00    -0.081 HD
ENDBRANCH   6  19
ENDBRANCH   5   6
ENDBRANCH   1   5
BRANCH   2  21
ATOM     21  C   UNL     1      -0.769  -2.124   4.474  0.00  0.00    +0.119 C 
BRANCH  21  22
ATOM     22  C   UNL     1      -0.525  -2.611   5.904  0.00  0.00    +0.146 C 
ATOM     23  C   UNL     1      -1.692  -2.226   6.777  0.00  0.00    +0.231 C 
ATOM     24  O   UNL     1      -2.544  -3.059   7.002  0.00  0.00    -0.274 OA
ATOM     25  N   UNL     1      -1.831  -1.018   7.313  0.00  0.00    -0.284 N 
ATOM     26  C   UNL     1      -0.913   0.026   7.263  0.00  0.00    +0.047 A 
ATOM     27  C   UNL     1      -1.327   1.315   7.582  0.00  0.00    +0.024 A 
ATOM     28  C   UNL     1      -0.434   2.367   7.533  0.00  0.00    +0.002 A 
ATOM     29  C   UNL     1       0.884   2.151   7.175  0.00  0.00    +0.001 A 
ATOM     30  C   UNL     1       1.315   0.872   6.872  0.00  0.00    +0.016 A 
ATOM     31  C   UNL     1       0.424  -0.187   6.924  0.00  0.00    +0.030 A 
ATOM     32  S   UNL     1       0.975  -1.827   6.571  0.00  0.00    -0.110 S 
ATOM     33  H   UNL     1      -2.659  -0.846   7.788  0.00  0.00    +0.155 HD
ENDBRANCH  21  22
ENDBRANCH   2  21
TORSDOF 7
