REMARK  Name = ZINC39933987
REMARK  8 active torsions:
REMARK  status: ('A' for Active; 'I' for Inactive)
REMARK    1  A    between atoms: C_1  and  C_2
REMARK    2  A    between atoms: C_2  and  O_3
REMARK    3  A    between atoms: O_3  and  C_4
REMARK    4  A    between atoms: C_5  and  C_33
REMARK    5  A    between atoms: C_6  and  C_27
REMARK    6  A    between atoms: C_15  and  C_19
REMARK    7  A    between atoms: C_24  and  O_25
REMARK    8  A    between atoms: O_25  and  C_26
REMARK                            x       y       z     vdW  Elec       q    Type
REMARK                         _______ _______ _______ _____ _____    ______ ____
ROOT
ATOM      1  C   UNL     1      -1.498  -1.842   0.006  0.00  0.00    +0.234 A 
ATOM      2  C   UNL     1      -2.790  -2.397   0.010  0.00  0.00    +0.121 A 
ATOM      3  C   UNL     1      -2.948  -3.789  -0.015  0.00  0.00    +0.016 A 
ATOM      4  C   UNL     1      -1.791  -4.622  -0.037  0.00  0.00    +0.039 A 
ATOM      5  C   UNL     1      -0.538  -3.943  -0.011  0.00  0.00    +0.111 A 
ATOM      6  N   UNL     1      -0.437  -2.634  -0.008  0.00  0.00    -0.205 NA
ATOM      7  S   UNL     1       0.691  -5.239   0.022  0.00  0.00    -0.086 S 
ATOM      8  C   UNL     1      -0.453  -6.612   0.432  0.00  0.00    +0.190 C 
ATOM      9  C   UNL     1      -1.745  -6.025  -0.149  0.00  0.00    +0.076 C 
ATOM     10  N   UNL     1      -2.558  -6.923  -0.674  0.00  0.00    -0.232 NA
ATOM     11  C   UNL     1      -2.132  -8.143  -0.999  0.00  0.00    +0.156 C 
ATOM     12  N   UNL     1      -0.889  -8.585  -0.877  0.00  0.00    -0.160 NA
ATOM     13  C   UNL     1       0.051  -7.882  -0.201  0.00  0.00    +0.257 C 
ATOM     14  O   UNL     1       1.211  -8.235  -0.117  0.00  0.00    -0.272 OA
ENDROOT
BRANCH  11  15
ATOM     15  C   UNL     1      -3.131  -9.083  -1.542  0.00  0.00    +0.058 A 
ATOM     16  C   UNL     1      -4.460  -8.681  -1.703  0.00  0.00    +0.015 A 
ATOM     17  C   UNL     1      -5.387  -9.565  -2.210  0.00  0.00    +0.001 A 
ATOM     18  C   UNL     1      -5.009 -10.851  -2.561  0.00  0.00    +0.004 A 
ATOM     19  C   UNL     1      -3.700 -11.261  -2.407  0.00  0.00    +0.046 A 
ATOM     20  C   UNL     1      -2.751 -10.384  -1.904  0.00  0.00    +0.131 A 
BRANCH  20  21
ATOM     21  O   UNL     1      -1.463 -10.784  -1.758  0.00  0.00    -0.494 OA
ATOM     22  C   UNL     1      -1.151 -12.123  -2.148  0.00  0.00    +0.277 C 
ENDBRANCH  20  21
ENDBRANCH  11  15
BRANCH   3  23
ATOM     23  C   UNL     1      -4.300  -4.388  -0.018  0.00  0.00    -0.016 A 
ATOM     24  C   UNL     1      -4.730  -5.154   1.067  0.00  0.00    +0.008 A 
ATOM     25  C   UNL     1      -5.993  -5.710   1.058  0.00  0.00    +0.001 A 
ATOM     26  C   UNL     1      -6.832  -5.509  -0.024  0.00  0.00    +0.000 A 
ATOM     27  C   UNL     1      -6.412  -4.751  -1.102  0.00  0.00    +0.001 A 
ATOM     28  C   UNL     1      -5.155  -4.185  -1.103  0.00  0.00    +0.008 A 
ENDBRANCH   3  23
BRANCH   2  29
ATOM     29  C   UNL     1      -3.939  -1.543   0.039  0.00  0.00    +0.105 C 
ATOM     30  N   UNL     1      -4.851  -0.866   0.063  0.00  0.00    -0.191 NA
ENDBRANCH   2  29
BRANCH   1  31
ATOM     31  O   UNL     1      -1.339  -0.499   0.012  0.00  0.00    -0.476 OA
BRANCH  31  33
ATOM     32  C   UNL     1      -0.019   1.526   0.010  0.00  0.00    +0.048 C 
ATOM     33  C   UNL     1       0.002  -0.004   0.002  0.00  0.00    +0.227 C 
ENDBRANCH  31  33
ENDBRANCH   1  31
TORSDOF 6
