REMARK  Name = ZINC46077546
REMARK  7 active torsions:
REMARK  status: ('A' for Active; 'I' for Inactive)
REMARK    1  A    between atoms: C_1  and  C_2
REMARK    2  A    between atoms: C_12  and  S_18
REMARK    3  A    between atoms: S_18  and  N_21
REMARK    4  A    between atoms: N_21  and  C_22
REMARK    5  A    between atoms: N_21  and  C_23
REMARK    6  A    between atoms: C_26  and  O_29
REMARK    7  A    between atoms: O_29  and  C_30
REMARK                            x       y       z     vdW  Elec       q    Type
REMARK                         _______ _______ _______ _____ _____    ______ ____
ROOT
ATOM      1  C   UNL     1      -0.625   1.407   1.360  0.00  0.00    +0.044 C 
ATOM      2  C   UNL     1      -0.570  -0.095   1.254  0.00  0.00    -0.047 A 
ATOM      3  C   UNL     1      -0.754  -0.709   0.029  0.00  0.00    +0.005 A 
ATOM      4  C   UNL     1      -0.716  -2.085  -0.068  0.00  0.00    +0.027 A 
ATOM      5  C   UNL     1      -0.486  -2.863   1.062  0.00  0.00    +0.076 A 
ATOM      6  C   UNL     1      -0.280  -2.243   2.288  0.00  0.00    +0.150 A 
ATOM      7  C   UNL     1      -0.330  -0.859   2.380  0.00  0.00    +0.051 A 
ATOM      8  O   UNL     1       0.013  -2.964   3.399  0.00  0.00    -0.453 OA
ATOM      9  C   UNL     1       1.164  -3.674   3.420  0.00  0.00    +0.142 A 
ATOM     10  C   UNL     1       2.143  -3.371   4.354  0.00  0.00    +0.069 A 
ATOM     11  C   UNL     1       3.333  -4.073   4.365  0.00  0.00    +0.071 A 
ATOM     12  C   UNL     1       3.558  -5.083   3.441  0.00  0.00    +0.128 A 
ATOM     13  C   UNL     1       2.591  -5.403   2.514  0.00  0.00    +0.047 A 
ATOM     14  C   UNL     1       1.377  -4.709   2.502  0.00  0.00    +0.081 A 
ATOM     15  C   UNL     1       0.325  -5.096   1.553  0.00  0.00    +0.252 C 
ATOM     16  O   UNL     1       0.192  -6.281   1.314  0.00  0.00    -0.270 OA
ATOM     17  N   UNL     1      -0.490  -4.251   0.937  0.00  0.00    -0.278 N 
ATOM     18 CL   UNL     1       4.553  -3.689   5.539  0.00  0.00    -0.081 Cl
ATOM     19  H   UNL     1      -1.153  -4.636   0.343  0.00  0.00    +0.155 HD
ENDROOT
BRANCH  12  20
ATOM     20  S   UNL     1       5.086  -5.960   3.454  0.00  0.00    +0.076 S 
ATOM     21  O   UNL     1       5.307  -6.371   4.796  0.00  0.00    -0.150 OA
ATOM     22  O   UNL     1       5.035  -6.881   2.374  0.00  0.00    -0.150 OA
BRANCH  20  23
ATOM     23  N   UNL     1       6.279  -4.871   3.091  0.00  0.00    -0.206 N 
ATOM     24  C   UNL     1       7.262  -4.493   4.110  0.00  0.00    +0.157 C 
BRANCH  23  25
ATOM     25  C   UNL     1       6.349  -4.311   1.810  0.00  0.00    +0.051 A 
ATOM     26  C   UNL     1       5.794  -4.980   0.728  0.00  0.00    +0.028 A 
ATOM     27  C   UNL     1       5.863  -4.427  -0.535  0.00  0.00    +0.047 A 
ATOM     28  C   UNL     1       6.486  -3.202  -0.723  0.00  0.00    +0.120 A 
ATOM     29  C   UNL     1       7.041  -2.533   0.357  0.00  0.00    +0.047 A 
ATOM     30  C   UNL     1       6.968  -3.082   1.622  0.00  0.00    +0.028 A 
BRANCH  28  31
ATOM     31  O   UNL     1       6.553  -2.658  -1.968  0.00  0.00    -0.495 OA
ATOM     32  C   UNL     1       7.210  -1.394  -2.088  0.00  0.00    +0.277 C 
ENDBRANCH  28  31
ENDBRANCH  23  25
ENDBRANCH  20  23
ENDBRANCH  12  20
TORSDOF 4
