REMARK  Name = ZINC31829145
REMARK  6 active torsions:
REMARK  status: ('A' for Active; 'I' for Inactive)
REMARK    1  A    between atoms: C_1  and  C_2
REMARK    2  A    between atoms: N_13  and  C_16
REMARK    3  A    between atoms: C_16  and  C_17
REMARK    4  A    between atoms: N_19  and  N_20
REMARK    5  A    between atoms: C_21  and  C_22
REMARK    6  A    between atoms: C_25  and  O_28
REMARK                            x       y       z     vdW  Elec       q    Type
REMARK                         _______ _______ _______ _____ _____    ______ ____
ROOT
ATOM      1  C   UNL     1       3.460   1.466   1.432  0.00  0.00    +0.008 C 
ATOM      2  C   UNL     1       2.109   0.839   1.085  0.00  0.00    -0.009 C 
ATOM      3  C   UNL     1       1.153   0.980   2.272  0.00  0.00    +0.008 C 
ATOM      4  C   UNL     1      -0.262   0.585   1.850  0.00  0.00    +0.037 C 
ATOM      5  C   UNL     1      -0.219  -0.798   1.206  0.00  0.00    -0.023 A 
ATOM      6  C   UNL     1       0.948  -1.304   0.744  0.00  0.00    -0.004 A 
ATOM      7  S   UNL     1       0.535  -2.902   0.090  0.00  0.00    -0.073 S 
ATOM      8  C   UNL     1      -1.196  -2.887   0.436  0.00  0.00    +0.116 A 
ATOM      9  C   UNL     1      -1.397  -1.632   1.052  0.00  0.00    +0.076 A 
ATOM     10  C   UNL     1      -2.736  -1.313   1.460  0.00  0.00    +0.263 A 
ATOM     11  O   UNL     1      -3.016  -0.257   1.999  0.00  0.00    -0.267 OA
ATOM     12  N   UNL     1      -3.669  -2.262   1.206  0.00  0.00    -0.290 N 
ATOM     13  C   UNL     1      -3.379  -3.442   0.607  0.00  0.00    +0.203 A 
ATOM     14  N   UNL     1      -2.166  -3.770   0.220  0.00  0.00    -0.230 NA
ATOM     15  C   UNL     1       2.297  -0.654   0.779  0.00  0.00    +0.046 C 
ENDROOT
BRANCH  12  16
ATOM     16  C   UNL     1      -5.056  -1.999   1.597  0.00  0.00    +0.223 C 
BRANCH  16  17
ATOM     17  C   UNL     1      -5.779  -1.325   0.460  0.00  0.00    +0.252 C 
ATOM     18  O   UNL     1      -5.194  -1.087  -0.576  0.00  0.00    -0.272 OA
ATOM     19  N   UNL     1      -7.077  -0.986   0.594  0.00  0.00    -0.206 N 
ATOM     20  H   UNL     1      -7.608  -1.202   1.532  0.00  0.00    +0.177 HD
BRANCH  19  21
ATOM     21  N   UNL     1      -7.750  -0.359  -0.463  0.00  0.00    -0.188 NA
ATOM     22  C   UNL     1      -8.962   0.073  -0.296  0.00  0.00    +0.138 C 
BRANCH  22  23
ATOM     23  C   UNL     1      -9.465   0.349   1.062  0.00  0.00    -0.005 A 
ATOM     24  C   UNL     1     -10.831   0.546   1.278  0.00  0.00    +0.013 A 
ATOM     25  C   UNL     1     -11.297   0.799   2.549  0.00  0.00    +0.046 A 
ATOM     26  C   UNL     1     -10.409   0.870   3.615  0.00  0.00    +0.117 A 
ATOM     27  C   UNL     1      -9.049   0.680   3.405  0.00  0.00    +0.046 A 
ATOM     28  C   UNL     1      -8.575   0.421   2.138  0.00  0.00    +0.013 A 
BRANCH  26  29
ATOM     29  O   UNL     1     -10.872   1.125   4.867  0.00  0.00    -0.507 OA
ATOM     30  H   UNL     1     -10.171   1.181   5.712  0.00  0.00    +0.292 HD
ENDBRANCH  26  29
ENDBRANCH  22  23
ENDBRANCH  19  21
ENDBRANCH  16  17
ENDBRANCH  12  16
TORSDOF 5
