REMARK  Name = ZINC36318927
REMARK  6 active torsions:
REMARK  status: ('A' for Active; 'I' for Inactive)
REMARK    1  A    between atoms: N_9  and  C_11
REMARK    2  A    between atoms: C_11  and  C_13
REMARK    3  A    between atoms: C_11  and  C_26
REMARK    4  A    between atoms: C_13  and  N_14
REMARK    5  A    between atoms: C_15  and  C_17
REMARK    6  A    between atoms: C_22  and  N_23
REMARK                            x       y       z     vdW  Elec       q    Type
REMARK                         _______ _______ _______ _____ _____    ______ ____
ROOT
ATOM      1  C   UNL     1       4.694  -2.561   0.141  0.00  0.00    +0.140 C 
ENDROOT
BRANCH   1  10
ATOM      2  C   UNL     1      -0.381   1.381   0.296  0.00  0.00    +0.000 A 
ATOM      3  C   UNL     1       0.771   2.133   0.432  0.00  0.00    +0.000 A 
ATOM      4  C   UNL     1       2.005   1.517   0.366  0.00  0.00    +0.005 A 
ATOM      5  C   UNL     1       2.096   0.148   0.166  0.00  0.00    -0.030 A 
ATOM      6  C   UNL     1       0.947  -0.602   0.034  0.00  0.00    -0.042 A 
ATOM      7  C   UNL     1      -0.292   0.018   0.097  0.00  0.00    +0.004 A 
ATOM      8  C   UNL     1       0.995  -2.094  -0.173  0.00  0.00    +0.051 C 
ATOM      9  C   UNL     1       2.394  -2.514  -0.623  0.00  0.00    +0.090 C 
ATOM     10  N   UNL     1       3.378  -1.927   0.301  0.00  0.00    -0.287 NA
ATOM     11  C   UNL     1       3.465  -0.477   0.097  0.00  0.00    +0.120 C 
ENDBRANCH   1  10
BRANCH   1  12
ATOM     12  C   UNL     1       5.152  -2.414  -1.287  0.00  0.00    +0.123 A 
ATOM     13  C   UNL     1       5.637  -3.400  -2.062  0.00  0.00    +0.046 A 
ATOM     14  C   UNL     1       5.940  -2.823  -3.317  0.00  0.00    +0.041 A 
ATOM     15  C   UNL     1       5.622  -1.519  -3.233  0.00  0.00    +0.195 A 
ATOM     16  O   UNL     1       5.140  -1.278  -2.003  0.00  0.00    -0.466 OA
ENDBRANCH   1  12
BRANCH   1  17
ATOM     17  C   UNL     1       5.702  -1.884   1.073  0.00  0.00    +0.131 C 
BRANCH  17  18
ATOM     18  N   UNL     1       5.198  -1.922   2.448  0.00  0.00    -0.309 N 
ATOM     19  C   UNL     1       5.924  -1.381   3.446  0.00  0.00    +0.246 C 
ATOM     20  O   UNL     1       6.997  -0.863   3.206  0.00  0.00    -0.270 OA
ATOM     21  H   UNL     1       4.342  -2.336   2.640  0.00  0.00    +0.149 HD
BRANCH  19  22
ATOM     22  C   UNL     1       5.416  -1.419   4.834  0.00  0.00    +0.067 A 
ATOM     23  C   UNL     1       4.156  -0.899   5.134  0.00  0.00    +0.015 A 
ATOM     24  C   UNL     1       3.688  -0.938   6.431  0.00  0.00    +0.001 A 
ATOM     25  C   UNL     1       4.464  -1.491   7.434  0.00  0.00    +0.002 A 
ATOM     26  C   UNL     1       5.714  -2.009   7.144  0.00  0.00    +0.033 A 
ATOM     27  C   UNL     1       6.192  -1.981   5.849  0.00  0.00    +0.138 A 
BRANCH  27  28
ATOM     28  N   UNL     1       7.527  -2.541   5.540  0.00  0.00    +0.057 N 
ATOM     29  O   UNL     1       8.247  -2.917   6.435  0.00  0.00    -0.126 OA
ATOM     30  O   UNL     1       7.897  -2.621   4.392  0.00  0.00    -0.126 OA
ENDBRANCH  27  28
ENDBRANCH  19  22
ENDBRANCH  17  18
ENDBRANCH   1  17
TORSDOF 6
