REMARK  Name = ZINC13177981
REMARK  7 active torsions:
REMARK  status: ('A' for Active; 'I' for Inactive)
REMARK    1  A    between atoms: C_1  and  C_2
REMARK    2  A    between atoms: C_2  and  C_25
REMARK    3  A    between atoms: C_8  and  O_11
REMARK    4  A    between atoms: O_11  and  C_12
REMARK    5  A    between atoms: C_12  and  C_13
REMARK    6  A    between atoms: N_15  and  C_16
REMARK    7  A    between atoms: C_21  and  C_22
REMARK                            x       y       z     vdW  Elec       q    Type
REMARK                         _______ _______ _______ _____ _____    ______ ____
ROOT
ATOM      1  C   UNL     1       4.861   3.751   0.356  0.00  0.00    +0.255 C 
ATOM      2  O   UNL     1       4.837   4.949   0.548  0.00  0.00    -0.272 OA
ATOM      3  N   UNL     1       3.709   3.076   0.169  0.00  0.00    -0.282 N 
ATOM      4  H   UNL     1       3.720   2.109   0.092  0.00  0.00    +0.155 HD
ENDROOT
BRANCH   3   5
ATOM      5  C   UNL     1       2.502   3.767   0.085  0.00  0.00    +0.048 A 
ATOM      6  C   UNL     1       2.456   5.019  -0.513  0.00  0.00    +0.025 A 
ATOM      7  C   UNL     1       1.259   5.703  -0.595  0.00  0.00    +0.017 A 
ATOM      8  C   UNL     1       0.097   5.147  -0.082  0.00  0.00    +0.019 A 
ATOM      9  C   UNL     1       0.124   3.903   0.511  0.00  0.00    +0.032 A 
ATOM     10  C   UNL     1       1.329   3.202   0.606  0.00  0.00    +0.085 A 
ATOM     11 BR   UNL     1      -1.533   6.098  -0.203  0.00  0.00    -0.050 Br
BRANCH  10  12
ATOM     12  C   UNL     1       1.365   1.874   1.244  0.00  0.00    +0.388 C 
ATOM     13  O   UNL     1       2.394   1.226   1.241  0.00  0.00    -0.241 OA
ATOM     14  O   UNL     1       0.259   1.377   1.831  0.00  0.00    -0.241 OA
ENDBRANCH  10  12
ENDBRANCH   3   5
BRANCH   1  15
ATOM     15  C   UNL     1       6.177   3.018   0.328  0.00  0.00    +0.325 C 
BRANCH  15  16
ATOM     16  O   UNL     1       7.242   3.944   0.550  0.00  0.00    -0.479 OA
BRANCH  16  24
ATOM     17  C   UNL     1      10.793   5.968   3.086  0.00  0.00    +0.056 C 
ATOM     18  C   UNL     1      10.883   6.001   1.559  0.00  0.00    +0.109 C 
ATOM     19  C   UNL     1      11.834   4.896   1.041  0.00  0.00    +0.086 C 
ATOM     20  C   UNL     1      10.873   3.754   0.774  0.00  0.00    +0.002 A 
ATOM     21  C   UNL     1      11.073   2.406   0.568  0.00  0.00    +0.007 A 
ATOM     22  C   UNL     1       9.993   1.569   0.354  0.00  0.00    +0.004 A 
ATOM     23  C   UNL     1       8.711   2.088   0.351  0.00  0.00    +0.049 A 
ATOM     24  C   UNL     1       8.506   3.441   0.555  0.00  0.00    +0.163 A 
ATOM     25  C   UNL     1       9.594   4.293   0.761  0.00  0.00    +0.166 A 
ATOM     26  O   UNL     1       9.623   5.639   0.967  0.00  0.00    -0.482 OA
ATOM     27  C   UNL     1      11.335   7.379   1.070  0.00  0.00    +0.056 C 
ENDBRANCH  16  24
ENDBRANCH  15  16
ENDBRANCH   1  15
TORSDOF 5
