REMARK  Name = ZINC16677132
REMARK  4 active torsions:
REMARK  status: ('A' for Active; 'I' for Inactive)
REMARK    1  A    between atoms: C_1  and  C_2
REMARK    2  A    between atoms: N_8  and  C_11
REMARK    3  A    between atoms: C_14  and  S_17
REMARK    4  A    between atoms: S_17  and  N_20
REMARK                            x       y       z     vdW  Elec       q    Type
REMARK                         _______ _______ _______ _____ _____    ______ ____
ROOT
ATOM      1  C   UNL     1      -1.163   2.478   0.021  0.00  0.00    +0.059 A 
ATOM      2  C   UNL     1      -2.361   1.995  -0.488  0.00  0.00    +0.027 A 
ATOM      3  C   UNL     1      -3.489   2.793  -0.472  0.00  0.00    +0.030 A 
ATOM      4  C   UNL     1      -3.422   4.075   0.042  0.00  0.00    +0.109 A 
ATOM      5  C   UNL     1      -2.229   4.561   0.544  0.00  0.00    +0.030 A 
ATOM      6  C   UNL     1      -1.100   3.766   0.536  0.00  0.00    +0.027 A 
ENDROOT
BRANCH   1  13
ATOM      7  C   UNL     1       3.483   1.497   0.885  0.00  0.00    +0.019 C 
ATOM      8  C   UNL     1       2.349   1.082  -0.054  0.00  0.00    +0.097 C 
ATOM      9  C   UNL     1       1.777  -0.290   0.392  0.00  0.00    +0.201 C 
ATOM     10  S   UNL     1       0.002  -0.004   0.002  0.00  0.00    +0.053 S 
ATOM     11  O   UNL     1      -0.826  -0.406   1.085  0.00  0.00    -0.155 OA
ATOM     12  O   UNL     1      -0.292  -0.385  -1.335  0.00  0.00    -0.155 OA
ATOM     13  N   UNL     1      -0.021   1.670   0.011  0.00  0.00    -0.144 N 
ATOM     14  C   UNL     1       1.250   2.100   0.001  0.00  0.00    +0.243 C 
ATOM     15  O   UNL     1       1.504   3.286   0.036  0.00  0.00    -0.273 OA
ENDBRANCH   1  13
BRANCH   4  16
ATOM     16  S   UNL     1      -4.861   5.092   0.055  0.00  0.00    +0.074 S 
ATOM     17  O   UNL     1      -5.979   4.215   0.029  0.00  0.00    -0.150 OA
ATOM     18  O   UNL     1      -4.670   6.053   1.085  0.00  0.00    -0.150 OA
BRANCH  16  19
ATOM     19  N   UNL     1      -4.883   5.929  -1.374  0.00  0.00    -0.194 N 
ATOM     20  C   UNL     1      -5.031   5.254  -2.564  0.00  0.00    +0.169 C 
ATOM     21  N   UNL     1      -5.157   3.974  -2.724  0.00  0.00    -0.262 NA
ATOM     22  C   UNL     1      -5.311   3.377  -4.031  0.00  0.00    +0.155 C 
ATOM     23  C   UNL     1      -5.293   4.420  -5.171  0.00  0.00    +0.100 C 
ATOM     24  S   UNL     1      -5.079   5.960  -4.199  0.00  0.00    -0.088 S 
ATOM     25  H   UNL     1      -4.791   6.894  -1.372  0.00  0.00    +0.176 HD
ENDBRANCH  16  19
ENDBRANCH   4  16
TORSDOF 3
