REMARK  Name = ZINC04024447
REMARK  4 active torsions:
REMARK  status: ('A' for Active; 'I' for Inactive)
REMARK    1  A    between atoms: C_9  and  C_11
REMARK    2  A    between atoms: C_12  and  O_32
REMARK    3  A    between atoms: C_13  and  N_27
REMARK    4  A    between atoms: C_15  and  C_20
REMARK                            x       y       z     vdW  Elec       q    Type
REMARK                         _______ _______ _______ _____ _____    ______ ____
ROOT
ATOM      1  C   UNL     1      -1.170   5.811   0.982  0.00  0.00    +0.025 C 
ATOM      2  C   UNL     1      -2.206   6.534   0.520  0.00  0.00    +0.124 C 
ATOM      3  C   UNL     1      -3.302   7.004   1.439  0.00  0.00    +0.182 C 
ATOM      4  C   UNL     1      -3.458   6.016   2.599  0.00  0.00    +0.058 C 
ATOM      5  C   UNL     1      -2.115   5.890   3.325  0.00  0.00    +0.090 C 
ATOM      6  C   UNL     1      -1.059   5.465   2.337  0.00  0.00    +0.162 C 
ATOM      7  O   UNL     1      -0.104   4.818   2.717  0.00  0.00    -0.292 OA
ENDROOT
BRANCH   1  16
ATOM      8  C   UNL     1      -0.328   1.115  -0.395  0.00  0.00    +0.000 A 
ATOM      9  C   UNL     1      -1.478   1.882  -0.366  0.00  0.00    +0.000 A 
ATOM     10  C   UNL     1      -1.387   3.252  -0.223  0.00  0.00    +0.002 A 
ATOM     11  C   UNL     1      -0.148   3.866  -0.119  0.00  0.00    -0.054 A 
ATOM     12  C   UNL     1       0.999   3.101  -0.150  0.00  0.00    -0.047 A 
ATOM     13  C   UNL     1       0.906   1.724  -0.290  0.00  0.00    +0.004 A 
ATOM     14  C   UNL     1       2.367   3.721  -0.028  0.00  0.00    +0.016 C 
ATOM     15  C   UNL     1       2.286   5.223  -0.300  0.00  0.00    -0.077 C 
ATOM     16  C   UNL     1      -0.099   5.365   0.021  0.00  0.00    -0.003 C 
ATOM     17  N   UNL     1       1.210   5.794   0.532  0.00  0.00    +0.387 N 
ATOM     18  H   UNL     1       1.266   6.819   0.505  0.00  0.00    -0.085 HD
ATOM     19  H   UNL     1       1.320   5.471   1.500  0.00  0.00    -0.085 HD
ENDBRANCH   1  16
BRANCH   4  20
ATOM     20  C   UNL     1      -4.505   6.523   3.557  0.00  0.00    -0.041 A 
ATOM     21  C   UNL     1      -4.339   7.748   4.175  0.00  0.00    +0.007 A 
ATOM     22  C   UNL     1      -5.301   8.217   5.050  0.00  0.00    +0.038 A 
ATOM     23  C   UNL     1      -6.425   7.454   5.315  0.00  0.00    +0.123 A 
ATOM     24  C   UNL     1      -6.587   6.224   4.700  0.00  0.00    +0.038 A 
ATOM     25  C   UNL     1      -5.627   5.760   3.821  0.00  0.00    +0.007 A 
ATOM     26  F   UNL     1      -7.363   7.908   6.175  0.00  0.00    -0.205 F 
ENDBRANCH   4  20
BRANCH   3  27
ATOM     27  N   UNL     1      -2.957   8.326   1.967  0.00  0.00    -0.241 N 
ATOM     28  C   UNL     1      -1.728   8.774   2.276  0.00  0.00    +0.219 A 
ATOM     29  N   UNL     1      -1.842  10.002   2.715  0.00  0.00    -0.223 NA
ATOM     30  C   UNL     1      -3.122  10.370   2.700  0.00  0.00    +0.245 A 
ATOM     31  N   UNL     1      -3.844   9.379   2.245  0.00  0.00    -0.158 NA
ENDBRANCH   3  27
BRANCH   2  32
ATOM     32  O   UNL     1      -2.266   6.840  -0.790  0.00  0.00    -0.509 OA
ATOM     33  H   UNL     1      -3.090   7.377  -0.970  0.00  0.00    +0.292 HD
ENDBRANCH   2  32
TORSDOF 4
