REMARK  Name = ZINC45665887
REMARK  8 active torsions:
REMARK  status: ('A' for Active; 'I' for Inactive)
REMARK    1  A    between atoms: C_1  and  C_2
REMARK    2  A    between atoms: C_4  and  N_22
REMARK    3  A    between atoms: C_5  and  S_9
REMARK    4  A    between atoms: C_7  and  C_8
REMARK    5  A    between atoms: S_9  and  N_12
REMARK    6  A    between atoms: C_14  and  C_21
REMARK    7  A    between atoms: C_17  and  C_19
REMARK    8  A    between atoms: C_17  and  C_20
REMARK                            x       y       z     vdW  Elec       q    Type
REMARK                         _______ _______ _______ _____ _____    ______ ____
ROOT
ATOM      1  S   UNL     1      -0.637  -4.409   0.419  0.00  0.00    +0.063 S 
ATOM      2  O   UNL     1      -1.134  -3.686   1.537  0.00  0.00    -0.153 OA
ATOM      3  O   UNL     1       0.127  -3.793  -0.608  0.00  0.00    -0.153 OA
ENDROOT
BRANCH   1   4
ATOM      4  N   UNL     1      -1.948  -5.102  -0.317  0.00  0.00    -0.171 NA
ATOM      5  C   UNL     1      -3.235  -5.224   0.386  0.00  0.00    +0.140 C 
ATOM      6  C   UNL     1      -4.337  -4.664  -0.521  0.00  0.00    +0.132 C 
ATOM      7  O   UNL     1      -4.253  -5.288  -1.805  0.00  0.00    -0.368 OA
ATOM      8  C   UNL     1      -3.030  -5.034  -2.500  0.00  0.00    +0.079 C 
ATOM      9  C   UNL     1      -1.863  -5.608  -1.696  0.00  0.00    +0.144 C 
ATOM     10  C   UNL     1      -3.078  -5.696  -3.878  0.00  0.00    +0.042 C 
ATOM     11  C   UNL     1      -2.839  -3.525  -2.664  0.00  0.00    +0.042 C 
ATOM     12  C   UNL     1      -5.705  -4.952   0.099  0.00  0.00    +0.039 C 
ENDBRANCH   1   4
BRANCH   1  17
ATOM     13  C   UNL     1       2.751  -8.895   2.626  0.00  0.00    +0.044 C 
ATOM     14  C   UNL     1       1.902  -7.776   2.078  0.00  0.00    -0.046 A 
ATOM     15  C   UNL     1       0.641  -7.550   2.595  0.00  0.00    +0.028 A 
ATOM     16  C   UNL     1      -0.140  -6.519   2.089  0.00  0.00    +0.051 A 
ATOM     17  C   UNL     1       0.350  -5.718   1.065  0.00  0.00    +0.126 A 
ATOM     18  C   UNL     1       1.611  -5.950   0.553  0.00  0.00    +0.034 A 
ATOM     19  C   UNL     1       2.389  -6.975   1.062  0.00  0.00    -0.046 A 
ATOM     20  C   UNL     1       3.767  -7.221   0.505  0.00  0.00    +0.044 C 
BRANCH  16  21
ATOM     21  N   UNL     1      -1.415  -6.287   2.609  0.00  0.00    -0.356 N 
ATOM     22  H   UNL     1      -1.809  -6.922   3.229  0.00  0.00    +0.142 HD
ATOM     23  H   UNL     1      -1.908  -5.492   2.351  0.00  0.00    +0.142 HD
ENDBRANCH  16  21
ENDBRANCH   1  17
TORSDOF 3
