REMARK  Name = ZINC14128695
REMARK  10 active torsions:
REMARK  status: ('A' for Active; 'I' for Inactive)
REMARK    1  A    between atoms: C_1  and  C_2
REMARK    2  A    between atoms: C_5  and  N_9
REMARK    3  A    between atoms: C_6  and  C_8
REMARK    4  A    between atoms: C_10  and  S_14
REMARK    5  A    between atoms: S_14  and  C_15
REMARK    6  A    between atoms: C_15  and  C_17
REMARK    7  A    between atoms: C_15  and  C_18
REMARK    8  A    between atoms: N_20  and  C_21
REMARK    9  A    between atoms: C_26  and  C_31
REMARK   10  A    between atoms: C_28  and  C_30
REMARK                            x       y       z     vdW  Elec       q    Type
REMARK                         _______ _______ _______ _____ _____    ______ ____
ROOT
ATOM      1  S   UNL     1      -3.303   0.501   6.628  0.00  0.00    -0.072 S 
ENDROOT
BRANCH   1   3
ATOM      2  N   UNL     1      -3.523   1.349   9.277  0.00  0.00    -0.187 N 
ATOM      3  C   UNL     1      -3.989   1.363   8.003  0.00  0.00    +0.215 A 
ATOM      4  N   UNL     1      -5.052   2.137   7.989  0.00  0.00    -0.101 NA
ATOM      5  N   UNL     1      -5.280   2.609   9.161  0.00  0.00    -0.022 NA
ATOM      6  N   UNL     1      -4.397   2.182   9.997  0.00  0.00    -0.038 NA
BRANCH   2  11
ATOM      7  C   UNL     1       0.987  -1.462  11.270  0.00  0.00    +0.044 C 
ATOM      8  C   UNL     1      -0.210  -0.716  10.741  0.00  0.00    -0.050 A 
ATOM      9  C   UNL     1      -1.135  -1.369   9.947  0.00  0.00    +0.005 A 
ATOM     10  C   UNL     1      -2.233  -0.688   9.460  0.00  0.00    +0.028 A 
ATOM     11  C   UNL     1      -2.409   0.655   9.770  0.00  0.00    +0.073 A 
ATOM     12  C   UNL     1      -1.476   1.309  10.563  0.00  0.00    -0.025 A 
ATOM     13  C   UNL     1      -0.383   0.621  11.052  0.00  0.00    +0.008 A 
ATOM     14  C   UNL     1      -1.660   2.767  10.896  0.00  0.00    +0.046 C 
ENDBRANCH   2  11
ENDBRANCH   1   3
BRANCH   1  15
ATOM     15  C   UNL     1      -4.459   1.007   5.330  0.00  0.00    +0.137 C 
ATOM     16  C   UNL     1      -5.850   0.450   5.641  0.00  0.00    +0.029 C 
BRANCH  15  17
ATOM     17  C   UNL     1      -3.989   0.472   4.002  0.00  0.00    +0.226 C 
ATOM     18  O   UNL     1      -3.286  -0.515   3.960  0.00  0.00    -0.275 OA
ATOM     19  N   UNL     1      -4.351   1.091   2.861  0.00  0.00    -0.311 N 
ATOM     20  H   UNL     1      -4.913   1.880   2.894  0.00  0.00    +0.149 HD
BRANCH  19  21
ATOM     21  C   UNL     1      -3.894   0.571   1.569  0.00  0.00    +0.076 C 
ATOM     22  C   UNL     1      -2.504   1.128   1.258  0.00  0.00    +0.022 C 
ATOM     23  C   UNL     1      -2.027   0.585  -0.090  0.00  0.00    +0.002 C 
ATOM     24  C   UNL     1      -3.005   1.013  -1.187  0.00  0.00    +0.003 C 
ATOM     25  C   UNL     1      -4.395   0.456  -0.876  0.00  0.00    -0.009 C 
ATOM     26  C   UNL     1      -4.872   0.999   0.473  0.00  0.00    +0.009 C 
ATOM     27  C   UNL     1      -6.263   0.442   0.784  0.00  0.00    +0.009 C 
ATOM     28  C   UNL     1      -5.373   0.884  -1.972  0.00  0.00    +0.008 C 
ENDBRANCH  19  21
ENDBRANCH  15  17
ENDBRANCH   1  15
TORSDOF 5
