REMARK  Name = ZINC15674012
REMARK  6 active torsions:
REMARK  status: ('A' for Active; 'I' for Inactive)
REMARK    1  A    between atoms: C_9  and  C_12
REMARK    2  A    between atoms: N_14  and  C_15
REMARK    3  A    between atoms: C_15  and  C_16
REMARK    4  A    between atoms: C_16  and  C_17
REMARK    5  A    between atoms: C_20  and  S_23
REMARK    6  A    between atoms: S_23  and  N_26
REMARK                            x       y       z     vdW  Elec       q    Type
REMARK                         _______ _______ _______ _____ _____    ______ ____
ROOT
ATOM      1  C   UNL     1       6.060   0.684   0.547  0.00  0.00    +0.266 C 
ATOM      2  O   UNL     1       6.552   1.722   0.942  0.00  0.00    -0.268 OA
ATOM      3  N   UNL     1       6.836  -0.403   0.366  0.00  0.00    -0.310 N 
ATOM      4  H   UNL     1       6.444  -1.232   0.051  0.00  0.00    +0.149 HD
ENDROOT
BRANCH   1  13
ATOM      5  C   UNL     1      -1.216   1.750   0.017  0.00  0.00    +0.001 A 
ATOM      6  C   UNL     1      -1.241   3.135   0.030  0.00  0.00    +0.001 A 
ATOM      7  C   UNL     1      -0.063   3.856   0.018  0.00  0.00    +0.015 A 
ATOM      8  C   UNL     1       1.158   3.194  -0.003  0.00  0.00    +0.019 A 
ATOM      9  C   UNL     1       1.185   1.790   0.000  0.00  0.00    +0.034 A 
ATOM     10  C   UNL     1      -0.013   1.076   0.008  0.00  0.00    +0.013 A 
ATOM     11  C   UNL     1       2.477   1.084   0.020  0.00  0.00    +0.173 A 
ATOM     12  C   UNL     1       3.664   1.649   0.398  0.00  0.00    +0.042 A 
ATOM     13  C   UNL     1       4.606   0.613   0.263  0.00  0.00    +0.172 A 
ATOM     14  N   UNL     1       3.932  -0.433  -0.168  0.00  0.00    -0.073 NA
ATOM     15  O   UNL     1       2.753  -0.184  -0.307  0.00  0.00    -0.354 OA
ATOM     16  C   UNL     1       3.848   3.068   0.847  0.00  0.00    +0.115 C 
ATOM     17  S   UNL     1       2.658   4.118  -0.039  0.00  0.00    -0.120 S 
ENDBRANCH   1  13
BRANCH   3  18
ATOM     18  C   UNL     1       8.272  -0.333   0.647  0.00  0.00    +0.109 C 
BRANCH  18  19
ATOM     19  C   UNL     1       8.915  -1.692   0.362  0.00  0.00    +0.054 C 
BRANCH  19  20
ATOM     20  C   UNL     1      10.392  -1.619   0.650  0.00  0.00    -0.046 A 
ATOM     21  C   UNL     1      11.275  -1.258  -0.350  0.00  0.00    +0.005 A 
ATOM     22  C   UNL     1      12.630  -1.187  -0.084  0.00  0.00    +0.029 A 
ATOM     23  C   UNL     1      13.102  -1.486   1.179  0.00  0.00    +0.105 A 
ATOM     24  C   UNL     1      12.220  -1.853   2.179  0.00  0.00    +0.029 A 
ATOM     25  C   UNL     1      10.865  -1.920   1.914  0.00  0.00    +0.005 A 
BRANCH  23  26
ATOM     26  S   UNL     1      14.830  -1.401   1.517  0.00  0.00    +0.056 S 
ATOM     27  O   UNL     1      15.386  -0.506   0.563  0.00  0.00    -0.153 OA
ATOM     28  O   UNL     1      14.960  -1.199   2.918  0.00  0.00    -0.153 OA
BRANCH  26  29
ATOM     29  N   UNL     1      15.467  -2.894   1.193  0.00  0.00    -0.204 NA
ATOM     30  H   UNL     1      14.892  -3.609   0.878  0.00  0.00    +0.144 HD
ATOM     31  H   UNL     1      16.415  -3.054   1.317  0.00  0.00    +0.144 HD
ENDBRANCH  26  29
ENDBRANCH  23  26
ENDBRANCH  19  20
ENDBRANCH  18  19
ENDBRANCH   3  18
TORSDOF 6
