REMARK  Name = ZINC22923837
REMARK  6 active torsions:
REMARK  status: ('A' for Active; 'I' for Inactive)
REMARK    1  A    between atoms: C_4  and  C_7
REMARK    2  A    between atoms: C_8  and  C_9
REMARK    3  A    between atoms: C_9  and  N_10
REMARK    4  A    between atoms: N_13  and  C_16
REMARK    5  A    between atoms: C_23  and  S_25
REMARK    6  A    between atoms: S_25  and  C_28
REMARK                            x       y       z     vdW  Elec       q    Type
REMARK                         _______ _______ _______ _____ _____    ______ ____
ROOT
ATOM      1  N   UNL     1       5.370  -3.644   1.255  0.00  0.00    +0.384 N 
ATOM      2  C   UNL     1       4.297  -4.618   1.015  0.00  0.00    -0.063 C 
ATOM      3  C   UNL     1       4.252  -5.622   2.168  0.00  0.00    +0.066 C 
ATOM      4  N   UNL     1       5.548  -6.309   2.267  0.00  0.00    -0.299 NA
ATOM      5  C   UNL     1       6.635  -5.344   2.482  0.00  0.00    +0.066 C 
ATOM      6  C   UNL     1       6.660  -4.342   1.326  0.00  0.00    -0.063 C 
ATOM      7  H   UNL     1       5.199  -3.164   2.125  0.00  0.00    -0.081 HD
ENDROOT
BRANCH   4   8
ATOM      8  C   UNL     1       5.526  -7.324   3.329  0.00  0.00    +0.103 C 
ATOM      9  C   UNL     1       5.157  -6.639   4.659  0.00  0.00    +0.186 C 
ATOM     10  S   UNL     1       3.717  -7.620   5.253  0.00  0.00    -0.028 S 
ATOM     11  O   UNL     1       2.516  -6.963   4.873  0.00  0.00    -0.174 OA
ATOM     12  O   UNL     1       3.924  -7.977   6.613  0.00  0.00    -0.174 OA
ATOM     13  C   UNL     1       3.957  -9.111   4.190  0.00  0.00    +0.194 C 
ATOM     14  C   UNL     1       4.553  -8.432   2.928  0.00  0.00    +0.176 C 
BRANCH  14  15
ATOM     15  S   UNL     1       5.432  -9.675   1.942  0.00  0.00    +0.009 S 
ATOM     16  O   UNL     1       5.840  -9.117   0.700  0.00  0.00    -0.168 OA
ATOM     17  O   UNL     1       6.357 -10.381   2.757  0.00  0.00    -0.168 OA
BRANCH  15  18
ATOM     18  C   UNL     1       4.206 -10.867   1.518  0.00  0.00    +0.126 A 
ATOM     19  C   UNL     1       3.394 -10.908   0.432  0.00  0.00    +0.035 A 
ATOM     20  C   UNL     1       2.497 -11.951   0.305  0.00  0.00    +0.009 A 
ATOM     21  C   UNL     1       2.455 -12.903   1.270  0.00  0.00    +0.047 A 
ATOM     22  S   UNL     1       3.714 -12.338   2.402  0.00  0.00    -0.078 S 
ENDBRANCH  15  18
ENDBRANCH  14  15
ENDBRANCH   4   8
BRANCH   1  23
ATOM     23  C   UNL     1       5.401  -2.669   0.156  0.00  0.00    -0.051 C 
BRANCH  23  25
ATOM     24  C   UNL     1       4.174  -0.544   0.210  0.00  0.00    +0.002 C 
ATOM     25  C   UNL     1       4.125  -1.868   0.159  0.00  0.00    -0.045 C 
BRANCH  24  29
ATOM     26  C   UNL     1       0.577   1.715   0.218  0.00  0.00    +0.000 A 
ATOM     27  C   UNL     1       1.798   2.364   0.268  0.00  0.00    +0.001 A 
ATOM     28  C   UNL     1       2.970   1.636   0.266  0.00  0.00    +0.008 A 
ATOM     29  C   UNL     1       2.922   0.242   0.213  0.00  0.00    -0.025 A 
ATOM     30  C   UNL     1       1.687  -0.406   0.163  0.00  0.00    +0.008 A 
ATOM     31  C   UNL     1       0.523   0.334   0.165  0.00  0.00    +0.001 A 
ENDBRANCH  24  29
ENDBRANCH  23  25
ENDBRANCH   1  23
TORSDOF 6
