REMARK  Name = ZINC37192902
REMARK  5 active torsions:
REMARK  status: ('A' for Active; 'I' for Inactive)
REMARK    1  A    between atoms: C_1  and  C_2
REMARK    2  A    between atoms: C_5  and  S_9
REMARK    3  A    between atoms: C_6  and  N_8
REMARK    4  A    between atoms: S_9  and  C_10
REMARK    5  A    between atoms: C_10  and  C_11
REMARK                            x       y       z     vdW  Elec       q    Type
REMARK                         _______ _______ _______ _____ _____    ______ ____
ROOT
ATOM      1  C   UNL     1       0.058  -4.960  -1.801  0.00  0.00    +0.130 C 
ENDROOT
BRANCH   1   2
ATOM      2  C   UNL     1       0.077  -6.459  -1.958  0.00  0.00    +0.059 A 
ATOM      3  C   UNL     1      -1.071  -7.127  -2.337  0.00  0.00    +0.094 A 
ATOM      4  C   UNL     1      -1.029  -8.519  -2.476  0.00  0.00    +0.259 A 
ATOM      5  O   UNL     1      -2.026  -9.139  -2.811  0.00  0.00    -0.267 OA
ATOM      6  N   UNL     1       0.132  -9.166  -2.236  0.00  0.00    -0.268 N 
ATOM      7  C   UNL     1       0.189 -10.520  -2.367  0.00  0.00    +0.096 A 
ATOM      8  C   UNL     1       1.340 -11.190  -2.131  0.00  0.00    +0.018 A 
ATOM      9  C   UNL     1       2.494 -10.493  -1.746  0.00  0.00    +0.005 A 
ATOM     10  C   UNL     1       2.447  -9.137  -1.612  0.00  0.00    +0.047 A 
ATOM     11  C   UNL     1       1.241  -8.458  -1.863  0.00  0.00    +0.140 A 
ATOM     12  N   UNL     1       1.194  -7.133  -1.737  0.00  0.00    -0.233 NA
ENDBRANCH   1   2
BRANCH   1  13
ATOM     13  S   UNL     1       0.062  -4.537  -0.037  0.00  0.00    -0.117 S 
BRANCH  13  18
ATOM     14  C   UNL     1      -0.018   1.503   0.010  0.00  0.00    +0.044 C 
ATOM     15  C   UNL     1       0.002  -0.004   0.002  0.00  0.00    -0.049 A 
ATOM     16  C   UNL     1       0.006  -0.687  -1.200  0.00  0.00    +0.004 A 
ATOM     17  C   UNL     1       0.024  -2.069  -1.215  0.00  0.00    +0.017 A 
ATOM     18  C   UNL     1       0.039  -2.775  -0.021  0.00  0.00    +0.029 A 
ATOM     19  C   UNL     1       0.036  -2.086   1.192  0.00  0.00    +0.038 A 
ATOM     20  C   UNL     1       0.023  -0.700   1.197  0.00  0.00    +0.027 A 
BRANCH  19  21
ATOM     21  N   UNL     1       0.051  -2.792   2.401  0.00  0.00    -0.357 N 
ATOM     22  H   UNL     1       0.063  -3.762   2.395  0.00  0.00    +0.142 HD
ATOM     23  H   UNL     1       0.049  -2.312   3.243  0.00  0.00    +0.142 HD
ENDBRANCH  19  21
ENDBRANCH  13  18
ENDBRANCH   1  13
TORSDOF 4
