REMARK  Name = ZINC04807654
REMARK  6 active torsions:
REMARK  status: ('A' for Active; 'I' for Inactive)
REMARK    1  A    between atoms: C_1  and  C_2
REMARK    2  A    between atoms: C_12  and  C_14
REMARK    3  A    between atoms: C_14  and  C_16
REMARK    4  A    between atoms: C_14  and  S_17
REMARK    5  A    between atoms: S_17  and  C_18
REMARK    6  A    between atoms: N_22  and  C_23
REMARK                            x       y       z     vdW  Elec       q    Type
REMARK                         _______ _______ _______ _____ _____    ______ ____
ROOT
ATOM      1  C   UNL     1       1.961   6.417  -1.201  0.00  0.00    +0.029 C 
ATOM      2  C   UNL     1       1.587   5.548   0.001  0.00  0.00    +0.083 C 
ATOM      3  C   UNL     1       2.291   4.183  -0.088  0.00  0.00    +0.059 C 
ATOM      4  C   UNL     1       1.163   3.177  -0.153  0.00  0.00    -0.024 A 
ATOM      5  C   UNL     1       1.184   1.798  -0.243  0.00  0.00    +0.005 A 
ATOM      6  C   UNL     1      -0.001   1.088  -0.289  0.00  0.00    +0.000 A 
ATOM      7  C   UNL     1      -1.209   1.762  -0.250  0.00  0.00    +0.002 A 
ATOM      8  C   UNL     1      -1.234   3.136  -0.155  0.00  0.00    +0.024 A 
ATOM      9  C   UNL     1      -0.041   3.861  -0.108  0.00  0.00    +0.040 A 
ATOM     10  N   UNL     1       0.154   5.243  -0.018  0.00  0.00    -0.267 N 
ATOM     11  C   UNL     1      -0.832   6.160   0.041  0.00  0.00    +0.233 C 
ATOM     12  O   UNL     1      -0.561   7.334   0.178  0.00  0.00    -0.274 OA
ENDROOT
BRANCH  11  13
ATOM     13  C   UNL     1      -2.272   5.726  -0.062  0.00  0.00    +0.137 C 
ATOM     14  C   UNL     1      -2.579   5.318  -1.505  0.00  0.00    +0.029 C 
BRANCH  13  15
ATOM     15  S   UNL     1      -3.351   7.097   0.420  0.00  0.00    -0.072 S 
BRANCH  15  16
ATOM     16  C   UNL     1      -4.916   6.291   0.357  0.00  0.00    +0.210 A 
ATOM     17  N   UNL     1      -5.136   5.036   0.030  0.00  0.00    -0.102 NA
ATOM     18  N   UNL     1      -6.391   4.769   0.088  0.00  0.00    -0.022 NA
ATOM     19  N   UNL     1      -7.056   5.816   0.441  0.00  0.00    -0.043 NA
ATOM     20  N   UNL     1      -6.120   6.848   0.629  0.00  0.00    -0.223 N 
ATOM     21  C   UNL     1      -6.389   8.230   1.034  0.00  0.00    +0.177 C 
ENDBRANCH  15  16
ENDBRANCH  13  15
ENDBRANCH  11  13
TORSDOF 3
