REMARK  Name = ZINC01442476
REMARK  5 active torsions:
REMARK  status: ('A' for Active; 'I' for Inactive)
REMARK    1  A    between atoms: C_3  and  C_6
REMARK    2  A    between atoms: C_6  and  N_7
REMARK    3  A    between atoms: N_7  and  C_8
REMARK    4  A    between atoms: N_13  and  C_16
REMARK    5  A    between atoms: N_25  and  C_26
REMARK                            x       y       z     vdW  Elec       q    Type
REMARK                         _______ _______ _______ _____ _____    ______ ____
ROOT
ATOM      1  N   UNL     1       4.242   0.683   1.275  0.00  0.00    -0.266 N 
ATOM      2  C   UNL     1       4.475   1.817   1.964  0.00  0.00    +0.307 C 
ATOM      3  O   UNL     1       5.071   1.774   3.022  0.00  0.00    -0.252 OA
ATOM      4  N   UNL     1       4.046   3.000   1.480  0.00  0.00    -0.269 N 
ATOM      5  H   UNL     1       3.513   3.027   0.670  0.00  0.00    +0.156 HD
ENDROOT
BRANCH   1   6
ATOM      6  C   UNL     1       4.709  -0.603   1.801  0.00  0.00    +0.173 C 
ATOM      7  C   UNL     1       4.116  -0.864   3.200  0.00  0.00    +0.128 C 
ATOM      8  C   UNL     1       5.335  -0.948   4.092  0.00  0.00    +0.228 C 
ATOM      9  O   UNL     1       5.318  -1.146   5.288  0.00  0.00    -0.275 OA
ATOM     10  N   UNL     1       6.436  -0.769   3.351  0.00  0.00    -0.209 N 
ATOM     11  C   UNL     1       6.202  -0.568   2.045  0.00  0.00    +0.247 C 
ATOM     12  O   UNL     1       7.048  -0.387   1.196  0.00  0.00    -0.273 OA
BRANCH  10  13
ATOM     13  C   UNL     1       7.729  -0.792   3.895  0.00  0.00    +0.044 A 
ATOM     14  C   UNL     1       8.132   0.207   4.770  0.00  0.00    +0.027 A 
ATOM     15  C   UNL     1       9.406   0.183   5.304  0.00  0.00    +0.040 A 
ATOM     16  C   UNL     1      10.280  -0.837   4.968  0.00  0.00    +0.124 A 
ATOM     17  C   UNL     1       9.879  -1.834   4.095  0.00  0.00    +0.040 A 
ATOM     18  C   UNL     1       8.604  -1.817   3.563  0.00  0.00    +0.027 A 
ATOM     19  F   UNL     1      11.525  -0.859   5.491  0.00  0.00    -0.205 F 
ENDBRANCH  10  13
ENDBRANCH   1   6
BRANCH   4  20
ATOM     20  C   UNL     1       4.370   4.188   2.146  0.00  0.00    +0.035 A 
ATOM     21  C   UNL     1       4.624   5.345   1.421  0.00  0.00    +0.026 A 
ATOM     22  C   UNL     1       4.943   6.516   2.080  0.00  0.00    +0.040 A 
ATOM     23  C   UNL     1       5.009   6.537   3.463  0.00  0.00    +0.124 A 
ATOM     24  C   UNL     1       4.756   5.385   4.188  0.00  0.00    +0.040 A 
ATOM     25  C   UNL     1       4.431   4.213   3.533  0.00  0.00    +0.026 A 
ATOM     26  F   UNL     1       5.321   7.684   4.106  0.00  0.00    -0.205 F 
ENDBRANCH   4  20
BRANCH   1  27
ATOM     27  C   UNL     1       3.523   0.735  -0.001  0.00  0.00    +0.184 C 
BRANCH  27  30
ATOM     28  C   UNL     1      -0.093   1.006   0.658  0.00  0.00    +0.041 A 
ATOM     29  C   UNL     1       1.181   1.593   0.476  0.00  0.00    +0.046 A 
ATOM     30  C   UNL     1       2.045   0.587   0.250  0.00  0.00    +0.122 A 
ATOM     31  O   UNL     1       1.366  -0.572   0.284  0.00  0.00    -0.466 OA
ATOM     32  C   UNL     1       0.069  -0.323   0.531  0.00  0.00    +0.195 A 
ENDBRANCH  27  30
ENDBRANCH   1  27
TORSDOF 5
