REMARK  Name = ZINC05351858
REMARK  8 active torsions:
REMARK  status: ('A' for Active; 'I' for Inactive)
REMARK    1  A    between atoms: C_1  and  C_2
REMARK    2  A    between atoms: C_2  and  C_3
REMARK    3  A    between atoms: C_2  and  C_4
REMARK    4  A    between atoms: C_4  and  C_5
REMARK    5  A    between atoms: N_13  and  C_16
REMARK    6  A    between atoms: C_16  and  C_17
REMARK    7  A    between atoms: C_16  and  C_18
REMARK    8  A    between atoms: C_16  and  C_19
REMARK                            x       y       z     vdW  Elec       q    Type
REMARK                         _______ _______ _______ _____ _____    ______ ____
ROOT
ATOM      1  C   UNL     1      -1.406  -2.075   0.003  0.00  0.00    -0.057 C 
ATOM      2  C   UNL     1      -2.827  -2.641  -0.201  0.00  0.00    +0.073 C 
ATOM      3  C   UNL     1      -2.884  -3.906   0.700  0.00  0.00    +0.088 C 
ATOM      4  C   UNL     1      -3.014  -5.037  -0.296  0.00  0.00    +0.225 C 
ATOM      5  O   UNL     1      -3.087  -6.213  -0.014  0.00  0.00    -0.275 OA
ATOM      6  N   UNL     1      -3.038  -4.536  -1.536  0.00  0.00    -0.236 N 
ATOM      7  C   UNL     1      -2.946  -3.188  -1.605  0.00  0.00    +0.224 C 
ATOM      8  O   UNL     1      -2.954  -2.522  -2.618  0.00  0.00    -0.275 OA
ATOM      9  C   UNL     1      -1.514  -3.956   1.386  0.00  0.00    +0.050 C 
ATOM     10  N   UNL     1      -0.975  -2.589   1.330  0.00  0.00    +0.394 N 
ATOM     11  C   UNL     1      -1.621  -4.464   2.795  0.00  0.00    -0.026 A 
ATOM     12  C   UNL     1      -2.310  -4.035   3.908  0.00  0.00    +0.004 A 
ATOM     13  C   UNL     1      -2.207  -4.731   5.099  0.00  0.00    +0.002 A 
ATOM     14  C   UNL     1      -1.411  -5.860   5.169  0.00  0.00    +0.022 A 
ATOM     15  C   UNL     1      -0.719  -6.295   4.056  0.00  0.00    +0.062 A 
ATOM     16  C   UNL     1      -0.818  -5.598   2.853  0.00  0.00    +0.054 A 
ATOM     17  N   UNL     1      -0.226  -5.835   1.609  0.00  0.00    -0.285 N 
ATOM     18  C   UNL     1      -0.585  -4.915   0.693  0.00  0.00    +0.211 C 
ATOM     19  O   UNL     1      -0.229  -4.870  -0.465  0.00  0.00    -0.277 OA
ATOM     20 CL   UNL     1       0.278  -7.713   4.157  0.00  0.00    -0.082 Cl
ATOM     21  H   UNL     1       0.032  -2.597   1.396  0.00  0.00    -0.083 HD
ATOM     22  H   UNL     1       0.374  -6.575   1.427  0.00  0.00    +0.155 HD
ATOM     23  H   UNL     1      -1.374  -2.033   2.071  0.00  0.00    -0.083 HD
ENDROOT
BRANCH   6  24
ATOM     24  C   UNL     1      -3.159  -5.379  -2.728  0.00  0.00    +0.036 C 
ATOM     25  C   UNL     1      -4.469  -6.167  -2.665  0.00  0.00    +0.031 C 
ATOM     26  C   UNL     1      -3.155  -4.498  -3.979  0.00  0.00    +0.031 C 
ATOM     27  C   UNL     1      -1.980  -6.353  -2.787  0.00  0.00    +0.031 C 
ENDBRANCH   6  24
BRANCH   1  28
ATOM     28  C   UNL     1      -1.438  -0.545   0.011  0.00  0.00    -0.012 C 
BRANCH  28  30
ATOM     29  C   UNL     1       0.831  -0.370  -1.021  0.00  0.00    +0.007 C 
ATOM     30  C   UNL     1      -0.019  -0.005   0.198  0.00  0.00    -0.019 C 
ATOM     31  C   UNL     1      -0.067   1.516   0.349  0.00  0.00    +0.007 C 
ENDBRANCH  28  30
ENDBRANCH   1  28
TORSDOF 3
