REMARK  Name = ZINC62089759
REMARK  3 active torsions:
REMARK  status: ('A' for Active; 'I' for Inactive)
REMARK    1  A    between atoms: C_1  and  C_2
REMARK    2  A    between atoms: N_8  and  S_12
REMARK    3  A    between atoms: S_12  and  C_15
REMARK                            x       y       z     vdW  Elec       q    Type
REMARK                         _______ _______ _______ _____ _____    ______ ____
ROOT
ATOM      1  S   UNL     1       0.400  -2.043   3.829  0.00  0.00    +0.075 S 
ATOM      2  O   UNL     1       0.888  -3.044   4.711  0.00  0.00    -0.150 OA
ATOM      3  O   UNL     1       1.151  -0.880   3.506  0.00  0.00    -0.150 OA
ENDROOT
BRANCH   1   4
ATOM      4  C   UNL     1      -1.130  -1.484   4.500  0.00  0.00    +0.111 A 
ATOM      5  C   UNL     1      -1.605  -0.224   4.176  0.00  0.00    +0.031 A 
ATOM      6  C   UNL     1      -2.804   0.223   4.697  0.00  0.00    +0.030 A 
ATOM      7  C   UNL     1      -3.535  -0.593   5.547  0.00  0.00    +0.067 A 
ATOM      8  C   UNL     1      -3.056  -1.864   5.872  0.00  0.00    +0.069 A 
ATOM      9  C   UNL     1      -1.854  -2.306   5.340  0.00  0.00    +0.056 A 
ATOM     10  N   UNL     1      -3.991  -2.439   6.729  0.00  0.00    -0.306 N 
ATOM     11  H   UNL     1      -3.931  -3.323   7.125  0.00  0.00    +0.170 HD
ATOM     12  C   UNL     1      -4.993  -1.559   6.916  0.00  0.00    +0.325 A 
ATOM     13  O   UNL     1      -5.972  -1.750   7.613  0.00  0.00    -0.247 OA
ATOM     14  N   UNL     1      -4.746  -0.436   6.216  0.00  0.00    -0.306 N 
ATOM     15  H   UNL     1      -5.315   0.349   6.183  0.00  0.00    +0.170 HD
ENDBRANCH   1   4
BRANCH   1  23
ATOM     16  C   UNL     1      -0.018   1.503   0.010  0.00  0.00    +0.044 C 
ATOM     17  C   UNL     1       0.002  -0.004   0.002  0.00  0.00    -0.048 A 
ATOM     18  C   UNL     1       0.006  -0.688  -1.199  0.00  0.00    +0.007 A 
ATOM     19  C   UNL     1       0.024  -2.070  -1.215  0.00  0.00    +0.048 A 
ATOM     20  C   UNL     1       0.038  -2.778  -0.022  0.00  0.00    +0.143 A 
ATOM     21  C   UNL     1       0.037  -2.087   1.186  0.00  0.00    +0.093 A 
ATOM     22  C   UNL     1       0.023  -0.701   1.196  0.00  0.00    +0.031 A 
ATOM     23  N   UNL     1       0.060  -2.799   2.396  0.00  0.00    -0.196 N 
ATOM     24  C   UNL     1      -0.229  -4.242   2.346  0.00  0.00    +0.172 C 
ATOM     25  C   UNL     1       0.501  -4.820   1.125  0.00  0.00    +0.250 C 
ATOM     26  O   UNL     1       0.051  -4.137  -0.047  0.00  0.00    -0.488 OA
ENDBRANCH   1  23
TORSDOF 2
