REMARK  Name = ZINC36695615
REMARK  2 active torsions:
REMARK  status: ('A' for Active; 'I' for Inactive)
REMARK    1  A    between atoms: C_1  and  C_2
REMARK    2  A    between atoms: C_4  and  C_14
REMARK                            x       y       z     vdW  Elec       q    Type
REMARK                         _______ _______ _______ _____ _____    ______ ____
ROOT
ATOM      1  C   UNL     1      -2.273  -0.068  -1.000  0.00  0.00    +0.263 C 
ATOM      2  O   UNL     1      -2.429   1.119  -1.190  0.00  0.00    -0.271 OA
ATOM      3  N   UNL     1      -2.857  -0.964  -1.821  0.00  0.00    -0.261 N 
ATOM      4  C   UNL     1      -3.548  -0.531  -2.941  0.00  0.00    +0.166 A 
ATOM      5  N   UNL     1      -3.738   0.695  -3.368  0.00  0.00    -0.222 NA
ATOM      6  C   UNL     1      -4.440   0.974  -4.489  0.00  0.00    +0.116 A 
ATOM      7  C   UNL     1      -4.716   2.243  -5.054  0.00  0.00    +0.152 A 
ATOM      8  C   UNL     1      -5.453   2.351  -6.207  0.00  0.00    +0.079 A 
ATOM      9  C   UNL     1      -5.951   1.229  -6.857  0.00  0.00    +0.127 A 
ATOM     10  C   UNL     1      -5.698  -0.027  -6.331  0.00  0.00    +0.055 A 
ATOM     11  C   UNL     1      -4.962  -0.143  -5.177  0.00  0.00    +0.046 A 
ATOM     12  S   UNL     1      -4.403  -1.500  -4.176  0.00  0.00    -0.052 S 
ATOM     13  F   UNL     1      -6.674   1.361  -7.991  0.00  0.00    -0.205 F 
ATOM     14  F   UNL     1      -4.250   3.358  -4.452  0.00  0.00    -0.203 F 
ATOM     15  H   UNL     1      -2.793  -1.913  -1.627  0.00  0.00    +0.157 HD
ENDROOT
BRANCH   1  18
ATOM     16  C   UNL     1       0.179   1.347  -0.209  0.00  0.00    +0.056 C 
ATOM     17  C   UNL     1       0.042  -0.172  -0.097  0.00  0.00    +0.220 C 
ATOM     18  C   UNL     1      -1.427  -0.542   0.153  0.00  0.00    +0.299 C 
ATOM     19  O   UNL     1      -1.517  -1.966   0.266  0.00  0.00    -0.472 OA
ATOM     20  C   UNL     1      -0.594  -2.576   1.059  0.00  0.00    +0.163 A 
ATOM     21  C   UNL     1      -0.827  -3.869   1.504  0.00  0.00    +0.049 A 
ATOM     22  C   UNL     1       0.102  -4.503   2.306  0.00  0.00    +0.004 A 
ATOM     23  C   UNL     1       1.266  -3.851   2.668  0.00  0.00    +0.004 A 
ATOM     24  C   UNL     1       1.504  -2.562   2.229  0.00  0.00    +0.049 A 
ATOM     25  C   UNL     1       0.574  -1.919   1.425  0.00  0.00    +0.163 A 
ATOM     26  O   UNL     1       0.819  -0.647   1.008  0.00  0.00    -0.481 OA
ENDBRANCH   1  18
TORSDOF 1
