REMARK  Name = ZINC00398944
REMARK  1 active torsions:
REMARK  status: ('A' for Active; 'I' for Inactive)
REMARK    1  A    between atoms: C_10  and  C_16
REMARK                            x       y       z     vdW  Elec       q    Type
REMARK                         _______ _______ _______ _____ _____    ______ ____
ROOT
ATOM      1  C   UNL     1      -1.241  -1.135  -3.887  0.00  0.00    +0.001 A 
ATOM      2  C   UNL     1       0.090  -0.776  -3.773  0.00  0.00    +0.000 A 
ATOM      3  C   UNL     1       0.606  -0.394  -2.546  0.00  0.00    +0.009 A 
ATOM      4  C   UNL     1      -0.204  -0.370  -1.435  0.00  0.00    +0.019 A 
ATOM      5  C   UNL     1      -1.548  -0.753  -1.536  0.00  0.00    +0.045 A 
ATOM      6  C   UNL     1      -2.062  -1.125  -2.778  0.00  0.00    +0.013 A 
ATOM      7  C   UNL     1      -2.158  -0.665  -0.192  0.00  0.00    +0.250 C 
ATOM      8  O   UNL     1      -3.338  -0.821   0.055  0.00  0.00    -0.270 OA
ATOM      9  N   UNL     1      -1.206  -0.386   0.716  0.00  0.00    -0.262 N 
ATOM     10  C   UNL     1       0.002  -0.004   0.002  0.00  0.00    +0.192 C 
ATOM     11  O   UNL     1       1.215  -0.347   0.559  0.00  0.00    -0.348 OA
ATOM     12  C   UNL     1       1.701   0.501   1.628  0.00  0.00    +0.163 C 
ATOM     13  C   UNL     1       0.948   0.223   2.883  0.00  0.00    +0.030 C 
ATOM     14  C   UNL     1      -0.528   0.572   2.837  0.00  0.00    +0.021 C 
ATOM     15  C   UNL     1      -1.333  -0.537   2.188  0.00  0.00    +0.111 C 
ENDROOT
BRANCH  10  16
ATOM     16  C   UNL     1      -0.018   1.503   0.010  0.00  0.00    +0.007 A 
ATOM     17  C   UNL     1      -1.152   2.176   0.425  0.00  0.00    +0.010 A 
ATOM     18  C   UNL     1      -1.169   3.558   0.439  0.00  0.00    +0.020 A 
ATOM     19  C   UNL     1      -0.056   4.268   0.025  0.00  0.00    +0.041 A 
ATOM     20  C   UNL     1       1.077   3.593  -0.395  0.00  0.00    +0.020 A 
ATOM     21  C   UNL     1       1.095   2.211  -0.403  0.00  0.00    +0.010 A 
ATOM     22 CL   UNL     1      -0.079   6.003   0.036  0.00  0.00    -0.084 Cl
ENDBRANCH  10  16
TORSDOF 1
