REMARK  Name = ZINC32863344
REMARK  6 active torsions:
REMARK  status: ('A' for Active; 'I' for Inactive)
REMARK    1  A    between atoms: C_1  and  C_2
REMARK    2  A    between atoms: C_8  and  N_10
REMARK    3  A    between atoms: N_13  and  C_14
REMARK    4  A    between atoms: C_14  and  C_15
REMARK    5  A    between atoms: C_18  and  S_21
REMARK    6  A    between atoms: S_21  and  N_24
REMARK                            x       y       z     vdW  Elec       q    Type
REMARK                         _______ _______ _______ _____ _____    ______ ____
ROOT
ATOM      1  C   UNL     1       0.579   5.249   5.820  0.00  0.00    -0.030 A 
ATOM      2  C   UNL     1      -0.668   5.833   5.708  0.00  0.00    +0.007 A 
ATOM      3  C   UNL     1      -1.434   6.050   6.839  0.00  0.00    +0.029 A 
ATOM      4  C   UNL     1      -0.948   5.691   8.082  0.00  0.00    +0.105 A 
ATOM      5  C   UNL     1       0.302   5.111   8.194  0.00  0.00    +0.029 A 
ATOM      6  C   UNL     1       1.066   4.890   7.064  0.00  0.00    +0.007 A 
ENDROOT
BRANCH   4   7
ATOM      7  S   UNL     1      -1.921   5.972   9.524  0.00  0.00    +0.061 S 
ATOM      8  O   UNL     1      -3.275   6.027   9.096  0.00  0.00    -0.153 OA
ATOM      9  O   UNL     1      -1.469   5.050  10.506  0.00  0.00    -0.153 OA
BRANCH   7  10
ATOM     10  N   UNL     1      -1.540   7.484  10.084  0.00  0.00    -0.172 NA
ATOM     11  C   UNL     1      -0.456   7.679  11.059  0.00  0.00    +0.137 C 
ATOM     12  C   UNL     1       0.472   8.784  10.528  0.00  0.00    +0.177 C 
ATOM     13  O   UNL     1      -0.309   9.938  10.207  0.00  0.00    -0.377 OA
ATOM     14  C   UNL     1      -1.268   9.726   9.169  0.00  0.00    +0.177 C 
ATOM     15  C   UNL     1      -2.281   8.670   9.626  0.00  0.00    +0.137 C 
ENDBRANCH   7  10
ENDBRANCH   4   7
BRANCH   1  16
ATOM     16  C   UNL     1       1.412   5.008   4.587  0.00  0.00    +0.141 C 
BRANCH  16  20
ATOM     17  N   UNL     1       1.471   2.021   2.444  0.00  0.00    -0.296 N 
ATOM     18  C   UNL     1       1.745   3.244   2.940  0.00  0.00    +0.300 C 
ATOM     19  O   UNL     1       2.561   3.955   2.386  0.00  0.00    -0.253 OA
ATOM     20  N   UNL     1       1.114   3.679   4.049  0.00  0.00    -0.295 N 
ATOM     21  H   UNL     1       0.733   1.377   2.945  0.00  0.00    +0.151 HD
ATOM     22  H   UNL     1       0.376   3.035   4.550  0.00  0.00    +0.151 HD
BRANCH  17  29
ATOM     23  C   UNL     1       2.917  -0.488   2.470  0.00  0.00    +0.009 C 
ATOM     24  C   UNL     1       2.178   0.019   1.231  0.00  0.00    +0.006 C 
ATOM     25  C   UNL     1       0.742  -0.511   1.242  0.00  0.00    +0.005 C 
ATOM     26  C   UNL     1       0.002  -0.004   0.002  0.00  0.00    +0.000 C 
ATOM     27  C   UNL     1      -0.019   1.526   0.010  0.00  0.00    +0.002 C 
ATOM     28  C   UNL     1       1.417   2.055  -0.000  0.00  0.00    +0.022 C 
ATOM     29  C   UNL     1       2.157   1.548   1.239  0.00  0.00    +0.077 C 
ENDBRANCH  17  29
ENDBRANCH  16  20
ENDBRANCH   1  16
TORSDOF 5
