REMARK  Name = ZINC02697562
REMARK  10 active torsions:
REMARK  status: ('A' for Active; 'I' for Inactive)
REMARK    1  A    between atoms: C_1  and  C_2
REMARK    2  A    between atoms: C_2  and  O_3
REMARK    3  A    between atoms: O_3  and  C_4
REMARK    4  A    between atoms: C_4  and  C_6
REMARK    5  A    between atoms: C_7  and  C_32
REMARK    6  A    between atoms: C_14  and  C_15
REMARK    7  A    between atoms: C_19  and  O_22
REMARK    8  A    between atoms: C_20  and  O_21
REMARK    9  A    between atoms: O_22  and  C_23
REMARK   10  A    between atoms: C_25  and  C_27
REMARK                            x       y       z     vdW  Elec       q    Type
REMARK                         _______ _______ _______ _____ _____    ______ ____
ROOT
ATOM      1  C   UNL     1      -0.224  -0.272  -0.682  0.00  0.00    +0.085 C 
ATOM      2  C   UNL     1      -1.323  -1.076  -0.560  0.00  0.00    +0.053 C 
ATOM      3  N   UNL     1      -1.188  -2.390  -0.439  0.00  0.00    -0.228 NA
ATOM      4  C   UNL     1      -0.043  -3.024  -0.413  0.00  0.00    +0.178 A 
ATOM      5  N   UNL     1       1.182  -2.406  -0.515  0.00  0.00    -0.274 N 
ATOM      6  C   UNL     1       2.288  -3.161  -0.476  0.00  0.00    +0.268 A 
ATOM      7  O   UNL     1       3.393  -2.658  -0.564  0.00  0.00    -0.266 OA
ATOM      8  C   UNL     1       2.127  -4.613  -0.326  0.00  0.00    +0.081 A 
ATOM      9  C   UNL     1       3.074  -5.585  -0.261  0.00  0.00    +0.032 C 
ATOM     10  S   UNL     1       0.348  -4.755  -0.253  0.00  0.00    -0.046 S 
ATOM     11  C   UNL     1       1.139  -0.924  -0.662  0.00  0.00    +0.168 C 
ATOM     12  C   UNL     1      -2.701  -0.464  -0.570  0.00  0.00    +0.066 C 
ENDROOT
BRANCH   9  13
ATOM     13  C   UNL     1       2.680  -6.998  -0.303  0.00  0.00    +0.021 A 
ATOM     14  C   UNL     1       1.414  -7.362  -0.782  0.00  0.00    +0.012 A 
ATOM     15  C   UNL     1       1.052  -8.690  -0.826  0.00  0.00    +0.004 A 
ATOM     16  C   UNL     1       1.927  -9.670  -0.387  0.00  0.00    +0.049 A 
ATOM     17  C   UNL     1       3.180  -9.326   0.095  0.00  0.00    +0.162 A 
ATOM     18  C   UNL     1       3.566  -7.992   0.140  0.00  0.00    +0.166 A 
BRANCH  18  19
ATOM     19  O   UNL     1       4.793  -7.651   0.611  0.00  0.00    -0.503 OA
ATOM     20  H   UNL     1       5.485  -8.432   0.958  0.00  0.00    +0.292 HD
ENDBRANCH  18  19
BRANCH  17  21
ATOM     21  O   UNL     1       4.033 -10.295   0.523  0.00  0.00    -0.491 OA
ATOM     22  C   UNL     1       3.572 -11.646   0.448  0.00  0.00    +0.277 C 
ENDBRANCH  17  21
ENDBRANCH   9  13
BRANCH  11  23
ATOM     23  C   UNL     1       1.844  -0.565  -1.945  0.00  0.00    +0.017 A 
ATOM     24  C   UNL     1       2.781   0.389  -2.166  0.00  0.00    +0.013 A 
ATOM     25  C   UNL     1       3.297   0.540  -3.439  0.00  0.00    +0.008 A 
ATOM     26  C   UNL     1       2.843  -0.264  -4.432  0.00  0.00    +0.045 A 
ATOM     27  S   UNL     1       1.655  -1.280  -3.570  0.00  0.00    -0.099 S 
ENDBRANCH  11  23
BRANCH   1  28
ATOM     28  C   UNL     1      -0.358   1.119  -0.817  0.00  0.00    +0.339 C 
ATOM     29  O   UNL     1      -1.464   1.617  -0.931  0.00  0.00    -0.245 OA
BRANCH  28  30
ATOM     30  O   UNL     1       0.740   1.906  -0.825  0.00  0.00    -0.462 OA
BRANCH  30  32
ATOM     31  C   UNL     1       1.879   4.033  -0.953  0.00  0.00    +0.048 C 
ATOM     32  C   UNL     1       0.530   3.312  -0.965  0.00  0.00    +0.229 C 
ENDBRANCH  30  32
ENDBRANCH  28  30
ENDBRANCH   1  28
TORSDOF 7
