REMARK  Name = ZINC00694497
REMARK  3 active torsions:
REMARK  status: ('A' for Active; 'I' for Inactive)
REMARK    1  A    between atoms: C_5  and  C_6
REMARK    2  A    between atoms: N_8  and  C_9
REMARK    3  A    between atoms: C_10  and  C_20
REMARK                            x       y       z     vdW  Elec       q    Type
REMARK                         _______ _______ _______ _____ _____    ______ ____
ROOT
ATOM      1  C   UNL     1      -1.906   2.268   1.210  0.00  0.00    +0.085 A 
ATOM      2  C   UNL     1      -1.294   1.929   0.019  0.00  0.00    +0.068 A 
ATOM      3  C   UNL     1      -1.953   2.307  -1.237  0.00  0.00    -0.023 A 
ATOM      4  C   UNL     1      -3.103   2.986  -1.064  0.00  0.00    -0.004 A 
ATOM      5  S   UNL     1      -3.335   3.094   0.691  0.00  0.00    -0.077 S 
ATOM      6  C   UNL     1      -3.996   3.588  -2.112  0.00  0.00    +0.043 C 
ATOM      7  C   UNL     1      -3.342   4.906  -2.565  0.00  0.00    +0.005 C 
ATOM      8  C   UNL     1      -1.903   4.603  -2.998  0.00  0.00    +0.000 C 
ATOM      9  C   UNL     1      -2.027   3.648  -4.167  0.00  0.00    +0.000 C 
ATOM     10  C   UNL     1      -2.205   2.196  -3.759  0.00  0.00    +0.005 C 
ATOM     11  C   UNL     1      -1.347   1.828  -2.555  0.00  0.00    +0.037 C 
ENDROOT
BRANCH   2  12
ATOM     12  C   UNL     1      -0.014   1.213   0.009  0.00  0.00    +0.244 C 
ATOM     13  O   UNL     1       0.002  -0.004   0.002  0.00  0.00    -0.270 OA
ATOM     14  N   UNL     1       1.143   1.903   0.001  0.00  0.00    -0.325 N 
ATOM     15  H   UNL     1       1.990   1.429  -0.009  0.00  0.00    +0.145 HD
ATOM     16  H   UNL     1       1.130   2.873   0.007  0.00  0.00    +0.145 HD
ENDBRANCH   2  12
BRANCH   1  19
ATOM     17  C   UNL     1      -2.219   2.425   3.551  0.00  0.00    +0.284 C 
ATOM     18  O   UNL     1      -3.261   3.025   3.362  0.00  0.00    -0.266 OA
ATOM     19  N   UNL     1      -1.480   2.011   2.503  0.00  0.00    -0.273 N 
ATOM     20  H   UNL     1      -0.649   1.533   2.654  0.00  0.00    +0.156 HD
BRANCH  17  25
ATOM     21  C   UNL     1      -2.418   2.515   6.064  0.00  0.00    +0.056 A 
ATOM     22  C   UNL     1      -1.636   2.056   7.134  0.00  0.00    +0.058 A 
ATOM     23  C   UNL     1      -0.555   1.440   6.601  0.00  0.00    +0.171 A 
ATOM     24  O   UNL     1      -0.642   1.497   5.266  0.00  0.00    -0.444 OA
ATOM     25  C   UNL     1      -1.768   2.154   4.918  0.00  0.00    +0.191 A 
ATOM     26 BR   UNL     1       0.844   0.628   7.581  0.00  0.00    -0.008 Br
ENDBRANCH  17  25
ENDBRANCH   1  19
TORSDOF 3
