REMARK  Name = ZINC12191238
REMARK  8 active torsions:
REMARK  status: ('A' for Active; 'I' for Inactive)
REMARK    1  A    between atoms: C_1  and  O_2
REMARK    2  A    between atoms: O_2  and  C_3
REMARK    3  A    between atoms: C_3  and  C_5
REMARK    4  A    between atoms: N_10  and  C_24
REMARK    5  A    between atoms: C_16  and  C_17
REMARK    6  A    between atoms: C_16  and  N_58
REMARK    7  A    between atoms: C_18  and  C_19
REMARK    8  A    between atoms: C_24  and  C_25
REMARK                            x       y       z     vdW  Elec       q    Type
REMARK                         _______ _______ _______ _____ _____    ______ ____
ROOT
ATOM      1  C   UNL     1       2.503  -1.596   0.438  0.00  0.00    +0.130 C 
ATOM      2  C   UNL     1       1.753  -2.839   0.973  0.00  0.00    +0.112 C 
ATOM      3  C   UNL     1       0.324  -2.635   0.518  0.00  0.00    +0.217 C 
ATOM      4  O   UNL     1      -0.525  -3.500   0.486  0.00  0.00    -0.276 OA
ATOM      5  N   UNL     1       0.133  -1.354   0.153  0.00  0.00    -0.291 N 
ATOM      6  C   UNL     1       1.359  -0.570   0.315  0.00  0.00    +0.048 C 
ATOM      7  C   UNL     1       1.288   0.280   1.581  0.00  0.00    +0.008 C 
ATOM      8  C   UNL     1       0.186   1.332   1.423  0.00  0.00    -0.076 C 
ATOM      9  C   UNL     1       0.479   1.369  -0.983  0.00  0.00    -0.076 C 
ATOM     10  C   UNL     1       1.590   0.319  -0.905  0.00  0.00    +0.008 C 
ATOM     11  N   UNL     1       0.499   2.180   0.253  0.00  0.00    +0.382 N 
ATOM     12  H   UNL     1       1.436   2.581   0.373  0.00  0.00    -0.081 HD
ENDROOT
BRANCH   1  13
ATOM     13  C   UNL     1       3.123  -1.877  -0.907  0.00  0.00    +0.312 C 
ATOM     14  O   UNL     1       2.639  -2.715  -1.631  0.00  0.00    -0.250 OA
BRANCH  13  16
ATOM     15  C   UNL     1       4.755  -1.520  -2.606  0.00  0.00    +0.280 C 
ATOM     16  O   UNL     1       4.211  -1.197  -1.299  0.00  0.00    -0.468 OA
ENDBRANCH  13  16
ENDBRANCH   1  13
BRANCH  11  17
ATOM     17  C   UNL     1      -0.483   3.280   0.151  0.00  0.00    -0.051 C 
BRANCH  17  18
ATOM     18  C   UNL     1      -0.646   3.923   1.504  0.00  0.00    -0.042 C 
ATOM     19  C   UNL     1      -0.439   5.229   1.648  0.00  0.00    +0.040 C 
BRANCH  19  20
ATOM     20  C   UNL     1      -0.598   5.857   2.968  0.00  0.00    +0.127 A 
ATOM     21  C   UNL     1      -0.412   7.176   3.254  0.00  0.00    +0.049 A 
ATOM     22  C   UNL     1      -0.672   7.333   4.629  0.00  0.00    +0.042 A 
ATOM     23  C   UNL     1      -0.993   6.117   5.113  0.00  0.00    +0.195 A 
ATOM     24  O   UNL     1      -0.947   5.227   4.107  0.00  0.00    -0.464 OA
ENDBRANCH  19  20
ENDBRANCH  17  18
ENDBRANCH  11  17
BRANCH   5  25
ATOM     25  C   UNL     1      -1.136  -0.814  -0.341  0.00  0.00    +0.143 C 
BRANCH  25  26
ATOM     26  C   UNL     1      -1.204  -0.983  -1.837  0.00  0.00    -0.030 A 
ATOM     27  C   UNL     1      -1.834  -0.026  -2.612  0.00  0.00    +0.005 A 
ATOM     28  C   UNL     1      -1.892  -0.178  -3.985  0.00  0.00    +0.000 A 
ATOM     29  C   UNL     1      -1.331  -1.292  -4.582  0.00  0.00    +0.000 A 
ATOM     30  C   UNL     1      -0.707  -2.251  -3.806  0.00  0.00    +0.000 A 
ATOM     31  C   UNL     1      -0.643  -2.096  -2.434  0.00  0.00    +0.005 A 
ENDBRANCH  25  26
ENDBRANCH   5  25
TORSDOF 7
