REMARK  Name = ZINC09516886
REMARK  8 active torsions:
REMARK  status: ('A' for Active; 'I' for Inactive)
REMARK    1  A    between atoms: C_1  and  C_2
REMARK    2  A    between atoms: C_2  and  C_3
REMARK    3  A    between atoms: C_3  and  C_4
REMARK    4  A    between atoms: C_3  and  C_5
REMARK    5  A    between atoms: C_3  and  C_6
REMARK    6  A    between atoms: N_14  and  C_18
REMARK    7  A    between atoms: C_18  and  C_19
REMARK    8  A    between atoms: C_19  and  C_21
REMARK                            x       y       z     vdW  Elec       q    Type
REMARK                         _______ _______ _______ _____ _____    ______ ____
ROOT
ATOM      1  C   UNL     1      -6.444  -3.482   3.153  0.00  0.00    -0.005 C 
ATOM      2  C   UNL     1      -5.061  -3.922   2.668  0.00  0.00    +0.006 C 
ATOM      3  C   UNL     1      -5.016  -3.868   1.139  0.00  0.00    +0.035 C 
ATOM      4  C   UNL     1      -5.309  -2.446   0.671  0.00  0.00    +0.113 C 
ATOM      5  C   UNL     1      -6.676  -1.987   1.165  0.00  0.00    +0.035 C 
ATOM      6  C   UNL     1      -6.715  -2.048   2.694  0.00  0.00    +0.006 C 
ATOM      7  C   UNL     1      -4.231  -1.502   1.151  0.00  0.00    +0.247 C 
ATOM      8  O   UNL     1      -3.930  -1.253   2.299  0.00  0.00    -0.273 OA
ATOM      9  N   UNL     1      -3.673  -0.994   0.032  0.00  0.00    -0.217 N 
ATOM     10  C   UNL     1      -4.252  -1.482  -1.072  0.00  0.00    +0.310 C 
ATOM     11  O   UNL     1      -3.925  -1.169  -2.200  0.00  0.00    -0.252 OA
ATOM     12  N   UNL     1      -5.234  -2.360  -0.793  0.00  0.00    -0.285 N 
ATOM     13  H   UNL     1      -5.785  -2.837  -1.432  0.00  0.00    +0.151 HD
ENDROOT
BRANCH   1  14
ATOM     14  C   UNL     1      -6.493  -3.547   4.681  0.00  0.00    -0.032 C 
ATOM     15  C   UNL     1      -6.224  -4.981   5.139  0.00  0.00    +0.011 C 
ATOM     16  C   UNL     1      -5.428  -2.617   5.265  0.00  0.00    +0.011 C 
BRANCH  14  18
ATOM     17  C   UNL     1      -7.925  -3.171   6.693  0.00  0.00    +0.004 C 
ATOM     18  C   UNL     1      -7.876  -3.107   5.166  0.00  0.00    +0.003 C 
ENDBRANCH  14  18
ENDBRANCH   1  14
BRANCH   9  19
ATOM     19  C   UNL     1      -2.575  -0.025   0.027  0.00  0.00    +0.197 C 
BRANCH  19  20
ATOM     20  C   UNL     1      -1.258  -0.758   0.010  0.00  0.00    +0.181 C 
ATOM     21  O   UNL     1      -1.239  -1.971   0.003  0.00  0.00    -0.290 OA
BRANCH  20  22
ATOM     22  C   UNL     1       0.002  -0.004   0.002  0.00  0.00    +0.019 A 
ATOM     23  C   UNL     1      -0.017   1.396   0.010  0.00  0.00    +0.013 A 
ATOM     24  C   UNL     1       1.155   2.096   0.002  0.00  0.00    +0.024 A 
ATOM     25  C   UNL     1       2.374   1.423  -0.013  0.00  0.00    +0.037 A 
ATOM     26  C   UNL     1       2.403   0.031  -0.020  0.00  0.00    -0.025 A 
ATOM     27  C   UNL     1       1.227  -0.683  -0.013  0.00  0.00    +0.017 A 
ATOM     28  C   UNL     1       3.725  -0.692  -0.037  0.00  0.00    +0.046 C 
ATOM     29  C   UNL     1       4.739   0.118  -0.847  0.00  0.00    +0.101 C 
ATOM     30  C   UNL     1       4.716   1.556  -0.404  0.00  0.00    +0.218 C 
ATOM     31  O   UNL     1       5.747   2.195  -0.392  0.00  0.00    -0.275 OA
ATOM     32  N   UNL     1       3.567   2.141  -0.021  0.00  0.00    -0.285 N 
ATOM     33  H   UNL     1       3.570   3.072   0.252  0.00  0.00    +0.155 HD
ENDBRANCH  20  22
ENDBRANCH  19  20
ENDBRANCH   9  19
TORSDOF 5
