REMARK  Name = ZINC59921458
REMARK  8 active torsions:
REMARK  status: ('A' for Active; 'I' for Inactive)
REMARK    1  A    between atoms: C_1  and  C_2
REMARK    2  A    between atoms: C_2  and  C_3
REMARK    3  A    between atoms: C_2  and  C_4
REMARK    4  A    between atoms: C_2  and  O_5
REMARK    5  A    between atoms: O_5  and  C_6
REMARK    6  A    between atoms: C_12  and  C_14
REMARK    7  A    between atoms: N_16  and  C_17
REMARK    8  A    between atoms: C_17  and  C_18
REMARK                            x       y       z     vdW  Elec       q    Type
REMARK                         _______ _______ _______ _____ _____    ______ ____
ROOT
ATOM      1  C   UNL     1       4.942  -0.686  -1.648  0.00  0.00    +0.234 C 
ATOM      2  O   UNL     1       4.547  -1.564  -0.910  0.00  0.00    -0.274 OA
ATOM      3  N   UNL     1       6.189  -0.196  -1.504  0.00  0.00    -0.308 N 
ATOM      4  H   UNL     1       6.505   0.506  -2.094  0.00  0.00    +0.149 HD
ENDROOT
BRANCH   1  11
ATOM      5  C   UNL     1       1.952  -0.085  -1.337  0.00  0.00    +0.404 C 
ATOM      6  O   UNL     1       2.488   0.619  -0.503  0.00  0.00    -0.226 OA
ATOM      7  N   UNL     1       2.641  -0.485  -2.424  0.00  0.00    -0.256 N 
ATOM      8  C   UNL     1       2.115  -1.331  -3.511  0.00  0.00    +0.112 C 
ATOM      9  C   UNL     1       2.998  -0.994  -4.738  0.00  0.00    +0.021 C 
ATOM     10  C   UNL     1       4.388  -0.801  -4.078  0.00  0.00    +0.033 C 
ATOM     11  C   UNL     1       4.039  -0.145  -2.726  0.00  0.00    +0.165 C 
BRANCH   5  12
ATOM     12  O   UNL     1       0.671  -0.465  -1.174  0.00  0.00    -0.445 OA
BRANCH  12  14
ATOM     13  C   UNL     1      -0.019   1.526   0.010  0.00  0.00    +0.055 C 
ATOM     14  C   UNL     1       0.002  -0.004   0.002  0.00  0.00    +0.107 C 
ATOM     15  C   UNL     1       0.742  -0.511   1.242  0.00  0.00    +0.055 C 
ATOM     16  C   UNL     1      -1.433  -0.534   0.013  0.00  0.00    +0.055 C 
ENDBRANCH  12  14
ENDBRANCH   5  12
ENDBRANCH   1  11
BRANCH   3  17
ATOM     17  C   UNL     1       7.067  -0.722  -0.456  0.00  0.00    +0.161 C 
BRANCH  17  18
ATOM     18  C   UNL     1       8.394  -0.010  -0.508  0.00  0.00    +0.077 A 
ATOM     19  C   UNL     1       8.744   1.061   0.237  0.00  0.00    +0.117 A 
ATOM     20  N   UNL     1      10.024   1.397  -0.114  0.00  0.00    -0.305 N 
ATOM     21  C   UNL     1      10.869   2.381   0.311  0.00  0.00    +0.108 A 
ATOM     22  C   UNL     1      12.109   2.494  -0.211  0.00  0.00    +0.034 A 
ATOM     23  C   UNL     1      12.546   1.596  -1.200  0.00  0.00    +0.020 A 
ATOM     24  C   UNL     1      11.714   0.611  -1.631  0.00  0.00    +0.048 A 
ATOM     25  C   UNL     1      10.422   0.506  -1.077  0.00  0.00    +0.138 A 
ATOM     26  N   UNL     1       9.423  -0.337  -1.295  0.00  0.00    -0.231 NA
ATOM     27 BR   UNL     1      13.263   3.866   0.391  0.00  0.00    -0.049 Br
ENDBRANCH  17  18
ENDBRANCH   3  17
TORSDOF 5
