REMARK  Name = ZINC17702514
REMARK  8 active torsions:
REMARK  status: ('A' for Active; 'I' for Inactive)
REMARK    1  A    between atoms: C_1  and  N_2
REMARK    2  A    between atoms: N_2  and  C_3
REMARK    3  A    between atoms: N_2  and  C_4
REMARK    4  A    between atoms: C_4  and  C_6
REMARK    5  A    between atoms: C_4  and  C_23
REMARK    6  A    between atoms: C_6  and  N_7
REMARK    7  A    between atoms: C_8  and  C_10
REMARK    8  A    between atoms: C_10  and  N_11
REMARK                            x       y       z     vdW  Elec       q    Type
REMARK                         _______ _______ _______ _____ _____    ______ ____
ROOT
ATOM      1  N   UNL     1       2.931   5.278   1.015  0.00  0.00    -0.315 N 
ATOM      2  C   UNL     1       3.260   6.029   2.085  0.00  0.00    +0.235 C 
ATOM      3  O   UNL     1       2.944   5.668   3.199  0.00  0.00    -0.274 OA
ATOM      4  H   UNL     1       3.217   5.604   0.005  0.00  0.00    +0.149 HD
ENDROOT
BRANCH   1   5
ATOM      5  C   UNL     1       2.191   4.026   1.198  0.00  0.00    +0.093 C 
BRANCH   5   6
ATOM      6  C   UNL     1       2.097   3.289  -0.139  0.00  0.00    -0.020 C 
BRANCH   6   7
ATOM      7  C   UNL     1       1.188   2.096   0.008  0.00  0.00    -0.041 A 
ATOM      8  C   UNL     1       1.724   0.824   0.077  0.00  0.00    +0.003 A 
ATOM      9  C   UNL     1       0.891  -0.271   0.212  0.00  0.00    +0.000 A 
ATOM     10  C   UNL     1      -0.479  -0.095   0.272  0.00  0.00    +0.001 A 
ATOM     11  C   UNL     1      -1.015   1.177   0.209  0.00  0.00    +0.020 A 
ATOM     12  C   UNL     1      -0.182   2.273   0.074  0.00  0.00    +0.043 A 
ATOM     13 CL   UNL     1      -0.856   3.871  -0.012  0.00  0.00    -0.083 Cl
ENDBRANCH   6   7
BRANCH   6  15
ATOM     14  C   UNL     1       4.171   3.918  -1.218  0.00  0.00    -0.096 C 
ATOM     15  N   UNL     1       3.434   2.840  -0.546  0.00  0.00    +0.382 N 
ATOM     16  C   UNL     1       4.189   2.324   0.604  0.00  0.00    -0.096 C 
ATOM     17  H   UNL     1       3.310   2.017  -1.265  0.00  0.00    -0.082 HD
ENDBRANCH   6  15
ENDBRANCH   5   6
ENDBRANCH   1   5
BRANCH   2  18
ATOM     18  C   UNL     1       4.021   7.316   1.897  0.00  0.00    +0.243 C 
BRANCH  18  19
ATOM     19  N   UNL     1       4.255   7.940   3.201  0.00  0.00    -0.217 N 
ATOM     20  C   UNL     1       5.376   7.632   3.881  0.00  0.00    +0.276 A 
ATOM     21  O   UNL     1       6.179   6.848   3.416  0.00  0.00    -0.266 OA
ATOM     22  C   UNL     1       5.622   8.257   5.199  0.00  0.00    +0.053 A 
ATOM     23  C   UNL     1       6.762   7.972   5.938  0.00  0.00    +0.014 A 
ATOM     24  C   UNL     1       6.951   8.580   7.167  0.00  0.00    +0.001 A 
ATOM     25  C   UNL     1       6.014   9.469   7.662  0.00  0.00    +0.001 A 
ATOM     26  C   UNL     1       4.872   9.764   6.938  0.00  0.00    +0.014 A 
ATOM     27  C   UNL     1       4.668   9.162   5.705  0.00  0.00    +0.055 A 
ATOM     28  C   UNL     1       3.464   9.445   4.894  0.00  0.00    +0.295 A 
ATOM     29  O   UNL     1       2.620  10.220   5.300  0.00  0.00    -0.264 OA
ATOM     30  N   UNL     1       3.312   8.841   3.699  0.00  0.00    -0.125 NA
ENDBRANCH  18  19
ENDBRANCH   2  18
TORSDOF 6
