REMARK  Name = ZINC20715332
REMARK  5 active torsions:
REMARK  status: ('A' for Active; 'I' for Inactive)
REMARK    1  A    between atoms: C_4  and  C_7
REMARK    2  A    between atoms: C_7  and  C_8
REMARK    3  A    between atoms: C_7  and  C_14
REMARK    4  A    between atoms: C_20  and  N_25
REMARK    5  A    between atoms: C_21  and  C_23
REMARK                            x       y       z     vdW  Elec       q    Type
REMARK                         _______ _______ _______ _____ _____    ______ ____
ROOT
ATOM      1  C   UNL     1      -3.338   1.492  -1.133  0.00  0.00    +0.163 A 
ATOM      2  N   UNL     1      -3.735   2.724  -1.317  0.00  0.00    -0.131 NA
ATOM      3  N   UNL     1      -4.421   2.813  -2.405  0.00  0.00    -0.120 NA
ATOM      4  C   UNL     1      -4.504   1.639  -2.965  0.00  0.00    +0.214 A 
ATOM      5  N   UNL     1      -3.813   0.760  -2.174  0.00  0.00    -0.219 N 
ATOM      6  N   UNL     1      -3.673  -0.597  -2.461  0.00  0.00    -0.236 N 
ATOM      7  C   UNL     1      -3.938  -1.079  -3.716  0.00  0.00    +0.124 C 
ATOM      8  C   UNL     1      -4.631  -0.430  -4.678  0.00  0.00    +0.129 C 
ATOM      9  S   UNL     1      -5.326   1.171  -4.449  0.00  0.00    -0.034 S 
ATOM     10  H   UNL     1      -3.347  -1.295  -1.676  0.00  0.00    +0.174 HD
ENDROOT
BRANCH   7  11
ATOM     11  N   UNL     1      -3.457  -2.332  -4.024  0.00  0.00    -0.344 N 
ATOM     12  H   UNL     1      -3.643  -2.764  -5.018  0.00  0.00    +0.144 HD
ATOM     13  H   UNL     1      -2.886  -2.901  -3.275  0.00  0.00    +0.144 HD
ENDBRANCH   7  11
BRANCH   8  14
ATOM     14  C   UNL     1      -4.808  -1.076  -5.943  0.00  0.00    +0.110 C 
ATOM     15  N   UNL     1      -4.948  -1.589  -6.947  0.00  0.00    -0.190 NA
ENDBRANCH   8  14
BRANCH   1  16
ATOM     16  C   UNL     1      -2.514   0.980   0.019  0.00  0.00    +0.118 C 
BRANCH  16  20
ATOM     17  C   UNL     1       1.245   3.007   0.101  0.00  0.00    +0.000 A 
ATOM     18  C   UNL     1       0.069   3.733   0.073  0.00  0.00    +0.000 A 
ATOM     19  C   UNL     1      -1.148   3.077   0.043  0.00  0.00    +0.004 A 
ATOM     20  C   UNL     1      -1.188   1.695   0.046  0.00  0.00    -0.033 A 
ATOM     21  C   UNL     1      -0.011   0.969   0.068  0.00  0.00    +0.004 A 
ATOM     22  C   UNL     1       1.205   1.626   0.098  0.00  0.00    +0.000 A 
ENDBRANCH  16  20
BRANCH  16  23
ATOM     23  C   UNL     1      -3.246   1.231   1.312  0.00  0.00    -0.033 A 
ATOM     24  C   UNL     1      -3.709   2.500   1.609  0.00  0.00    +0.004 A 
ATOM     25  C   UNL     1      -4.385   2.730   2.792  0.00  0.00    +0.000 A 
ATOM     26  C   UNL     1      -4.590   1.694   3.684  0.00  0.00    +0.000 A 
ATOM     27  C   UNL     1      -4.123   0.426   3.389  0.00  0.00    +0.000 A 
ATOM     28  C   UNL     1      -3.451   0.195   2.204  0.00  0.00    +0.004 A 
ENDBRANCH  16  23
ENDBRANCH   1  16
TORSDOF 5
