REMARK  Name = ZINC65254340
REMARK  6 active torsions:
REMARK  status: ('A' for Active; 'I' for Inactive)
REMARK    1  A    between atoms: C_1  and  C_2
REMARK    2  A    between atoms: N_7  and  S_9
REMARK    3  A    between atoms: S_9  and  C_12
REMARK    4  A    between atoms: C_20  and  C_23
REMARK    5  A    between atoms: N_25  and  C_26
REMARK    6  A    between atoms: C_26  and  C_27
REMARK                            x       y       z     vdW  Elec       q    Type
REMARK                         _______ _______ _______ _____ _____    ______ ____
ROOT
ATOM      1  C   UNL     1       1.712  -3.159   3.488  0.00  0.00    +0.124 A 
ATOM      2  C   UNL     1       2.597  -4.213   3.307  0.00  0.00    +0.033 A 
ATOM      3  C   UNL     1       3.654  -4.347   4.191  0.00  0.00    +0.049 A 
ATOM      4  C   UNL     1       3.791  -3.429   5.225  0.00  0.00    +0.139 A 
ATOM      5  N   UNL     1       2.926  -2.438   5.365  0.00  0.00    -0.236 NA
ATOM      6  C   UNL     1       1.913  -2.281   4.535  0.00  0.00    +0.141 A 
ATOM      7  N   UNL     1       4.853  -3.554   6.125  0.00  0.00    -0.290 N 
ATOM      8  C   UNL     1       5.058  -2.796   7.239  0.00  0.00    +0.127 A 
ATOM      9  C   UNL     1       6.203  -3.254   7.821  0.00  0.00    +0.143 A 
ATOM     10  N   UNL     1       6.673  -4.275   7.059  0.00  0.00    -0.231 NA
ATOM     11  C   UNL     1       5.868  -4.459   6.053  0.00  0.00    +0.206 A 
ENDROOT
BRANCH   9  12
ATOM     12  C   UNL     1       6.820  -2.735   9.054  0.00  0.00    +0.264 C 
ATOM     13  O   UNL     1       6.301  -1.811   9.651  0.00  0.00    -0.268 OA
ATOM     14  N   UNL     1       7.959  -3.284   9.521  0.00  0.00    -0.303 N 
ATOM     15  H   UNL     1       8.372  -4.021   9.045  0.00  0.00    +0.150 HD
BRANCH  14  16
ATOM     16  C   UNL     1       8.572  -2.768  10.747  0.00  0.00    +0.179 C 
BRANCH  16  17
ATOM     17  C   UNL     1       9.825  -3.548  11.049  0.00  0.00    +0.122 A 
ATOM     18  C   UNL     1      11.063  -3.244  10.621  0.00  0.00    +0.046 A 
ATOM     19  C   UNL     1      11.930  -4.235  11.136  0.00  0.00    +0.041 A 
ATOM     20  C   UNL     1      11.169  -5.086  11.847  0.00  0.00    +0.195 A 
ATOM     21  O   UNL     1       9.896  -4.662  11.796  0.00  0.00    -0.466 OA
ENDBRANCH  16  17
ENDBRANCH  14  16
ENDBRANCH   9  12
BRANCH   1  22
ATOM     22  S   UNL     1       0.350  -2.942   2.392  0.00  0.00    +0.062 S 
ATOM     23  O   UNL     1      -0.630  -2.199   3.104  0.00  0.00    -0.153 OA
ATOM     24  O   UNL     1       0.077  -4.216   1.825  0.00  0.00    -0.153 OA
BRANCH  22  30
ATOM     25  C   UNL     1      -0.019   1.526   0.010  0.00  0.00    +0.009 C 
ATOM     26  C   UNL     1       0.002  -0.004   0.002  0.00  0.00    +0.002 C 
ATOM     27  C   UNL     1       0.720  -0.498  -1.256  0.00  0.00    +0.006 C 
ATOM     28  C   UNL     1       0.712  -2.028  -1.282  0.00  0.00    +0.017 C 
ATOM     29  C   UNL     1       1.463  -2.559  -0.057  0.00  0.00    +0.109 C 
ATOM     30  N   UNL     1       0.869  -1.973   1.153  0.00  0.00    -0.176 NA
ATOM     31  C   UNL     1       0.744  -0.512   1.242  0.00  0.00    +0.112 C 
ENDBRANCH  22  30
ENDBRANCH   1  22
TORSDOF 5
