REMARK  Name = ZINC40091342
REMARK  4 active torsions:
REMARK  status: ('A' for Active; 'I' for Inactive)
REMARK    1  A    between atoms: C_1  and  C_2
REMARK    2  A    between atoms: C_2  and  C_3
REMARK    3  A    between atoms: N_8  and  S_10
REMARK    4  A    between atoms: S_10  and  N_13
REMARK                            x       y       z     vdW  Elec       q    Type
REMARK                         _______ _______ _______ _____ _____    ______ ____
ROOT
ATOM      1  S   UNL     1       0.836  -3.514   3.573  0.00  0.00    +0.100 S 
ATOM      2  O   UNL     1      -0.271  -4.171   2.971  0.00  0.00    -0.141 OA
ATOM      3  O   UNL     1       1.923  -4.226   4.148  0.00  0.00    -0.141 OA
ENDROOT
BRANCH   1   4
ATOM      4  N   UNL     1       0.220  -2.546   4.766  0.00  0.00    -0.166 NA
ATOM      5  C   UNL     1       1.081  -2.163   5.863  0.00  0.00    +0.110 C 
ATOM      6  C   UNL     1       0.984  -3.219   6.992  0.00  0.00    +0.017 C 
ATOM      7  C   UNL     1      -0.322  -3.131   7.663  0.00  0.00    +0.001 C 
ATOM      8  C   UNL     1      -1.514  -3.433   6.761  0.00  0.00    +0.001 C 
ATOM      9  C   UNL     1      -1.913  -2.179   6.023  0.00  0.00    +0.017 C 
ATOM     10  C   UNL     1      -1.185  -2.103   4.664  0.00  0.00    +0.110 C 
ENDBRANCH   1   4
BRANCH   1  15
ATOM     11  C   UNL     1       0.742  -0.511   1.242  0.00  0.00    +0.005 C 
ATOM     12  C   UNL     1       2.211  -0.087   1.168  0.00  0.00    +0.006 C 
ATOM     13  C   UNL     1       2.945  -0.566   2.423  0.00  0.00    +0.017 C 
ATOM     14  C   UNL     1       2.885  -2.095   2.493  0.00  0.00    +0.110 C 
ATOM     15  N   UNL     1       1.480  -2.517   2.418  0.00  0.00    -0.166 NA
ATOM     16  C   UNL     1       0.657  -2.039   1.298  0.00  0.00    +0.114 C 
BRANCH  11  18
ATOM     17  C   UNL     1      -0.019   1.526   0.010  0.00  0.00    +0.004 C 
ATOM     18  C   UNL     1       0.002  -0.004   0.002  0.00  0.00    +0.001 C 
ENDBRANCH  11  18
ENDBRANCH   1  15
TORSDOF 3
