REMARK  Name = ZINC20570215
REMARK  8 active torsions:
REMARK  status: ('A' for Active; 'I' for Inactive)
REMARK    1  A    between atoms: C_1  and  O_2
REMARK    2  A    between atoms: O_2  and  C_3
REMARK    3  A    between atoms: C_6  and  S_9
REMARK    4  A    between atoms: S_9  and  N_12
REMARK    5  A    between atoms: N_12  and  C_13
REMARK    6  A    between atoms: C_18  and  C_19
REMARK    7  A    between atoms: N_21  and  C_22
REMARK    8  A    between atoms: C_23  and  C_27
REMARK                            x       y       z     vdW  Elec       q    Type
REMARK                         _______ _______ _______ _____ _____    ______ ____
ROOT
ATOM      1  C   UNL     1      -2.404   1.206  -0.154  0.00  0.00    +0.060 A 
ATOM      2  C   UNL     1      -3.554   1.984  -0.209  0.00  0.00    +0.025 A 
ATOM      3  C   UNL     1      -3.456   3.351  -0.369  0.00  0.00    +0.002 A 
ATOM      4  C   UNL     1      -2.214   3.959  -0.470  0.00  0.00    +0.001 A 
ATOM      5  C   UNL     1      -1.063   3.204  -0.412  0.00  0.00    +0.015 A 
ATOM      6  C   UNL     1      -1.145   1.819  -0.251  0.00  0.00    +0.059 A 
ENDROOT
BRANCH   6   7
ATOM      7  C   UNL     1       0.083   1.006  -0.189  0.00  0.00    +0.250 C 
ATOM      8  O   UNL     1       0.007  -0.200  -0.048  0.00  0.00    -0.270 OA
ATOM      9  N   UNL     1       1.289   1.597  -0.294  0.00  0.00    -0.275 N 
ATOM     10  H   UNL     1       1.358   2.688  -0.421  0.00  0.00    +0.156 HD
BRANCH   9  11
ATOM     11  C   UNL     1       2.443   0.832  -0.241  0.00  0.00    +0.084 A 
ATOM     12  C   UNL     1       3.764   1.254  -0.336  0.00  0.00    +0.065 A 
ATOM     13  C   UNL     1       4.780   0.233  -0.244  0.00  0.00    +0.022 A 
ATOM     14  C   UNL     1       4.362  -1.036  -0.086  0.00  0.00    +0.048 A 
ATOM     15  S   UNL     1       2.589  -0.883  -0.049  0.00  0.00    -0.081 S 
BRANCH  12  16
ATOM     16  C   UNL     1       4.109   2.668  -0.515  0.00  0.00    +0.244 C 
ATOM     17  O   UNL     1       3.228   3.505  -0.585  0.00  0.00    -0.270 OA
ATOM     18  N   UNL     1       5.401   3.040  -0.603  0.00  0.00    -0.325 N 
ATOM     19  H   UNL     1       5.660   4.101  -0.738  0.00  0.00    +0.145 HD
ATOM     20  H   UNL     1       6.197   2.284  -0.540  0.00  0.00    +0.145 HD
ENDBRANCH  12  16
ENDBRANCH   9  11
ENDBRANCH   6   7
BRANCH   1  21
ATOM     21  N   UNL     1      -2.500  -0.171   0.001  0.00  0.00    -0.216 N 
ATOM     22  H   UNL     1      -1.752  -0.711   0.601  0.00  0.00    +0.174 HD
BRANCH  21  23
ATOM     23  S   UNL     1      -3.740  -1.001  -0.716  0.00  0.00    +0.072 S 
ATOM     24  O   UNL     1      -3.492  -2.381  -0.488  0.00  0.00    -0.150 OA
ATOM     25  O   UNL     1      -4.944  -0.366  -0.307  0.00  0.00    -0.150 OA
BRANCH  23  29
ATOM     26  C   UNL     1      -3.384  -0.343  -5.183  0.00  0.00    +0.120 A 
ATOM     27  C   UNL     1      -2.739  -1.416  -4.584  0.00  0.00    +0.047 A 
ATOM     28  C   UNL     1      -2.849  -1.614  -3.222  0.00  0.00    +0.032 A 
ATOM     29  C   UNL     1      -3.602  -0.745  -2.454  0.00  0.00    +0.109 A 
ATOM     30  C   UNL     1      -4.251   0.321  -3.049  0.00  0.00    +0.032 A 
ATOM     31  C   UNL     1      -4.139   0.527  -4.410  0.00  0.00    +0.047 A 
BRANCH  26  33
ATOM     32  C   UNL     1      -3.968   0.979  -7.070  0.00  0.00    +0.277 C 
ATOM     33  O   UNL     1      -3.277  -0.146  -6.523  0.00  0.00    -0.495 OA
ENDBRANCH  26  33
ENDBRANCH  23  29
ENDBRANCH  21  23
ENDBRANCH   1  21
TORSDOF 7
