REMARK  Name = ZINC13751648
REMARK  6 active torsions:
REMARK  status: ('A' for Active; 'I' for Inactive)
REMARK    1  A    between atoms: C_1  and  C_2
REMARK    2  A    between atoms: C_2  and  C_3
REMARK    3  A    between atoms: C_2  and  C_4
REMARK    4  A    between atoms: C_4  and  C_5
REMARK    5  A    between atoms: N_13  and  C_16
REMARK    6  A    between atoms: N_24  and  C_25
REMARK                            x       y       z     vdW  Elec       q    Type
REMARK                         _______ _______ _______ _____ _____    ______ ____
ROOT
ATOM      1  C   UNL     1      -1.410  -2.083  -0.229  0.00  0.00    +0.127 C 
ATOM      2  C   UNL     1      -2.843  -2.600  -0.278  0.00  0.00    +0.141 C 
ATOM      3  C   UNL     1      -2.610  -3.733  -1.349  0.00  0.00    +0.249 C 
ATOM      4  C   UNL     1      -3.780  -4.564  -1.150  0.00  0.00    +0.258 C 
ATOM      5  O   UNL     1      -4.383  -5.199  -1.989  0.00  0.00    -0.272 OA
ATOM      6  N   UNL     1      -4.061  -4.481   0.189  0.00  0.00    -0.208 N 
ATOM      7  C   UNL     1      -3.380  -3.463   0.821  0.00  0.00    +0.234 C 
ATOM      8  O   UNL     1      -3.236  -3.298   2.013  0.00  0.00    -0.274 OA
ATOM      9  O   UNL     1      -1.925  -3.081  -2.336  0.00  0.00    -0.258 OA
ATOM     10  N   UNL     1      -0.896  -2.341  -1.605  0.00  0.00    -0.248 N 
ENDROOT
BRANCH   6  11
ATOM     11  C   UNL     1      -4.958  -5.333   0.849  0.00  0.00    +0.044 A 
ATOM     12  C   UNL     1      -5.191  -5.179   2.209  0.00  0.00    +0.027 A 
ATOM     13  C   UNL     1      -6.075  -6.019   2.857  0.00  0.00    +0.040 A 
ATOM     14  C   UNL     1      -6.728  -7.016   2.152  0.00  0.00    +0.124 A 
ATOM     15  C   UNL     1      -6.497  -7.171   0.795  0.00  0.00    +0.040 A 
ATOM     16  C   UNL     1      -5.618  -6.329   0.143  0.00  0.00    +0.027 A 
ATOM     17  F   UNL     1      -7.592  -7.837   2.788  0.00  0.00    -0.205 F 
ENDBRANCH   6  11
BRANCH  10  18
ATOM     18  C   UNL     1       0.343  -1.936  -2.108  0.00  0.00    +0.065 A 
ATOM     19  C   UNL     1       1.514  -2.339  -1.478  0.00  0.00    +0.028 A 
ATOM     20  C   UNL     1       2.738  -1.938  -1.978  0.00  0.00    +0.002 A 
ATOM     21  C   UNL     1       2.798  -1.135  -3.103  0.00  0.00    +0.000 A 
ATOM     22  C   UNL     1       1.634  -0.732  -3.731  0.00  0.00    +0.002 A 
ATOM     23  C   UNL     1       0.407  -1.135  -3.240  0.00  0.00    +0.028 A 
ENDBRANCH  10  18
BRANCH   1  24
ATOM     24  C   UNL     1      -1.388  -0.586   0.083  0.00  0.00    +0.031 C 
BRANCH  24  26
ATOM     25  C   UNL     1       0.084   1.409   0.393  0.00  0.00    +0.007 C 
ATOM     26  C   UNL     1       0.062  -0.103   0.164  0.00  0.00    -0.015 C 
ATOM     27  C   UNL     1       0.769  -0.805   1.326  0.00  0.00    +0.007 C 
ENDBRANCH  24  26
ENDBRANCH   1  24
TORSDOF 4
