REMARK  Name = ZINC15066189
REMARK  4 active torsions:
REMARK  status: ('A' for Active; 'I' for Inactive)
REMARK    1  A    between atoms: C_12  and  C_14
REMARK    2  A    between atoms: C_14  and  C_15
REMARK    3  A    between atoms: C_15  and  C_16
REMARK    4  A    between atoms: C_23  and  C_25
REMARK                            x       y       z     vdW  Elec       q    Type
REMARK                         _______ _______ _______ _____ _____    ______ ____
ROOT
ATOM      1  C   UNL     1      -9.005   4.622  -0.582  0.00  0.00    +0.014 C 
ENDROOT
BRANCH   1   2
ATOM      2  C   UNL     1      -7.493   4.494  -0.781  0.00  0.00    +0.007 C 
ATOM      3  C   UNL     1      -6.844   5.876  -0.672  0.00  0.00    +0.006 C 
ATOM      4  C   UNL     1      -5.337   5.753  -0.904  0.00  0.00    +0.019 C 
ATOM      5  C   UNL     1      -4.730   4.849   0.179  0.00  0.00    +0.108 C 
ATOM      6  N   UNL     1      -5.447   3.567   0.173  0.00  0.00    -0.296 N 
ATOM      7  C   UNL     1      -6.911   3.575   0.298  0.00  0.00    +0.111 C 
ATOM      8  C   UNL     1      -4.775   2.404   0.060  0.00  0.00    +0.266 C 
ATOM      9  O   UNL     1      -5.384   1.360  -0.073  0.00  0.00    -0.268 OA
BRANCH   8  10
ATOM     10  C   UNL     1      -3.300   2.398   0.097  0.00  0.00    +0.144 A 
ATOM     11  C   UNL     1      -2.496   1.321  -0.144  0.00  0.00    +0.125 A 
ATOM     12  N   UNL     1      -1.208   1.744  -0.013  0.00  0.00    -0.306 N 
ATOM     13  C   UNL     1      -0.011   1.097  -0.134  0.00  0.00    +0.093 A 
ATOM     14  C   UNL     1       1.150   1.757   0.057  0.00  0.00    +0.018 A 
ATOM     15  C   UNL     1       1.143   3.123   0.390  0.00  0.00    +0.005 A 
ATOM     16  C   UNL     1      -0.040   3.779   0.518  0.00  0.00    +0.047 A 
ATOM     17  C   UNL     1      -1.247   3.076   0.316  0.00  0.00    +0.138 A 
ATOM     18  N   UNL     1      -2.513   3.454   0.375  0.00  0.00    -0.223 NA
ENDBRANCH   8  10
ENDBRANCH   1   2
BRANCH   1  19
ATOM     19  C   UNL     1      -9.666   3.262  -0.809  0.00  0.00    +0.096 C 
BRANCH  19  31
ATOM     20  C   UNL     1     -14.080  -3.365   1.143  0.00  0.00    +0.005 A 
ATOM     21  C   UNL     1     -14.924  -3.036   2.196  0.00  0.00    +0.018 A 
ATOM     22  C   UNL     1     -15.213  -1.709   2.441  0.00  0.00    +0.084 A 
ATOM     23  C   UNL     1     -13.891  -1.027   0.676  0.00  0.00    +0.099 A 
ATOM     24  C   UNL     1     -13.557  -2.343   0.372  0.00  0.00    +0.042 A 
ATOM     25  N   UNL     1     -13.372   0.010  -0.090  0.00  0.00    -0.314 N 
ATOM     26  C   UNL     1     -13.847   1.312   0.397  0.00  0.00    +0.125 C 
ATOM     27  C   UNL     1     -13.404   2.410  -0.577  0.00  0.00    +0.126 C 
ATOM     28  N   UNL     1     -11.948   2.309  -0.763  0.00  0.00    -0.298 N 
ATOM     29  C   UNL     1     -11.382   1.000  -1.124  0.00  0.00    +0.126 C 
ATOM     30  C   UNL     1     -11.905  -0.043  -0.124  0.00  0.00    +0.125 C 
ATOM     31  C   UNL     1     -11.155   3.388  -0.613  0.00  0.00    +0.216 C 
ATOM     32  O   UNL     1     -11.639   4.461  -0.320  0.00  0.00    -0.276 OA
ATOM     33  N   UNL     1     -14.712  -0.678   1.709  0.00  0.00    -0.350 N 
ATOM     34  H   UNL     1     -14.938   0.301   1.920  0.00  0.00    +0.166 HD
ENDBRANCH  19  31
ENDBRANCH   1  19
TORSDOF 4
