REMARK  Name = ZINC36354838
REMARK  3 active torsions:
REMARK  status: ('A' for Active; 'I' for Inactive)
REMARK    1  A    between atoms: C_3  and  N_8
REMARK    2  A    between atoms: C_17  and  C_19
REMARK    3  A    between atoms: C_22  and  C_25
REMARK                            x       y       z     vdW  Elec       q    Type
REMARK                         _______ _______ _______ _____ _____    ______ ____
ROOT
ATOM      1  N   UNL     1       3.586   2.127  -0.021  0.00  0.00    -0.287 N 
ATOM      2  C   UNL     1       3.915   3.158  -0.856  0.00  0.00    +0.205 A 
ATOM      3  N   UNL     1       5.122   3.571  -0.560  0.00  0.00    -0.238 NA
ATOM      4  C   UNL     1       5.601   2.842   0.446  0.00  0.00    +0.089 A 
ATOM      5  C   UNL     1       4.650   1.935   0.803  0.00  0.00    +0.133 A 
ATOM      6  N   UNL     1       4.847   1.026   1.844  0.00  0.00    -0.270 N 
ATOM      7  C   UNL     1       6.102   0.870   2.320  0.00  0.00    +0.219 C 
ATOM      8  O   UNL     1       6.277   0.174   3.298  0.00  0.00    -0.275 OA
ATOM      9  C   UNL     1       7.287   1.531   1.676  0.00  0.00    +0.110 C 
ATOM     10  C   UNL     1       6.936   2.920   1.144  0.00  0.00    +0.080 C 
ATOM     11  H   UNL     1       4.106   0.521   2.214  0.00  0.00    +0.156 HD
ENDROOT
BRANCH   1  14
ATOM     12  C   UNL     1      -0.017   1.378   0.010  0.00  0.00    +0.003 A 
ATOM     13  C   UNL     1       1.169   2.087   0.002  0.00  0.00    +0.026 A 
ATOM     14  C   UNL     1       2.381   1.410  -0.013  0.00  0.00    +0.051 A 
ATOM     15  C   UNL     1       2.398   0.022  -0.021  0.00  0.00    +0.046 A 
ATOM     16  C   UNL     1       1.209  -0.682  -0.013  0.00  0.00    +0.043 A 
ATOM     17  C   UNL     1       0.002  -0.004   0.002  0.00  0.00    +0.020 A 
ATOM     18 CL   UNL     1       1.228  -2.418  -0.023  0.00  0.00    -0.083 Cl
ENDBRANCH   1  14
BRANCH  10  19
ATOM     19  C   UNL     1       6.849   3.885   2.298  0.00  0.00    -0.038 A 
ATOM     20  C   UNL     1       5.954   3.650   3.326  0.00  0.00    +0.005 A 
ATOM     21  C   UNL     1       5.870   4.529   4.386  0.00  0.00    +0.019 A 
ATOM     22  C   UNL     1       6.691   5.658   4.419  0.00  0.00    +0.052 A 
ATOM     23  C   UNL     1       7.593   5.888   3.378  0.00  0.00    +0.019 A 
ATOM     24  C   UNL     1       7.670   4.998   2.327  0.00  0.00    +0.005 A 
BRANCH  22  25
ATOM     25  C   UNL     1       6.609   6.575   5.516  0.00  0.00    +0.099 C 
ATOM     26  N   UNL     1       6.543   7.303   6.386  0.00  0.00    -0.191 NA
ENDBRANCH  22  25
ENDBRANCH  10  19
TORSDOF 3
