REMARK  Name = ZINC38605075
REMARK  9 active torsions:
REMARK  status: ('A' for Active; 'I' for Inactive)
REMARK    1  A    between atoms: C_1  and  C_2
REMARK    2  A    between atoms: N_5  and  C_11
REMARK    3  A    between atoms: C_7  and  C_10
REMARK    4  A    between atoms: C_11  and  C_13
REMARK    5  A    between atoms: C_11  and  C_14
REMARK    6  A    between atoms: N_16  and  C_17
REMARK    7  A    between atoms: C_25  and  C_27
REMARK    8  A    between atoms: C_27  and  O_29
REMARK    9  A    between atoms: O_29  and  C_30
REMARK                            x       y       z     vdW  Elec       q    Type
REMARK                         _______ _______ _______ _____ _____    ______ ____
ROOT
ATOM      1  C   UNL     1       4.658  -0.507  -3.033  0.00  0.00    +0.234 C 
ATOM      2  O   UNL     1       4.572   0.310  -2.142  0.00  0.00    -0.274 OA
ATOM      3  N   UNL     1       5.761  -0.545  -3.808  0.00  0.00    -0.285 N 
ATOM      4  H   UNL     1       5.801  -1.149  -4.566  0.00  0.00    +0.155 HD
ENDROOT
BRANCH   3   5
ATOM      5  C   UNL     1       6.819   0.265  -3.526  0.00  0.00    +0.053 C 
ATOM      6  C   UNL     1       7.970   0.429  -4.278  0.00  0.00    +0.018 A 
ATOM      7  C   UNL     1       8.403  -0.144  -5.498  0.00  0.00    +0.011 A 
ATOM      8  C   UNL     1       9.605   0.208  -6.016  0.00  0.00    +0.001 A 
ATOM      9  C   UNL     1      10.438   1.129  -5.375  0.00  0.00    +0.002 A 
ATOM     10  C   UNL     1      10.089   1.717  -4.205  0.00  0.00    +0.026 A 
ATOM     11  C   UNL     1       8.845   1.400  -3.600  0.00  0.00    +0.045 A 
ATOM     12  N   UNL     1       8.284   1.826  -2.486  0.00  0.00    -0.367 N 
ATOM     13  C   UNL     1       6.978   1.177  -2.330  0.00  0.00    +0.234 C 
ATOM     14  H   UNL     1       8.670   2.468  -1.871  0.00  0.00    +0.161 HD
BRANCH  13  15
ATOM     15  C   UNL     1       6.951   0.372  -1.056  0.00  0.00    +0.335 C 
ATOM     16  O   UNL     1       7.960  -0.161  -0.657  0.00  0.00    -0.248 OA
BRANCH  15  17
ATOM     17  O   UNL     1       5.807   0.247  -0.365  0.00  0.00    -0.466 OA
ATOM     18  C   UNL     1       5.855  -0.530   0.833  0.00  0.00    +0.280 C 
ENDBRANCH  15  17
ENDBRANCH  13  15
ENDBRANCH   3   5
BRANCH   1  19
ATOM     19  C   UNL     1       3.534  -1.480  -3.276  0.00  0.00    +0.140 C 
ATOM     20  C   UNL     1       2.703  -1.013  -4.473  0.00  0.00    +0.034 C 
BRANCH  19  24
ATOM     21  C   UNL     1       1.982  -0.475   0.552  0.00  0.00    +0.039 C 
ATOM     22  C   UNL     1       1.046  -0.412  -0.657  0.00  0.00    +0.130 C 
ATOM     23  C   UNL     1       1.875  -0.325  -1.941  0.00  0.00    +0.116 C 
ATOM     24  N   UNL     1       2.679  -1.548  -2.083  0.00  0.00    -0.287 NA
ATOM     25  C   UNL     1       1.815  -2.737  -2.120  0.00  0.00    +0.116 C 
ATOM     26  C   UNL     1       0.987  -2.800  -0.834  0.00  0.00    +0.130 C 
ATOM     27  O   UNL     1       0.236  -1.589  -0.697  0.00  0.00    -0.371 OA
ATOM     28  C   UNL     1       0.029  -3.991  -0.901  0.00  0.00    +0.039 C 
ENDBRANCH  19  24
ENDBRANCH   1  19
TORSDOF 5
