REMARK  Name = ZINC37676868
REMARK  6 active torsions:
REMARK  status: ('A' for Active; 'I' for Inactive)
REMARK    1  A    between atoms: C_1  and  C_2
REMARK    2  A    between atoms: N_5  and  C_7
REMARK    3  A    between atoms: C_7  and  C_9
REMARK    4  A    between atoms: C_7  and  C_10
REMARK    5  A    between atoms: N_12  and  C_13
REMARK    6  A    between atoms: C_14  and  N_21
REMARK                            x       y       z     vdW  Elec       q    Type
REMARK                         _______ _______ _______ _____ _____    ______ ____
ROOT
ATOM      1  C   UNL     1      -1.222  -5.051   1.438  0.00  0.00    +0.242 C 
ATOM      2  O   UNL     1      -1.988  -5.677   0.736  0.00  0.00    -0.273 OA
ATOM      3  N   UNL     1      -1.582  -4.709   2.691  0.00  0.00    -0.281 N 
ATOM      4  H   UNL     1      -0.944  -4.274   3.278  0.00  0.00    +0.155 HD
ENDROOT
BRANCH   3   5
ATOM      5  C   UNL     1      -2.880  -4.982   3.147  0.00  0.00    +0.073 A 
ATOM      6  C   UNL     1      -3.157  -6.191   3.786  0.00  0.00    +0.049 A 
ATOM      7  C   UNL     1      -4.443  -6.455   4.235  0.00  0.00    +0.044 A 
ATOM      8  C   UNL     1      -5.446  -5.520   4.049  0.00  0.00    +0.044 A 
ATOM      9  C   UNL     1      -5.171  -4.322   3.415  0.00  0.00    +0.042 A 
ATOM     10  C   UNL     1      -3.890  -4.048   2.969  0.00  0.00    +0.065 A 
ATOM     11 CL   UNL     1      -3.549  -2.540   2.181  0.00  0.00    -0.082 Cl
ATOM     12 CL   UNL     1      -7.054  -5.854   4.611  0.00  0.00    -0.083 Cl
BRANCH   6  13
ATOM     13  N   UNL     1      -2.141  -7.134   3.973  0.00  0.00    -0.356 N 
ATOM     14  H   UNL     1      -1.243  -6.948   3.658  0.00  0.00    +0.142 HD
ATOM     15  H   UNL     1      -2.336  -7.974   4.417  0.00  0.00    +0.142 HD
ENDBRANCH   6  13
ENDBRANCH   3   5
BRANCH   1  16
ATOM     16  C   UNL     1       0.133  -4.657   0.910  0.00  0.00    +0.190 C 
ATOM     17  C   UNL     1       0.264  -3.133   0.929  0.00  0.00    +0.042 C 
BRANCH  16  22
ATOM     18  C   UNL     1      -0.098  -4.972  -4.087  0.00  0.00    +0.047 C 
ATOM     19  C   UNL     1       0.184  -5.286  -2.641  0.00  0.00    -0.013 A 
ATOM     20  C   UNL     1       0.829  -6.429  -2.157  0.00  0.00    +0.137 A 
ATOM     21  N   UNL     1       0.888  -6.345  -0.853  0.00  0.00    -0.179 NA
ATOM     22  N   UNL     1       0.281  -5.143  -0.465  0.00  0.00    -0.260 N 
ATOM     23  C   UNL     1      -0.137  -4.510  -1.580  0.00  0.00    +0.112 A 
ENDBRANCH  16  22
ENDBRANCH   1  16
TORSDOF 4
