REMARK  Name = ZINC39662523
REMARK  10 active torsions:
REMARK  status: ('A' for Active; 'I' for Inactive)
REMARK    1  A    between atoms: C_1  and  C_2
REMARK    2  A    between atoms: C_2  and  C_3
REMARK    3  A    between atoms: C_3  and  C_4
REMARK    4  A    between atoms: C_4  and  C_5
REMARK    5  A    between atoms: C_5  and  C_7
REMARK    6  A    between atoms: C_5  and  C_8
REMARK    7  A    between atoms: C_12  and  C_21
REMARK    8  A    between atoms: N_23  and  C_24
REMARK    9  A    between atoms: C_24  and  C_26
REMARK   10  A    between atoms: C_24  and  C_28
REMARK                            x       y       z     vdW  Elec       q    Type
REMARK                         _______ _______ _______ _____ _____    ______ ____
ROOT
ATOM      1  C   UNL     1       1.419  -4.210   2.487  0.00  0.00    +0.218 C 
ATOM      2  O   UNL     1       0.786  -4.838   1.665  0.00  0.00    -0.275 OA
ATOM      3  N   UNL     1       1.985  -4.846   3.531  0.00  0.00    -0.300 N 
ATOM      4  C   UNL     1       2.782  -4.255   4.631  0.00  0.00    +0.121 C 
ATOM      5  C   UNL     1       2.333  -5.022   5.896  0.00  0.00    +0.100 C 
ATOM      6  C   UNL     1       1.789  -6.361   5.370  0.00  0.00    -0.004 C 
ATOM      7  C   UNL     1       1.944  -6.295   3.843  0.00  0.00    +0.115 C 
ATOM      8  C   UNL     1       0.317  -6.514   5.738  0.00  0.00    -0.010 C 
ATOM      9  C   UNL     1      -0.186  -7.878   5.255  0.00  0.00    -0.082 C 
ATOM     10  N   UNL     1       0.609  -8.943   5.877  0.00  0.00    +0.379 N 
ATOM     11  C   UNL     1       2.008  -8.843   5.444  0.00  0.00    -0.082 C 
ATOM     12  C   UNL     1       2.603  -7.521   5.935  0.00  0.00    -0.010 C 
ATOM     13  H   UNL     1       0.562  -8.853   6.881  0.00  0.00    -0.086 HD
ATOM     14  H   UNL     1       0.237  -9.841   5.605  0.00  0.00    -0.086 HD
ENDROOT
BRANCH   5  15
ATOM     15  C   UNL     1       3.506  -5.253   6.814  0.00  0.00    +0.219 C 
ATOM     16  O   UNL     1       4.620  -5.383   6.353  0.00  0.00    -0.275 OA
ATOM     17  N   UNL     1       3.316  -5.315   8.146  0.00  0.00    -0.296 N 
ATOM     18  H   UNL     1       2.425  -5.211   8.515  0.00  0.00    +0.150 HD
BRANCH  17  19
ATOM     19  C   UNL     1       4.456  -5.540   9.039  0.00  0.00    +0.207 C 
BRANCH  19  20
ATOM     20  C   UNL     1       3.973  -6.164  10.323  0.00  0.00    -0.013 A 
ATOM     21  C   UNL     1       2.789  -5.739  10.895  0.00  0.00    +0.006 A 
ATOM     22  C   UNL     1       2.346  -6.312  12.073  0.00  0.00    +0.000 A 
ATOM     23  C   UNL     1       3.087  -7.310  12.678  0.00  0.00    +0.000 A 
ATOM     24  C   UNL     1       4.271  -7.735  12.105  0.00  0.00    +0.000 A 
ATOM     25  C   UNL     1       4.711  -7.166  10.925  0.00  0.00    +0.006 A 
ENDBRANCH  19  20
BRANCH  19  26
ATOM     26  C   UNL     1       5.109  -4.254   9.334  0.00  0.00    +0.090 C 
ATOM     27  N   UNL     1       5.613  -3.262   9.561  0.00  0.00    -0.194 NA
ENDBRANCH  19  26
ENDBRANCH  17  19
ENDBRANCH   5  15
BRANCH   1  28
ATOM     28  C   UNL     1       1.573  -2.718   2.340  0.00  0.00    +0.072 C 
ATOM     29  C   UNL     1       3.058  -2.368   2.226  0.00  0.00    +0.017 C 
BRANCH  28  30
ATOM     30  C   UNL     1       0.841  -2.252   1.080  0.00  0.00    +0.012 C 
BRANCH  30  31
ATOM     31  C   UNL     1       0.891  -0.725   0.997  0.00  0.00    +0.000 C 
BRANCH  31  33
ATOM     32  C   UNL     1       0.209   1.269  -0.345  0.00  0.00    +0.004 C 
ATOM     33  C   UNL     1       0.159  -0.258  -0.263  0.00  0.00    -0.003 C 
ENDBRANCH  31  33
ENDBRANCH  30  31
ENDBRANCH  28  30
ENDBRANCH   1  28
TORSDOF 8
