REMARK  Name = ZINC12441205
REMARK  7 active torsions:
REMARK  status: ('A' for Active; 'I' for Inactive)
REMARK    1  A    between atoms: C_1  and  C_2
REMARK    2  A    between atoms: C_5  and  C_8
REMARK    3  A    between atoms: C_8  and  N_61
REMARK    4  A    between atoms: C_14  and  C_16
REMARK    5  A    between atoms: C_16  and  C_17
REMARK    6  A    between atoms: N_22  and  C_25
REMARK    7  A    between atoms: C_30  and  O_31
REMARK                            x       y       z     vdW  Elec       q    Type
REMARK                         _______ _______ _______ _____ _____    ______ ____
ROOT
ATOM      1  C   UNL     1      -1.557  -6.726  -1.818  0.00  0.00    -0.058 C 
ATOM      2  C   UNL     1      -1.083  -5.296  -2.084  0.00  0.00    +0.085 C 
ATOM      3  N   UNL     1      -1.504  -4.418  -0.996  0.00  0.00    -0.318 N 
ATOM      4  C   UNL     1      -1.880  -4.876   0.203  0.00  0.00    +0.200 C 
ATOM      5  O   UNL     1      -2.186  -4.075   1.061  0.00  0.00    -0.278 OA
ATOM      6  C   UNL     1      -1.940  -6.341   0.532  0.00  0.00    +0.028 C 
ATOM      7  H   UNL     1      -1.512  -3.461  -1.149  0.00  0.00    +0.149 HD
ATOM      8  N   UNL     1      -1.143  -7.099  -0.451  0.00  0.00    +0.391 N 
ATOM      9  H   UNL     1      -0.150  -6.868  -0.327  0.00  0.00    -0.080 HD
ENDROOT
BRANCH   8  10
ATOM     10  C   UNL     1      -1.329  -8.553  -0.242  0.00  0.00    -0.042 C 
BRANCH  10  15
ATOM     11  C   UNL     1       2.945 -11.387  -2.906  0.00  0.00    +0.044 C 
ATOM     12  C   UNL     1       1.830 -10.648  -2.211  0.00  0.00    -0.050 A 
ATOM     13  C   UNL     1       0.656 -10.373  -2.888  0.00  0.00    +0.003 A 
ATOM     14  C   UNL     1      -0.368  -9.699  -2.249  0.00  0.00    +0.002 A 
ATOM     15  C   UNL     1      -0.214  -9.292  -0.937  0.00  0.00    -0.064 A 
ATOM     16  C   UNL     1       0.961  -9.562  -0.262  0.00  0.00    +0.002 A 
ATOM     17  C   UNL     1       1.984 -10.240  -0.899  0.00  0.00    +0.003 A 
ENDBRANCH  10  15
ENDBRANCH   8  10
BRANCH   6  18
ATOM     18  C   UNL     1      -1.359  -6.572   1.928  0.00  0.00    +0.090 C 
BRANCH  18  19
ATOM     19  C   UNL     1       0.086  -6.144   1.949  0.00  0.00    +0.215 C 
ATOM     20  O   UNL     1       0.588  -5.658   0.958  0.00  0.00    -0.276 OA
ATOM     21  N   UNL     1       0.820  -6.302   3.068  0.00  0.00    -0.299 N 
ATOM     22  C   UNL     1       0.228  -6.884   4.282  0.00  0.00    +0.126 C 
ATOM     23  C   UNL     1       1.142  -8.022   4.766  0.00  0.00    +0.124 C 
ATOM     24  N   UNL     1       2.510  -7.511   4.925  0.00  0.00    -0.324 N 
ATOM     25  C   UNL     1       3.064  -7.062   3.640  0.00  0.00    +0.124 C 
ATOM     26  C   UNL     1       2.231  -5.891   3.110  0.00  0.00    +0.126 C 
BRANCH  24  27
ATOM     27  C   UNL     1       3.337  -8.469   5.521  0.00  0.00    +0.072 A 
ATOM     28  C   UNL     1       2.886  -9.771   5.687  0.00  0.00    +0.027 A 
ATOM     29  C   UNL     1       3.707 -10.716   6.271  0.00  0.00    +0.002 A 
ATOM     30  C   UNL     1       4.974 -10.367   6.701  0.00  0.00    +0.004 A 
ATOM     31  C   UNL     1       5.428  -9.070   6.544  0.00  0.00    +0.047 A 
ATOM     32  C   UNL     1       4.613  -8.117   5.955  0.00  0.00    +0.138 A 
BRANCH  32  33
ATOM     33  O   UNL     1       5.058  -6.841   5.801  0.00  0.00    -0.505 OA
ATOM     34  H   UNL     1       4.859  -6.262   6.550  0.00  0.00    +0.292 HD
ENDBRANCH  32  33
ENDBRANCH  24  27
ENDBRANCH  18  19
ENDBRANCH   6  18
TORSDOF 6
