REMARK  Name = ZINC41115680
REMARK  4 active torsions:
REMARK  status: ('A' for Active; 'I' for Inactive)
REMARK    1  A    between atoms: C_1  and  C_2
REMARK    2  A    between atoms: C_4  and  C_8
REMARK    3  A    between atoms: C_5  and  C_7
REMARK    4  A    between atoms: C_13  and  N_14
REMARK                            x       y       z     vdW  Elec       q    Type
REMARK                         _______ _______ _______ _____ _____    ______ ____
ROOT
ATOM      1  C   UNL     1      -1.375  -3.425  -0.011  0.00  0.00    +0.010 A 
ATOM      2  C   UNL     1      -2.182  -3.735  -1.105  0.00  0.00    +0.059 A 
ATOM      3  C   UNL     1      -2.924  -4.901  -1.100  0.00  0.00    +0.163 A 
ATOM      4  C   UNL     1      -2.870  -5.762  -0.012  0.00  0.00    +0.164 A 
ATOM      5  C   UNL     1      -2.071  -5.462   1.078  0.00  0.00    +0.072 A 
ATOM      6  C   UNL     1      -1.316  -4.297   1.081  0.00  0.00    +0.036 A 
ATOM      7  O   UNL     1      -3.610  -6.909  -0.024  0.00  0.00    -0.488 OA
ATOM      8  C   UNL     1      -5.027  -6.741   0.046  0.00  0.00    +0.232 C 
ATOM      9  C   UNL     1      -5.609  -6.486  -1.335  0.00  0.00    +0.082 C 
ATOM     10  C   UNL     1      -5.126  -5.174  -1.934  0.00  0.00    +0.232 C 
ATOM     11  O   UNL     1      -3.717  -5.213  -2.168  0.00  0.00    -0.488 OA
ENDROOT
BRANCH   1  15
ATOM     12  C   UNL     1      -0.018   1.503   0.010  0.00  0.00    +0.086 C 
ATOM     13  C   UNL     1       0.002  -0.004   0.002  0.00  0.00    +0.103 A 
ATOM     14  C   UNL     1      -1.081  -0.799   0.003  0.00  0.00    +0.053 A 
ATOM     15  C   UNL     1      -0.574  -2.176  -0.008  0.00  0.00    +0.025 A 
ATOM     16  C   UNL     1       0.780  -2.070  -0.014  0.00  0.00    +0.110 A 
ATOM     17  O   UNL     1       1.105  -0.768  -0.013  0.00  0.00    -0.465 OA
ATOM     18  C   UNL     1       1.753  -3.221  -0.025  0.00  0.00    +0.087 C 
ENDBRANCH   1  15
BRANCH   6  19
ATOM     19  N   UNL     1      -0.503  -3.993   2.177  0.00  0.00    -0.357 N 
ATOM     20  H   UNL     1       0.021  -3.176   2.180  0.00  0.00    +0.142 HD
ATOM     21  H   UNL     1      -0.463  -4.598   2.934  0.00  0.00    +0.142 HD
ENDBRANCH   6  19
TORSDOF 2
