REMARK  Name = ZINC01243472
REMARK  9 active torsions:
REMARK  status: ('A' for Active; 'I' for Inactive)
REMARK    1  A    between atoms: C_1  and  C_2
REMARK    2  A    between atoms: C_3  and  C_21
REMARK    3  A    between atoms: N_11  and  C_14
REMARK    4  A    between atoms: C_15  and  C_19
REMARK    5  A    between atoms: C_16  and  N_18
REMARK    6  A    between atoms: C_21  and  O_23
REMARK    7  A    between atoms: O_23  and  C_24
REMARK    8  A    between atoms: C_24  and  C_25
REMARK    9  A    between atoms: C_24  and  C_26
REMARK                            x       y       z     vdW  Elec       q    Type
REMARK                         _______ _______ _______ _____ _____    ______ ____
ROOT
ATOM      1  C   UNL     1       2.220  -5.103  -2.294  0.00  0.00    +0.087 C 
ATOM      2  C   UNL     1       1.084  -4.281  -1.741  0.00  0.00    +0.116 C 
ATOM      3  C   UNL     1       1.345  -3.061  -1.252  0.00  0.00    +0.099 C 
ATOM      4  C   UNL     1       0.244  -2.206  -0.693  0.00  0.00    +0.148 C 
ATOM      5  C   UNL     1       0.330  -2.152   0.812  0.00  0.00    -0.001 A 
ATOM      6  C   UNL     1       0.251  -3.115   1.793  0.00  0.00    +0.007 A 
ATOM      7  C   UNL     1       0.368  -2.756   3.124  0.00  0.00    +0.000 A 
ATOM      8  C   UNL     1       0.566  -1.429   3.464  0.00  0.00    +0.002 A 
ATOM      9  C   UNL     1       0.645  -0.463   2.484  0.00  0.00    +0.024 A 
ATOM     10  C   UNL     1       0.528  -0.816   1.141  0.00  0.00    +0.041 A 
ATOM     11  N   UNL     1       0.574  -0.036  -0.015  0.00  0.00    -0.273 N 
ATOM     12  C   UNL     1       0.412  -0.770  -1.131  0.00  0.00    +0.240 C 
ATOM     13  O   UNL     1       0.404  -0.358  -2.271  0.00  0.00    -0.274 OA
ATOM     14  C   UNL     1       0.770   1.416  -0.014  0.00  0.00    +0.138 C 
ATOM     15  C   UNL     1      -1.096  -2.727  -1.124  0.00  0.00    +0.110 C 
ATOM     16  C   UNL     1      -1.216  -3.981  -1.628  0.00  0.00    +0.199 C 
ATOM     17  O   UNL     1      -0.154  -4.796  -1.754  0.00  0.00    -0.445 OA
ENDROOT
BRANCH  16  18
ATOM     18  N   UNL     1      -2.453  -4.429  -2.018  0.00  0.00    -0.328 N 
ATOM     19  H   UNL     1      -2.553  -5.324  -2.379  0.00  0.00    +0.145 HD
ATOM     20  H   UNL     1      -3.228  -3.852  -1.932  0.00  0.00    +0.145 HD
ENDBRANCH  16  18
BRANCH  15  21
ATOM     21  C   UNL     1      -2.256  -1.895  -1.003  0.00  0.00    +0.102 C 
ATOM     22  N   UNL     1      -3.175  -1.236  -0.907  0.00  0.00    -0.191 NA
ENDBRANCH  15  21
BRANCH   3  23
ATOM     23  C   UNL     1       2.674  -2.572  -1.263  0.00  0.00    +0.340 C 
ATOM     24  O   UNL     1       3.585  -3.295  -1.617  0.00  0.00    -0.245 OA
BRANCH  23  25
ATOM     25  O   UNL     1       2.929  -1.303  -0.880  0.00  0.00    -0.459 OA
BRANCH  25  26
ATOM     26  C   UNL     1       4.293  -0.877  -0.916  0.00  0.00    +0.171 C 
ATOM     27  C   UNL     1       4.350   0.626  -1.196  0.00  0.00    +0.052 C 
ATOM     28  C   UNL     1       4.955  -1.170   0.431  0.00  0.00    +0.052 C 
ENDBRANCH  25  26
ENDBRANCH  23  25
ENDBRANCH   3  23
TORSDOF 5
