REMARK  Name = ZINC39953459
REMARK  4 active torsions:
REMARK  status: ('A' for Active; 'I' for Inactive)
REMARK    1  A    between atoms: C_1  and  O_2
REMARK    2  A    between atoms: O_2  and  C_3
REMARK    3  A    between atoms: C_6  and  N_9
REMARK    4  A    between atoms: C_13  and  C_14
REMARK                            x       y       z     vdW  Elec       q    Type
REMARK                         _______ _______ _______ _____ _____    ______ ____
ROOT
ATOM      1  N   UNL     1      -4.892  -2.582   0.035  0.00  0.00    -0.197 N 
ATOM      2  C   UNL     1      -4.927  -3.901  -0.062  0.00  0.00    +0.264 C 
ATOM      3  O   UNL     1      -3.913  -4.564  -0.158  0.00  0.00    -0.269 OA
ATOM      4  C   UNL     1      -6.272  -4.527  -0.046  0.00  0.00    +0.077 C 
ATOM      5  C   UNL     1      -6.613  -5.819  -0.126  0.00  0.00    +0.010 C 
ATOM      6  S   UNL     1      -7.313  -3.082   0.111  0.00  0.00    -0.026 S 
ATOM      7  C   UNL     1      -6.019  -1.852   0.148  0.00  0.00    +0.290 C 
ATOM      8  O   UNL     1      -6.129  -0.645   0.249  0.00  0.00    -0.262 OA
ENDROOT
BRANCH   5   9
ATOM      9  C   UNL     1      -5.544  -6.873  -0.254  0.00  0.00    +0.122 C 
ATOM     10  C   UNL     1      -5.721  -7.554  -1.597  0.00  0.00    -0.001 C 
ATOM     11  C   UNL     1      -5.918  -8.900  -1.594  0.00  0.00    -0.003 A 
ATOM     12  C   UNL     1      -6.100  -9.633  -2.847  0.00  0.00    +0.059 A 
ATOM     13  C   UNL     1      -6.295 -10.979  -2.811  0.00  0.00    +0.163 A 
ATOM     14  C   UNL     1      -6.322 -11.679  -1.588  0.00  0.00    +0.164 A 
ATOM     15  C   UNL     1      -6.159 -11.033  -0.379  0.00  0.00    +0.073 A 
ATOM     16  C   UNL     1      -5.955  -9.649  -0.324  0.00  0.00    +0.044 A 
ATOM     17  N   UNL     1      -5.799  -9.044   0.857  0.00  0.00    -0.284 N 
ATOM     18  C   UNL     1      -5.601  -7.744   0.980  0.00  0.00    +0.228 C 
ATOM     19  O   UNL     1      -5.466  -7.250   2.083  0.00  0.00    -0.274 OA
ATOM     20  O   UNL     1      -6.508 -13.026  -1.574  0.00  0.00    -0.485 OA
ATOM     21  C   UNL     1      -7.051 -13.617  -2.758  0.00  0.00    +0.270 C 
ATOM     22  C   UNL     1      -6.288 -13.059  -3.967  0.00  0.00    +0.270 C 
ATOM     23  O   UNL     1      -6.466 -11.640  -3.992  0.00  0.00    -0.485 OA
ATOM     24  H   UNL     1      -5.832  -9.585   1.661  0.00  0.00    +0.155 HD
ENDBRANCH   5   9
BRANCH   1  28
ATOM     25  C   UNL     1      -1.200  -0.638   0.009  0.00  0.00    +0.120 A 
ATOM     26  C   UNL     1      -1.757  -1.053   1.210  0.00  0.00    +0.047 A 
ATOM     27  C   UNL     1      -2.979  -1.696   1.219  0.00  0.00    +0.027 A 
ATOM     28  C   UNL     1      -3.650  -1.928   0.027  0.00  0.00    +0.045 A 
ATOM     29  C   UNL     1      -3.093  -1.513  -1.175  0.00  0.00    +0.027 A 
ATOM     30  C   UNL     1      -1.873  -0.865  -1.183  0.00  0.00    +0.047 A 
BRANCH  25  32
ATOM     31  C   UNL     1       0.640   0.195   1.264  0.00  0.00    +0.277 C 
ATOM     32  O   UNL     1       0.003  -0.005   0.001  0.00  0.00    -0.495 OA
ENDBRANCH  25  32
ENDBRANCH   1  28
TORSDOF 3
