REMARK  Name = ZINC37102953
REMARK  3 active torsions:
REMARK  status: ('A' for Active; 'I' for Inactive)
REMARK    1  A    between atoms: C_1  and  C_2
REMARK    2  A    between atoms: C_4  and  N_10
REMARK    3  A    between atoms: C_5  and  O_9
REMARK                            x       y       z     vdW  Elec       q    Type
REMARK                         _______ _______ _______ _____ _____    ______ ____
ROOT
ATOM      1  C   UNL     1      -0.018   1.503   0.010  0.00  0.00    +0.044 C 
ATOM      2  C   UNL     1       0.002  -0.004   0.002  0.00  0.00    -0.047 A 
ATOM      3  C   UNL     1       0.006  -0.688  -1.200  0.00  0.00    +0.040 A 
ATOM      4  C   UNL     1       0.024  -2.069  -1.211  0.00  0.00    +0.169 A 
ATOM      5  C   UNL     1       0.039  -2.771  -0.014  0.00  0.00    +0.160 A 
ATOM      6  C   UNL     1       0.036  -2.083   1.191  0.00  0.00    +0.057 A 
ATOM      7  C   UNL     1       0.023  -0.700   1.196  0.00  0.00    +0.021 A 
ATOM      8  I   UNL     1       0.058  -3.137   3.001  0.00  0.00    -0.040 I 
ENDROOT
BRANCH   4   9
ATOM      9  N   UNL     1       0.027  -2.800  -2.498  0.00  0.00    +0.060 N 
ATOM     10  O   UNL     1       0.013  -2.188  -3.540  0.00  0.00    -0.126 OA
ATOM     11  O   UNL     1       0.043  -4.008  -2.506  0.00  0.00    -0.126 OA
ENDBRANCH   4   9
BRANCH   5  12
ATOM     12  O   UNL     1       0.057  -4.130  -0.022  0.00  0.00    -0.504 OA
ATOM     13  H   UNL     1       0.945  -4.511  -0.029  0.00  0.00    +0.292 HD
ENDBRANCH   5  12
TORSDOF 2
