REMARK  Name = ZINC33365107
REMARK  5 active torsions:
REMARK  status: ('A' for Active; 'I' for Inactive)
REMARK    1  A    between atoms: C_1  and  C_2
REMARK    2  A    between atoms: C_3  and  C_13
REMARK    3  A    between atoms: C_5  and  C_7
REMARK    4  A    between atoms: N_15  and  N_16
REMARK    5  A    between atoms: C_17  and  C_18
REMARK                            x       y       z     vdW  Elec       q    Type
REMARK                         _______ _______ _______ _____ _____    ______ ____
ROOT
ATOM      1  C   UNL     1       0.100  -0.248  -2.572  0.00  0.00    +0.272 C 
ATOM      2  O   UNL     1       0.012   0.943  -2.810  0.00  0.00    -0.268 OA
ATOM      3  N   UNL     1       0.104  -1.139  -3.584  0.00  0.00    -0.202 N 
ATOM      4  H   UNL     1       0.174  -2.087  -3.394  0.00  0.00    +0.178 HD
ENDROOT
BRANCH   1   7
ATOM      5  C   UNL     1       0.120   1.521   0.003  0.00  0.00    +0.067 C 
ATOM      6  C   UNL     1       0.215   0.017  -0.004  0.00  0.00    +0.058 A 
ATOM      7  C   UNL     1       0.200  -0.713  -1.186  0.00  0.00    +0.098 A 
ATOM      8  S   UNL     1       0.338  -2.375  -0.548  0.00  0.00    -0.062 S 
ATOM      9  C   UNL     1       0.397  -1.991   1.090  0.00  0.00    +0.109 A 
ATOM     10  N   UNL     1       0.320  -0.671   1.102  0.00  0.00    -0.243 NA
BRANCH   9  11
ATOM     11  C   UNL     1       0.514  -2.911   2.241  0.00  0.00    +0.007 A 
ATOM     12  C   UNL     1       0.542  -2.406   3.542  0.00  0.00    +0.010 A 
ATOM     13  C   UNL     1       0.651  -3.270   4.612  0.00  0.00    +0.001 A 
ATOM     14  C   UNL     1       0.733  -4.635   4.397  0.00  0.00    +0.000 A 
ATOM     15  C   UNL     1       0.706  -5.142   3.110  0.00  0.00    +0.001 A 
ATOM     16  C   UNL     1       0.591  -4.289   2.032  0.00  0.00    +0.010 A 
ENDBRANCH   9  11
ENDBRANCH   1   7
BRANCH   3  17
ATOM     17  N   UNL     1       0.008  -0.694  -4.909  0.00  0.00    -0.184 NA
ATOM     18  C   UNL     1       0.091  -1.546  -5.888  0.00  0.00    +0.176 C 
BRANCH  18  19
ATOM     19  C   UNL     1       0.113  -2.986  -5.608  0.00  0.00    +0.149 A 
ATOM     20  C   UNL     1       0.315  -3.960  -6.535  0.00  0.00    +0.059 A 
ATOM     21  C   UNL     1       0.256  -5.229  -5.808  0.00  0.00    +0.021 A 
ATOM     22  C   UNL     1       0.383  -6.569  -6.178  0.00  0.00    +0.011 A 
ATOM     23  C   UNL     1       0.272  -7.547  -5.229  0.00  0.00    +0.001 A 
ATOM     24  C   UNL     1       0.034  -7.216  -3.902  0.00  0.00    +0.004 A 
ATOM     25  C   UNL     1      -0.095  -5.898  -3.518  0.00  0.00    +0.047 A 
ATOM     26  C   UNL     1       0.015  -4.887  -4.464  0.00  0.00    +0.136 A 
ATOM     27  O   UNL     1      -0.058  -3.542  -4.392  0.00  0.00    -0.454 OA
ENDBRANCH  18  19
ENDBRANCH   3  17
TORSDOF 4
