REMARK  Name = ZINC39545802
REMARK  4 active torsions:
REMARK  status: ('A' for Active; 'I' for Inactive)
REMARK    1  A    between atoms: C_4  and  O_7
REMARK    2  A    between atoms: O_7  and  S_8
REMARK    3  A    between atoms: S_8  and  N_11
REMARK    4  A    between atoms: C_12  and  C_14
REMARK                            x       y       z     vdW  Elec       q    Type
REMARK                         _______ _______ _______ _____ _____    ______ ____
ROOT
ATOM      1  C   UNL     1       2.823  -4.606   2.304  0.00  0.00    +0.152 C 
ATOM      2  C   UNL     1       1.374  -4.545   1.784  0.00  0.00    +0.081 C 
ATOM      3  C   UNL     1       1.212  -5.824   0.994  0.00  0.00    +0.055 C 
ATOM      4  C   UNL     1       2.326  -6.509   1.041  0.00  0.00    +0.090 C 
ATOM      5  N   UNL     1       2.572  -7.737   0.395  0.00  0.00    -0.303 N 
ATOM      6  C   UNL     1       3.877  -7.891  -0.103  0.00  0.00    +0.037 A 
ATOM      7  C   UNL     1       4.201  -9.010  -0.856  0.00  0.00    +0.023 A 
ATOM      8  C   UNL     1       5.486  -9.167  -1.337  0.00  0.00    +0.002 A 
ATOM      9  C   UNL     1       6.444  -8.207  -1.064  0.00  0.00    +0.000 A 
ATOM     10  C   UNL     1       6.121  -7.091  -0.318  0.00  0.00    +0.007 A 
ATOM     11  C   UNL     1       4.834  -6.922   0.165  0.00  0.00    -0.010 A 
ATOM     12  C   UNL     1       4.506  -5.682   0.954  0.00  0.00    +0.124 C 
ATOM     13  N   UNL     1       3.331  -5.894   1.806  0.00  0.00    -0.369 NA
ATOM     14 CL   UNL     1      -0.229  -6.308   0.154  0.00  0.00    -0.085 Cl
ATOM     15  H   UNL     1       1.893  -8.423   0.301  0.00  0.00    +0.153 HD
ATOM     16  H   UNL     1       3.578  -6.487   2.585  0.00  0.00    +0.129 HD
ENDROOT
BRANCH   1  18
ATOM     17  N   UNL     1       4.419  -2.733   2.557  0.00  0.00    -0.047 N 
ATOM     18  C   UNL     1       3.634  -3.466   1.743  0.00  0.00    +0.271 C 
ATOM     19  O   UNL     1       3.580  -3.209   0.559  0.00  0.00    -0.271 OA
ATOM     20 CL   UNL     1       4.495  -3.096   4.227  0.00  0.00    +0.030 Cl
BRANCH  17  21
ATOM     21  S   UNL     1       5.310  -1.481   1.941  0.00  0.00    +0.226 S 
ATOM     22  O   UNL     1       5.497  -1.757   0.560  0.00  0.00    -0.114 OA
ATOM     23  O   UNL     1       6.399  -1.280   2.832  0.00  0.00    -0.114 OA
BRANCH  21  24
ATOM     24  O   UNL     1       4.445  -0.231   2.021  0.00  0.00    -0.330 OA
BRANCH  24  28
ATOM     25  C   UNL     1       4.088   1.321   5.827  0.00  0.00    +0.000 A 
ATOM     26  C   UNL     1       5.115   1.743   5.004  0.00  0.00    +0.004 A 
ATOM     27  C   UNL     1       5.237   1.224   3.729  0.00  0.00    +0.048 A 
ATOM     28  C   UNL     1       4.328   0.280   3.275  0.00  0.00    +0.158 A 
ATOM     29  C   UNL     1       3.298  -0.141   4.104  0.00  0.00    +0.048 A 
ATOM     30  C   UNL     1       3.180   0.381   5.377  0.00  0.00    +0.004 A 
ENDBRANCH  24  28
ENDBRANCH  21  24
ENDBRANCH  17  21
ENDBRANCH   1  18
TORSDOF 4
