REMARK  Name = ZINC04698138
REMARK  3 active torsions:
REMARK  status: ('A' for Active; 'I' for Inactive)
REMARK    1  A    between atoms: C_1  and  C_2
REMARK    2  A    between atoms: N_8  and  N_9
REMARK    3  A    between atoms: C_10  and  C_11
REMARK                            x       y       z     vdW  Elec       q    Type
REMARK                         _______ _______ _______ _____ _____    ______ ____
ROOT
ATOM      1  N   UNL     1       5.244   0.882   0.941  0.00  0.00    -0.159 NA
ATOM      2  C   UNL     1       5.869   1.438  -0.046  0.00  0.00    +0.114 C 
ENDROOT
BRANCH   2   3
ATOM      3  C   UNL     1       6.013   2.937  -0.099  0.00  0.00    +0.009 C 
ATOM      4  C   UNL     1       6.706   3.338  -1.403  0.00  0.00    +0.016 C 
ATOM      5  C   UNL     1       6.851   4.860  -1.456  0.00  0.00    -0.010 C 
ATOM      6  C   UNL     1       7.689   5.334  -0.267  0.00  0.00    +0.007 C 
ATOM      7  C   UNL     1       6.995   4.934   1.037  0.00  0.00    -0.010 C 
ATOM      8  C   UNL     1       6.850   3.412   1.091  0.00  0.00    +0.016 C 
ATOM      9  C   UNL     1       5.611   5.581   1.098  0.00  0.00    +0.007 C 
ATOM     10  C   UNL     1       4.773   5.107  -0.091  0.00  0.00    -0.010 C 
ATOM     11  C   UNL     1       5.466   5.507  -1.395  0.00  0.00    +0.007 C 
ATOM     12  C   UNL     1       4.628   3.585  -0.038  0.00  0.00    +0.016 C 
ENDBRANCH   2   3
BRANCH   1  19
ATOM     13  C   UNL     1       3.642  -1.291   5.935  0.00  0.00    +0.029 C 
ATOM     14  C   UNL     1       2.912  -0.482   4.861  0.00  0.00    +0.137 C 
ATOM     15  C   UNL     1       3.051   1.012   5.107  0.00  0.00    +0.232 C 
ATOM     16  O   UNL     1       2.612   1.544   6.104  0.00  0.00    -0.274 OA
ATOM     17  N   UNL     1       3.676   1.695   4.163  0.00  0.00    -0.263 N 
ATOM     18  C   UNL     1       4.173   1.096   3.025  0.00  0.00    +0.183 C 
ATOM     19  N   UNL     1       4.809   1.661   2.022  0.00  0.00    -0.127 NA
ATOM     20  S   UNL     1       3.751  -0.627   3.234  0.00  0.00    -0.076 S 
ATOM     21  H   UNL     1       3.789   2.652   4.276  0.00  0.00    +0.157 HD
ENDBRANCH   1  19
TORSDOF 2
