REMARK  Name = ZINC18148871
REMARK  4 active torsions:
REMARK  status: ('A' for Active; 'I' for Inactive)
REMARK    1  A    between atoms: C_5  and  C_7
REMARK    2  A    between atoms: C_7  and  O_9
REMARK    3  A    between atoms: O_9  and  C_10
REMARK    4  A    between atoms: C_15  and  N_16
REMARK                            x       y       z     vdW  Elec       q    Type
REMARK                         _______ _______ _______ _____ _____    ______ ____
ROOT
ATOM      1  C   UNL     1       0.274  -4.202  -0.018  0.00  0.00    +0.154 A 
ATOM      2  C   UNL     1       1.552  -4.735   0.031  0.00  0.00    +0.048 A 
ATOM      3  C   UNL     1       1.731  -6.106   0.028  0.00  0.00    +0.004 A 
ATOM      4  C   UNL     1       0.636  -6.949  -0.024  0.00  0.00    +0.002 A 
ATOM      5  C   UNL     1      -0.642  -6.426  -0.072  0.00  0.00    +0.027 A 
ATOM      6  C   UNL     1      -0.829  -5.051  -0.064  0.00  0.00    +0.086 A 
ENDROOT
BRANCH   6   7
ATOM      7  N   UNL     1      -2.126  -4.518  -0.107  0.00  0.00    -0.206 N 
ATOM      8  C   UNL     1      -2.777  -4.231  -1.267  0.00  0.00    +0.230 C 
ATOM      9  O   UNL     1      -2.299  -4.181  -2.380  0.00  0.00    -0.274 OA
ATOM     10  C   UNL     1      -4.205  -3.991  -0.889  0.00  0.00    +0.088 C 
ATOM     11  C   UNL     1      -5.025  -2.985  -1.662  0.00  0.00    +0.013 C 
ATOM     12  C   UNL     1      -6.411  -2.938  -0.993  0.00  0.00    +0.001 C 
ATOM     13  C   UNL     1      -6.321  -2.602   0.491  0.00  0.00    +0.001 C 
ATOM     14  C   UNL     1      -5.350  -3.541   1.235  0.00  0.00    +0.013 C 
ATOM     15  C   UNL     1      -4.014  -3.410   0.543  0.00  0.00    +0.088 C 
ATOM     16  C   UNL     1      -2.857  -4.241   1.006  0.00  0.00    +0.230 C 
ATOM     17  O   UNL     1      -2.620  -4.595   2.141  0.00  0.00    -0.274 OA
ENDBRANCH   6   7
BRANCH   1  18
ATOM     18  O   UNL     1       0.097  -2.854  -0.016  0.00  0.00    -0.420 OA
BRANCH  18  19
ATOM     19  C   UNL     1      -0.112  -2.246   1.168  0.00  0.00    +0.347 C 
ATOM     20  O   UNL     1      -0.043  -2.884   2.200  0.00  0.00    -0.244 OA
BRANCH  19  25
ATOM     21  C   UNL     1      -0.792   1.280   0.076  0.00  0.00    +0.001 A 
ATOM     22  C   UNL     1      -1.006   1.904   1.294  0.00  0.00    +0.003 A 
ATOM     23  C   UNL     1      -0.930   1.183   2.471  0.00  0.00    +0.039 A 
ATOM     24  C   UNL     1      -0.640  -0.169   2.439  0.00  0.00    +0.137 A 
ATOM     25  C   UNL     1      -0.423  -0.804   1.212  0.00  0.00    +0.094 A 
ATOM     26  C   UNL     1      -0.502  -0.066   0.028  0.00  0.00    +0.018 A 
ATOM     27  F   UNL     1      -0.565  -0.873   3.590  0.00  0.00    -0.205 F 
ENDBRANCH  19  25
ENDBRANCH  18  19
ENDBRANCH   1  18
TORSDOF 4
