REMARK  Name = ZINC52636796
REMARK  10 active torsions:
REMARK  status: ('A' for Active; 'I' for Inactive)
REMARK    1  A    between atoms: C_1  and  C_2
REMARK    2  A    between atoms: C_2  and  C_3
REMARK    3  A    between atoms: C_2  and  C_4
REMARK    4  A    between atoms: C_4  and  C_6
REMARK    5  A    between atoms: C_4  and  N_16
REMARK    6  A    between atoms: C_6  and  O_8
REMARK    7  A    between atoms: O_8  and  C_9
REMARK    8  A    between atoms: C_9  and  C_10
REMARK    9  A    between atoms: C_34  and  C_35
REMARK   10  A    between atoms: C_34  and  C_36
REMARK                            x       y       z     vdW  Elec       q    Type
REMARK                         _______ _______ _______ _____ _____    ______ ____
ROOT
ATOM      1  N   UNL     1      -1.413  -1.998   0.005  0.00  0.00    -0.269 N 
ATOM      2  C   UNL     1      -0.853  -2.778  -0.961  0.00  0.00    +0.235 C 
ATOM      3  O   UNL     1      -0.321  -2.395  -1.981  0.00  0.00    -0.274 OA
ATOM      4  C   UNL     1      -1.020  -4.207  -0.520  0.00  0.00    +0.149 C 
ATOM      5  C   UNL     1      -1.281  -5.195  -1.660  0.00  0.00    +0.062 C 
ATOM      6  C   UNL     1      -1.690  -6.470  -0.948  0.00  0.00    -0.035 C 
ATOM      7  C   UNL     1      -1.270  -7.721  -1.067  0.00  0.00    -0.001 A 
ATOM      8  C   UNL     1      -0.375  -8.369  -2.040  0.00  0.00    +0.010 A 
ATOM      9  C   UNL     1      -0.131  -9.691  -1.842  0.00  0.00    +0.001 A 
ATOM     10  C   UNL     1      -0.680 -10.426  -0.786  0.00  0.00    +0.002 A 
ATOM     11  C   UNL     1      -1.523  -9.915   0.146  0.00  0.00    +0.026 A 
ATOM     12  C   UNL     1      -1.866  -8.536   0.036  0.00  0.00    +0.043 A 
ATOM     13  N   UNL     1      -2.667  -7.808   0.759  0.00  0.00    -0.376 N 
ATOM     14  C   UNL     1      -2.742  -6.482   0.155  0.00  0.00    +0.120 C 
ATOM     15  C   UNL     1      -2.401  -5.346   1.130  0.00  0.00    +0.116 C 
ATOM     16  N   UNL     1      -2.238  -4.140   0.335  0.00  0.00    -0.268 NA
ATOM     17  C   UNL     1      -1.995  -2.875   1.050  0.00  0.00    +0.087 C 
ATOM     18  C   UNL     1      -1.001  -3.081   2.195  0.00  0.00    +0.049 C 
ATOM     19  C   UNL     1      -3.309  -2.292   1.574  0.00  0.00    +0.049 C 
ATOM     20  H   UNL     1      -3.132  -8.096   1.560  0.00  0.00    +0.160 HD
ENDROOT
BRANCH   1  21
ATOM     21  C   UNL     1      -1.433  -0.534   0.013  0.00  0.00    +0.189 C 
BRANCH  21  23
ATOM     22  C   UNL     1      -0.019   1.526   0.010  0.00  0.00    +0.009 C 
ATOM     23  C   UNL     1       0.002  -0.004   0.002  0.00  0.00    +0.014 C 
ATOM     24  C   UNL     1       0.742  -0.511   1.242  0.00  0.00    +0.009 C 
ENDBRANCH  21  23
BRANCH  21  25
ATOM     25  C   UNL     1      -2.162  -0.034  -1.208  0.00  0.00    +0.328 C 
ATOM     26  O   UNL     1      -2.618  -0.822  -2.003  0.00  0.00    -0.249 OA
BRANCH  25  27
ATOM     27  O   UNL     1      -2.305   1.285  -1.412  0.00  0.00    -0.459 OA
BRANCH  27  28
ATOM     28  C   UNL     1      -3.007   1.687  -2.590  0.00  0.00    +0.267 C 
BRANCH  28  29
ATOM     29  C   UNL     1      -3.067   3.191  -2.650  0.00  0.00    -0.010 A 
ATOM     30  C   UNL     1      -4.123   3.864  -2.064  0.00  0.00    +0.007 A 
ATOM     31  C   UNL     1      -4.178   5.245  -2.118  0.00  0.00    +0.000 A 
ATOM     32  C   UNL     1      -3.178   5.952  -2.759  0.00  0.00    +0.000 A 
ATOM     33  C   UNL     1      -2.122   5.279  -3.344  0.00  0.00    +0.000 A 
ATOM     34  C   UNL     1      -2.064   3.899  -3.285  0.00  0.00    +0.007 A 
ENDBRANCH  28  29
ENDBRANCH  27  28
ENDBRANCH  25  27
ENDBRANCH  21  25
ENDBRANCH   1  21
TORSDOF 6
