REMARK  Name = ZINC08993294
REMARK  9 active torsions:
REMARK  status: ('A' for Active; 'I' for Inactive)
REMARK    1  A    between atoms: C_1  and  C_2
REMARK    2  A    between atoms: C_2  and  N_3
REMARK    3  A    between atoms: C_5  and  C_14
REMARK    4  A    between atoms: C_10  and  O_12
REMARK    5  A    between atoms: O_12  and  C_13
REMARK    6  A    between atoms: C_21  and  O_32
REMARK    7  A    between atoms: C_22  and  C_25
REMARK    8  A    between atoms: C_25  and  N_63
REMARK    9  A    between atoms: C_28  and  C_31
REMARK                            x       y       z     vdW  Elec       q    Type
REMARK                         _______ _______ _______ _____ _____    ______ ____
ROOT
ATOM      1  C   UNL     1       3.101   5.689  -4.748  0.00  0.00    +0.060 C 
ATOM      2  C   UNL     1       2.094   5.944  -3.866  0.00  0.00    +0.176 C 
ATOM      3  C   UNL     1       1.825   7.197  -3.254  0.00  0.00    +0.231 C 
ATOM      4  O   UNL     1       2.435   8.243  -3.406  0.00  0.00    -0.283 OA
ATOM      5  C   UNL     1       0.651   6.963  -2.395  0.00  0.00    +0.068 A 
ATOM      6  C   UNL     1      -0.094   7.778  -1.543  0.00  0.00    +0.019 A 
ATOM      7  C   UNL     1      -1.158   7.257  -0.862  0.00  0.00    +0.046 A 
ATOM      8  C   UNL     1      -1.504   5.918  -1.020  0.00  0.00    +0.122 A 
ATOM      9  C   UNL     1      -0.770   5.095  -1.859  0.00  0.00    +0.020 A 
ATOM     10  C   UNL     1       0.314   5.609  -2.557  0.00  0.00    +0.144 A 
ATOM     11  O   UNL     1       1.182   5.046  -3.426  0.00  0.00    -0.451 OA
ENDROOT
BRANCH   1  14
ATOM     12  N   UNL     1       4.524   8.782  -6.063  0.00  0.00    -0.346 N 
ATOM     13  C   UNL     1       3.473   8.040  -5.636  0.00  0.00    +0.094 A 
ATOM     14  C   UNL     1       3.914   6.788  -5.266  0.00  0.00    +0.004 A 
ATOM     15  C   UNL     1       5.371   6.775  -5.503  0.00  0.00    +0.011 A 
ATOM     16  C   UNL     1       5.693   8.048  -6.000  0.00  0.00    +0.050 A 
ATOM     17  C   UNL     1       7.014   8.341  -6.322  0.00  0.00    +0.030 A 
ATOM     18  C   UNL     1       7.993   7.387  -6.153  0.00  0.00    +0.047 A 
ATOM     19  C   UNL     1       7.675   6.125  -5.661  0.00  0.00    +0.121 A 
ATOM     20  C   UNL     1       6.367   5.817  -5.335  0.00  0.00    +0.056 A 
BRANCH  12  22
ATOM     21  C   UNL     1       4.303  10.184  -8.055  0.00  0.00    +0.027 C 
ATOM     22  C   UNL     1       4.433  10.168  -6.530  0.00  0.00    +0.118 C 
ENDBRANCH  12  22
BRANCH  19  23
ATOM     23  O   UNL     1       8.652   5.194  -5.498  0.00  0.00    -0.495 OA
ATOM     24  C   UNL     1       9.981   5.580  -5.854  0.00  0.00    +0.277 C 
ENDBRANCH  19  23
ENDBRANCH   1  14
BRANCH   8  25
ATOM     25  O   UNL     1      -2.567   5.413  -0.343  0.00  0.00    -0.506 OA
ATOM     26  H   UNL     1      -2.344   5.053   0.527  0.00  0.00    +0.292 HD
ENDBRANCH   8  25
BRANCH   9  27
ATOM     27  C   UNL     1      -1.151   3.646  -2.017  0.00  0.00    -0.036 C 
BRANCH  27  34
ATOM     28  C   UNL     1      -0.597   1.405  -1.286  0.00  0.00    -0.078 C 
ATOM     29  C   UNL     1       0.274   0.603  -0.316  0.00  0.00    -0.016 C 
ATOM     30  C   UNL     1      -0.146   0.920   1.122  0.00  0.00    -0.018 C 
ATOM     31  C   UNL     1      -0.019   2.428   1.362  0.00  0.00    -0.016 C 
ATOM     32  C   UNL     1      -0.881   3.177   0.343  0.00  0.00    -0.078 C 
ATOM     33  C   UNL     1       0.761   0.168   2.098  0.00  0.00    +0.007 C 
ATOM     34  N   UNL     1      -0.409   2.847  -1.019  0.00  0.00    +0.383 N 
ATOM     35  H   UNL     1       0.590   3.072  -1.089  0.00  0.00    -0.081 HD
ENDBRANCH  27  34
ENDBRANCH   9  27
TORSDOF 6
