REMARK  Name = ZINC42843590
REMARK  5 active torsions:
REMARK  status: ('A' for Active; 'I' for Inactive)
REMARK    1  A    between atoms: C_1  and  C_2
REMARK    2  A    between atoms: C_2  and  C_3
REMARK    3  A    between atoms: C_3  and  C_5
REMARK    4  A    between atoms: C_3  and  N_6
REMARK    5  A    between atoms: C_12  and  C_15
REMARK                            x       y       z     vdW  Elec       q    Type
REMARK                         _______ _______ _______ _____ _____    ______ ____
ROOT
ATOM      1  N   UNL     1       2.147  -0.102   1.172  0.00  0.00    -0.297 N 
ATOM      2  C   UNL     1       2.869   0.026   2.303  0.00  0.00    +0.303 C 
ATOM      3  O   UNL     1       2.331  -0.106   3.385  0.00  0.00    -0.253 OA
ATOM      4  N   UNL     1       4.186   0.302   2.234  0.00  0.00    -0.282 N 
ATOM      5  C   UNL     1       5.025   0.338   3.445  0.00  0.00    +0.114 C 
ATOM      6  C   UNL     1       6.090  -0.755   3.313  0.00  0.00    +0.054 C 
ATOM      7  C   UNL     1       6.704  -0.724   1.945  0.00  0.00    -0.041 C 
ATOM      8  C   UNL     1       6.159  -0.147   0.901  0.00  0.00    -0.004 C 
ATOM      9  C   UNL     1       4.844   0.574   0.949  0.00  0.00    +0.137 C 
ATOM     10  H   UNL     1       2.558   0.076   0.311  0.00  0.00    +0.151 HD
ENDROOT
BRANCH   7  11
ATOM     11  C   UNL     1       8.011  -1.388   1.761  0.00  0.00    -0.022 A 
ATOM     12  C   UNL     1       8.122  -2.771   1.910  0.00  0.00    +0.008 A 
ATOM     13  C   UNL     1       9.345  -3.385   1.736  0.00  0.00    +0.001 A 
ATOM     14  C   UNL     1      10.461  -2.633   1.415  0.00  0.00    +0.000 A 
ATOM     15  C   UNL     1      10.358  -1.262   1.266  0.00  0.00    +0.001 A 
ATOM     16  C   UNL     1       9.139  -0.636   1.431  0.00  0.00    +0.008 A 
ENDBRANCH   7  11
BRANCH   1  17
ATOM     17  C   UNL     1       0.742  -0.511   1.241  0.00  0.00    +0.071 C 
ATOM     18  C   UNL     1       0.658  -2.038   1.295  0.00  0.00    +0.028 C 
BRANCH  17  20
ATOM     19  C   UNL     1      -0.022   1.527   0.015  0.00  0.00    +0.005 C 
ATOM     20  C   UNL     1       0.001  -0.003   0.003  0.00  0.00    +0.019 C 
ENDBRANCH  17  20
ENDBRANCH   1  17
TORSDOF 3
