REMARK  Name = ZINC62930819
REMARK  7 active torsions:
REMARK  status: ('A' for Active; 'I' for Inactive)
REMARK    1  A    between atoms: C_1  and  C_2
REMARK    2  A    between atoms: C_2  and  C_3
REMARK    3  A    between atoms: C_2  and  N_4
REMARK    4  A    between atoms: N_7  and  N_8
REMARK    5  A    between atoms: N_8  and  S_9
REMARK    6  A    between atoms: S_9  and  C_12
REMARK    7  A    between atoms: C_15  and  C_19
REMARK                            x       y       z     vdW  Elec       q    Type
REMARK                         _______ _______ _______ _____ _____    ______ ____
ROOT
ATOM      1  S   UNL     1      -5.274  -1.073  -0.869  0.00  0.00    +0.074 S 
ATOM      2  O   UNL     1      -6.189  -0.393  -0.022  0.00  0.00    -0.152 OA
ATOM      3  O   UNL     1      -4.796  -0.510  -2.083  0.00  0.00    -0.152 OA
ENDROOT
BRANCH   1   4
ATOM      4  C   UNL     1      -6.024  -2.611  -1.290  0.00  0.00    +0.108 A 
ATOM      5  C   UNL     1      -5.641  -3.272  -2.444  0.00  0.00    +0.030 A 
ATOM      6  C   UNL     1      -6.223  -4.476  -2.780  0.00  0.00    +0.022 A 
ATOM      7  C   UNL     1      -7.201  -5.030  -1.951  0.00  0.00    +0.070 A 
ATOM      8  C   UNL     1      -7.583  -4.359  -0.787  0.00  0.00    +0.060 A 
ATOM      9  C   UNL     1      -6.988  -3.156  -0.461  0.00  0.00    +0.049 A 
ATOM     10 CL   UNL     1      -8.799  -5.038   0.250  0.00  0.00    -0.082 Cl
BRANCH   7  11
ATOM     11  C   UNL     1      -7.810  -6.280  -2.294  0.00  0.00    +0.101 C 
ATOM     12  N   UNL     1      -8.293  -7.272  -2.566  0.00  0.00    -0.191 NA
ENDBRANCH   7  11
ENDBRANCH   1   4
BRANCH   1  13
ATOM     13  N   UNL     1      -3.940  -1.414   0.052  0.00  0.00    -0.107 NA
ATOM     14  H   UNL     1      -3.874  -1.069   0.956  0.00  0.00    +0.172 HD
BRANCH  13  18
ATOM     15  N   UNL     1      -1.372  -0.511   0.012  0.00  0.00    -0.296 N 
ATOM     16  C   UNL     1      -1.643  -1.734  -0.485  0.00  0.00    +0.315 C 
ATOM     17  O   UNL     1      -0.747  -2.417  -0.942  0.00  0.00    -0.251 OA
ATOM     18  N   UNL     1      -2.908  -2.201  -0.475  0.00  0.00    -0.216 N 
ATOM     19  H   UNL     1      -2.087   0.033   0.377  0.00  0.00    +0.151 HD
ATOM     20  H   UNL     1      -3.103  -3.081  -0.833  0.00  0.00    +0.172 HD
BRANCH  15  22
ATOM     21  C   UNL     1      -0.019   1.526   0.010  0.00  0.00    +0.027 C 
ATOM     22  C   UNL     1       0.002  -0.004   0.002  0.00  0.00    +0.068 C 
ATOM     23  C   UNL     1       0.742  -0.511   1.242  0.00  0.00    +0.027 C 
ENDBRANCH  15  22
ENDBRANCH  13  18
ENDBRANCH   1  13
TORSDOF 5
