REMARK  Name = ZINC65520467
REMARK  10 active torsions:
REMARK  status: ('A' for Active; 'I' for Inactive)
REMARK    1  A    between atoms: C_1  and  C_2
REMARK    2  A    between atoms: C_5  and  S_8
REMARK    3  A    between atoms: S_8  and  C_9
REMARK    4  A    between atoms: C_9  and  C_10
REMARK    5  A    between atoms: N_12  and  N_13
REMARK    6  A    between atoms: N_16  and  C_17
REMARK    7  A    between atoms: C_17  and  C_18
REMARK    8  A    between atoms: N_21  and  C_23
REMARK    9  A    between atoms: C_23  and  C_24
REMARK   10  A    between atoms: C_23  and  C_25
REMARK                            x       y       z     vdW  Elec       q    Type
REMARK                         _______ _______ _______ _____ _____    ______ ____
ROOT
ATOM      1  N   UNL     1       0.129  -8.443   3.219  0.00  0.00    -0.218 N 
ATOM      2  C   UNL     1       0.142  -9.009   4.442  0.00  0.00    +0.316 C 
ATOM      3  O   UNL     1       0.159 -10.220   4.551  0.00  0.00    -0.251 OA
ATOM      4  N   UNL     1       0.138  -8.233   5.544  0.00  0.00    -0.298 N 
ATOM      5  H   UNL     1       0.132  -9.002   2.426  0.00  0.00    +0.174 HD
ATOM      6  H   UNL     1       0.125  -7.267   5.457  0.00  0.00    +0.150 HD
ENDROOT
BRANCH   1   9
ATOM      7  C   UNL     1       0.097  -6.482   1.870  0.00  0.00    +0.239 C 
ATOM      8  O   UNL     1       0.101  -7.180   0.879  0.00  0.00    -0.273 OA
ATOM      9  N   UNL     1       0.110  -7.048   3.093  0.00  0.00    -0.233 N 
ATOM     10  H   UNL     1       0.107  -6.489   3.886  0.00  0.00    +0.173 HD
BRANCH   7  11
ATOM     11  C   UNL     1       0.077  -4.981   1.735  0.00  0.00    +0.171 C 
BRANCH  11  12
ATOM     12  S   UNL     1       0.062  -4.533  -0.023  0.00  0.00    -0.116 S 
BRANCH  12  17
ATOM     13  C   UNL     1      -0.018   1.503   0.010  0.00  0.00    +0.044 C 
ATOM     14  C   UNL     1       0.002  -0.004   0.002  0.00  0.00    -0.050 A 
ATOM     15  C   UNL     1       0.006  -0.687  -1.200  0.00  0.00    +0.004 A 
ATOM     16  C   UNL     1       0.024  -2.068  -1.212  0.00  0.00    +0.015 A 
ATOM     17  C   UNL     1       0.039  -2.771  -0.013  0.00  0.00    +0.008 A 
ATOM     18  C   UNL     1       0.036  -2.081   1.193  0.00  0.00    +0.015 A 
ATOM     19  C   UNL     1       0.023  -0.700   1.197  0.00  0.00    +0.004 A 
ENDBRANCH  12  17
ENDBRANCH  11  12
ENDBRANCH   7  11
ENDBRANCH   1   9
BRANCH   4  20
ATOM     20  C   UNL     1       0.153  -8.849   6.873  0.00  0.00    +0.107 C 
BRANCH  20  21
ATOM     21  C   UNL     1       0.144  -7.754   7.942  0.00  0.00    -0.012 C 
ATOM     22  C   UNL     1      -1.240  -7.056   8.001  0.00  0.00    -0.015 C 
ATOM     23  C   UNL     1      -1.271  -6.546   9.464  0.00  0.00    -0.078 C 
ATOM     24  N   UNL     1      -0.607  -7.609  10.248  0.00  0.00    +0.381 N 
ATOM     25  C   UNL     1       0.285  -8.366   9.352  0.00  0.00    -0.074 C 
ATOM     26  H   UNL     1      -1.302  -8.228  10.638  0.00  0.00    -0.081 HD
BRANCH  24  27
ATOM     27  C   UNL     1       0.178  -7.005  11.333  0.00  0.00    -0.075 C 
ATOM     28  C   UNL     1      -0.754  -6.232  12.268  0.00  0.00    -0.014 C 
ATOM     29  C   UNL     1       0.891  -8.107  12.120  0.00  0.00    -0.014 C 
ENDBRANCH  24  27
ENDBRANCH  20  21
ENDBRANCH   4  20
TORSDOF 7
