REMARK  Name = ZINC63964840
REMARK  9 active torsions:
REMARK  status: ('A' for Active; 'I' for Inactive)
REMARK    1  A    between atoms: C_1  and  O_2
REMARK    2  A    between atoms: O_2  and  C_3
REMARK    3  A    between atoms: C_6  and  O_9
REMARK    4  A    between atoms: O_9  and  C_10
REMARK    5  A    between atoms: C_12  and  C_28
REMARK    6  A    between atoms: N_14  and  C_17
REMARK    7  A    between atoms: C_17  and  C_18
REMARK    8  A    between atoms: C_18  and  C_19
REMARK    9  A    between atoms: C_31  and  C_34
REMARK                            x       y       z     vdW  Elec       q    Type
REMARK                         _______ _______ _______ _____ _____    ______ ____
ROOT
ATOM      1  C   UNL     1       2.451  -3.911   4.247  0.00  0.00    +0.283 C 
ATOM      2  C   UNL     1       2.378  -4.466   5.673  0.00  0.00    +0.156 C 
ATOM      3  N   UNL     1       3.685  -5.048   5.345  0.00  0.00    -0.287 N 
ATOM      4  C   UNL     1       3.793  -4.580   4.077  0.00  0.00    +0.259 C 
ATOM      5  O   UNL     1       4.613  -4.664   3.187  0.00  0.00    -0.271 OA
ENDROOT
BRANCH   2   6
ATOM      6  C   UNL     1       2.422  -3.411   6.748  0.00  0.00    -0.023 A 
ATOM      7  C   UNL     1       3.633  -2.855   7.118  0.00  0.00    +0.007 A 
ATOM      8  C   UNL     1       3.680  -1.888   8.101  0.00  0.00    +0.019 A 
ATOM      9  C   UNL     1       2.501  -1.471   8.723  0.00  0.00    +0.052 A 
ATOM     10  C   UNL     1       1.282  -2.037   8.344  0.00  0.00    +0.019 A 
ATOM     11  C   UNL     1       1.249  -2.999   7.356  0.00  0.00    +0.007 A 
BRANCH   9  12
ATOM     12  C   UNL     1       2.542  -0.469   9.744  0.00  0.00    +0.099 C 
ATOM     13  N   UNL     1       2.575   0.327  10.555  0.00  0.00    -0.191 NA
ENDBRANCH   9  12
ENDBRANCH   2   6
BRANCH   1  14
ATOM     14  O   UNL     1       2.521  -2.485   4.199  0.00  0.00    -0.477 OA
BRANCH  14  18
ATOM     15  C   UNL     1       2.224  -0.717   0.481  0.00  0.00    +0.120 A 
ATOM     16  C   UNL     1       2.275  -2.099   0.590  0.00  0.00    +0.049 A 
ATOM     17  C   UNL     1       2.374  -2.690   1.834  0.00  0.00    +0.049 A 
ATOM     18  C   UNL     1       2.424  -1.902   2.974  0.00  0.00    +0.122 A 
ATOM     19  C   UNL     1       2.375  -0.520   2.865  0.00  0.00    +0.049 A 
ATOM     20  C   UNL     1       2.280   0.071   1.621  0.00  0.00    +0.049 A 
BRANCH  15  22
ATOM     21  C   UNL     1       2.074  -1.007  -1.875  0.00  0.00    +0.277 C 
ATOM     22  O   UNL     1       2.126  -0.134  -0.744  0.00  0.00    -0.495 OA
ENDBRANCH  15  22
ENDBRANCH  14  18
ENDBRANCH   1  14
BRANCH   3  23
ATOM     23  C   UNL     1       4.593  -5.878   6.141  0.00  0.00    +0.113 C 
BRANCH  23  24
ATOM     24  C   UNL     1       4.256  -7.354   5.923  0.00  0.00    +0.052 C 
BRANCH  24  25
ATOM     25  C   UNL     1       5.189  -8.209   6.742  0.00  0.00    -0.040 C 
ATOM     26  C   UNL     1       4.957  -8.716   7.975  0.00  0.00    -0.001 A 
ATOM     27  C   UNL     1       3.811  -8.626   8.887  0.00  0.00    +0.010 A 
ATOM     28  C   UNL     1       3.873  -9.254  10.083  0.00  0.00    +0.001 A 
ATOM     29  C   UNL     1       5.003  -9.987  10.472  0.00  0.00    +0.002 A 
ATOM     30  C   UNL     1       6.095 -10.114   9.689  0.00  0.00    +0.026 A 
ATOM     31  C   UNL     1       6.138  -9.495   8.409  0.00  0.00    +0.043 A 
ATOM     32  N   UNL     1       7.064  -9.471   7.482  0.00  0.00    -0.380 N 
ATOM     33  C   UNL     1       6.573  -8.678   6.350  0.00  0.00    +0.144 C 
ATOM     34  H   UNL     1       7.929  -9.909   7.534  0.00  0.00    +0.160 HD
ENDBRANCH  24  25
ENDBRANCH  23  24
ENDBRANCH   3  23
TORSDOF 8
