REMARK  Name = ZINC65265745
REMARK  6 active torsions:
REMARK  status: ('A' for Active; 'I' for Inactive)
REMARK    1  A    between atoms: C_1  and  C_2
REMARK    2  A    between atoms: C_6  and  C_7
REMARK    3  A    between atoms: N_24  and  C_25
REMARK    4  A    between atoms: C_25  and  C_26
REMARK    5  A    between atoms: C_26  and  O_27
REMARK    6  A    between atoms: O_27  and  C_28
REMARK                            x       y       z     vdW  Elec       q    Type
REMARK                         _______ _______ _______ _____ _____    ______ ____
ROOT
ATOM      1  C   UNL     1       0.030  -0.283   2.562  0.00  0.00    +0.254 C 
ATOM      2  O   UNL     1       0.015   0.910   2.805  0.00  0.00    -0.269 OA
ATOM      3  N   UNL     1       0.051  -1.176   3.571  0.00  0.00    -0.295 N 
ATOM      4  C   UNL     1       0.077  -2.639   3.420  0.00  0.00    +0.110 C 
ATOM      5  C   UNL     1       0.122  -3.248   4.840  0.00  0.00    +0.050 C 
ATOM      6  C   UNL     1       0.653  -2.085   5.694  0.00  0.00    +0.091 C 
ATOM      7  C   UNL     1       0.060  -0.847   5.011  0.00  0.00    +0.137 C 
ATOM      8  C   UNL     1       0.238  -2.198   7.120  0.00  0.00    +0.095 C 
ATOM      9  N   UNL     1       1.063  -1.609   8.048  0.00  0.00    -0.303 N 
ATOM     10  C   UNL     1       2.105  -2.354   8.591  0.00  0.00    +0.037 A 
ATOM     11  C   UNL     1       2.341  -2.325   9.958  0.00  0.00    +0.023 A 
ATOM     12  C   UNL     1       3.383  -3.050  10.498  0.00  0.00    +0.002 A 
ATOM     13  C   UNL     1       4.190  -3.804   9.665  0.00  0.00    +0.000 A 
ATOM     14  C   UNL     1       3.952  -3.838   8.309  0.00  0.00    +0.007 A 
ATOM     15  C   UNL     1       2.901  -3.119   7.748  0.00  0.00    -0.012 A 
ATOM     16  C   UNL     1       2.704  -3.251   6.259  0.00  0.00    +0.119 C 
ATOM     17  N   UNL     1       2.131  -2.041   5.654  0.00  0.00    -0.299 NA
ATOM     18  N   UNL     1      -0.843  -2.818   7.467  0.00  0.00    -0.373 N 
ATOM     19  H   UNL     1       2.464  -1.917   4.709  0.00  0.00    +0.123 HD
ATOM     20  H   UNL     1      -1.406  -3.226   6.791  0.00  0.00    +0.161 HD
ATOM     21  H   UNL     1       0.921  -0.689   8.319  0.00  0.00    +0.153 HD
ENDROOT
BRANCH   1  27
ATOM     22  C   UNL     1      -0.018   1.503   0.010  0.00  0.00    +0.045 C 
ATOM     23  C   UNL     1       0.002  -0.004   0.002  0.00  0.00    -0.031 A 
ATOM     24  C   UNL     1       0.007  -0.729  -1.166  0.00  0.00    +0.011 A 
ATOM     25  C   UNL     1       0.026  -2.083  -1.101  0.00  0.00    +0.046 A 
ATOM     26  S   UNL     1       0.038  -2.416   0.545  0.00  0.00    -0.092 S 
ATOM     27  C   UNL     1       0.023  -0.748   1.172  0.00  0.00    +0.077 A 
ENDBRANCH   1  27
BRANCH  18  28
ATOM     28  C   UNL     1      -1.215  -2.906   8.882  0.00  0.00    +0.141 C 
BRANCH  28  29
ATOM     29  C   UNL     1      -2.524  -3.686   9.017  0.00  0.00    +0.180 C 
BRANCH  29  30
ATOM     30  O   UNL     1      -2.320  -5.036   8.595  0.00  0.00    -0.381 OA
ATOM     31  C   UNL     1      -3.488  -5.855   8.682  0.00  0.00    +0.194 C 
ENDBRANCH  29  30
ENDBRANCH  28  29
ENDBRANCH  18  28
TORSDOF 4
