REMARK  Name = ZINC37555814
REMARK  4 active torsions:
REMARK  status: ('A' for Active; 'I' for Inactive)
REMARK    1  A    between atoms: C_1  and  C_2
REMARK    2  A    between atoms: N_5  and  S_11
REMARK    3  A    between atoms: C_6  and  C_10
REMARK    4  A    between atoms: S_11  and  C_14
REMARK                            x       y       z     vdW  Elec       q    Type
REMARK                         _______ _______ _______ _____ _____    ______ ____
ROOT
ATOM      1  S   UNL     1      -2.225  -3.006  -0.815  0.00  0.00    +0.080 S 
ATOM      2  O   UNL     1      -2.443  -4.211  -0.094  0.00  0.00    -0.151 OA
ATOM      3  O   UNL     1      -3.290  -2.243  -1.363  0.00  0.00    -0.151 OA
ENDROOT
BRANCH   1   4
ATOM      4  C   UNL     1      -1.152  -3.408  -2.154  0.00  0.00    +0.218 A 
ATOM      5  C   UNL     1      -1.029  -2.728  -3.316  0.00  0.00    +0.175 A 
ATOM      6  N   UNL     1      -0.117  -3.342  -4.074  0.00  0.00    -0.214 NA
ATOM      7  C   UNL     1       0.348  -4.400  -3.425  0.00  0.00    +0.141 A 
ATOM      8  N   UNL     1      -0.282  -4.464  -2.210  0.00  0.00    -0.283 N 
ATOM      9  C   UNL     1       0.014  -5.464  -1.329  0.00  0.00    +0.094 A 
ATOM     10  C   UNL     1       0.933  -6.402  -1.638  0.00  0.00    +0.018 A 
ATOM     11  C   UNL     1       1.599  -6.362  -2.874  0.00  0.00    +0.005 A 
ATOM     12  C   UNL     1       1.307  -5.376  -3.765  0.00  0.00    +0.047 A 
ATOM     13 CL   UNL     1      -1.909  -1.296  -3.749  0.00  0.00    -0.058 Cl
ENDBRANCH   1   4
BRANCH   1  17
ATOM     14  C   UNL     1      -0.019   1.526   0.010  0.00  0.00    +0.039 C 
ATOM     15  C   UNL     1       0.002  -0.004   0.002  0.00  0.00    +0.131 C 
ATOM     16  C   UNL     1      -1.436  -0.536   0.015  0.00  0.00    +0.141 C 
ATOM     17  N   UNL     1      -1.389  -1.995   0.196  0.00  0.00    -0.168 NA
ATOM     18  C   UNL     1      -0.578  -2.530   1.302  0.00  0.00    +0.103 C 
ATOM     19  C   UNL     1       0.818  -1.901   1.226  0.00  0.00    +0.180 C 
ATOM     20  O   UNL     1       0.691  -0.479   1.161  0.00  0.00    -0.374 OA
ATOM     21  C   UNL     1      -1.232  -2.175   2.639  0.00  0.00    +0.028 C 
ENDBRANCH   1  17
TORSDOF 2
