REMARK  Name = ZINC56800604
REMARK  4 active torsions:
REMARK  status: ('A' for Active; 'I' for Inactive)
REMARK    1  A    between atoms: C_1  and  C_2
REMARK    2  A    between atoms: N_11  and  C_12
REMARK    3  A    between atoms: C_12  and  C_13
REMARK    4  A    between atoms: C_13  and  C_19
REMARK                            x       y       z     vdW  Elec       q    Type
REMARK                         _______ _______ _______ _____ _____    ______ ____
ROOT
ATOM      1  C   UNL     1       0.181  -6.424   2.737  0.00  0.00    +0.016 C 
ATOM      2  C   UNL     1      -0.303  -7.312   3.887  0.00  0.00    +0.041 C 
ATOM      3  C   UNL     1      -1.817  -7.151   4.043  0.00  0.00    +0.160 C 
ATOM      4  O   UNL     1      -2.460  -7.489   2.813  0.00  0.00    -0.380 OA
ATOM      5  C   UNL     1      -2.083  -6.660   1.711  0.00  0.00    +0.160 C 
ATOM      6  C   UNL     1      -0.579  -6.801   1.461  0.00  0.00    +0.041 C 
ENDROOT
BRANCH   1   7
ATOM      7  C   UNL     1       1.658  -6.631   2.524  0.00  0.00    -0.037 A 
ATOM      8  C   UNL     1       2.133  -6.989   1.276  0.00  0.00    +0.004 A 
ATOM      9  C   UNL     1       3.488  -7.179   1.079  0.00  0.00    +0.003 A 
ATOM     10  C   UNL     1       4.369  -7.013   2.131  0.00  0.00    +0.038 A 
ATOM     11  C   UNL     1       3.895  -6.654   3.381  0.00  0.00    +0.124 A 
ATOM     12  C   UNL     1       2.538  -6.458   3.575  0.00  0.00    +0.042 A 
ATOM     13  F   UNL     1       4.756  -6.491   4.409  0.00  0.00    -0.205 F 
ENDBRANCH   1   7
BRANCH   1  14
ATOM     14  C   UNL     1      -0.087  -4.956   3.076  0.00  0.00    +0.117 C 
BRANCH  14  24
ATOM     15  C   UNL     1       3.407  -2.403  -1.624  0.00  0.00    +0.009 C 
ATOM     16  C   UNL     1       2.829  -1.904  -0.298  0.00  0.00    +0.003 C 
ATOM     17  C   UNL     1       2.657  -0.384  -0.356  0.00  0.00    +0.006 C 
ATOM     18  C   UNL     1       2.110   0.120   0.982  0.00  0.00    +0.019 C 
ATOM     19  C   UNL     1       0.739  -0.512   1.238  0.00  0.00    +0.109 C 
ATOM     20  N   UNL     1       0.868  -1.974   1.152  0.00  0.00    -0.285 N 
ATOM     21  C   UNL     1       1.466  -2.560  -0.055  0.00  0.00    +0.112 C 
ATOM     22  C   UNL     1       0.446  -2.761   2.160  0.00  0.00    +0.302 C 
ATOM     23  O   UNL     1       0.041  -2.263   3.193  0.00  0.00    -0.253 OA
ATOM     24  N   UNL     1       0.473  -4.102   2.025  0.00  0.00    -0.298 N 
ATOM     25  H   UNL     1       0.862  -4.502   1.232  0.00  0.00    +0.150 HD
ENDBRANCH  14  24
ENDBRANCH   1  14
TORSDOF 3
