REMARK  Name = ZINC40095441
REMARK  6 active torsions:
REMARK  status: ('A' for Active; 'I' for Inactive)
REMARK    1  A    between atoms: C_1  and  C_2
REMARK    2  A    between atoms: C_5  and  N_9
REMARK    3  A    between atoms: C_6  and  C_8
REMARK    4  A    between atoms: N_12  and  C_13
REMARK    5  A    between atoms: N_12  and  C_14
REMARK    6  A    between atoms: C_14  and  C_15
REMARK                            x       y       z     vdW  Elec       q    Type
REMARK                         _______ _______ _______ _____ _____    ______ ____
ROOT
ATOM      1  N   UNL     1       0.022  -4.138  -0.072  0.00  0.00    -0.269 N 
ATOM      2  C   UNL     1      -0.057  -4.837  -1.222  0.00  0.00    +0.306 C 
ATOM      3  O   UNL     1      -0.056  -4.254  -2.289  0.00  0.00    -0.252 OA
ATOM      4  N   UNL     1      -0.138  -6.182  -1.189  0.00  0.00    -0.284 N 
ATOM      5  C   UNL     1      -0.139  -6.885   0.097  0.00  0.00    +0.134 C 
ATOM      6  H   UNL     1       0.083  -4.606   0.776  0.00  0.00    +0.156 HD
ENDROOT
BRANCH   1  11
ATOM      7  C   UNL     1      -0.006   1.533  -0.192  0.00  0.00    +0.044 C 
ATOM      8  C   UNL     1       0.001   0.027  -0.160  0.00  0.00    -0.050 A 
ATOM      9  C   UNL     1       0.615  -0.682  -1.177  0.00  0.00    +0.005 A 
ATOM     10  C   UNL     1       0.624  -2.063  -1.150  0.00  0.00    +0.024 A 
ATOM     11  C   UNL     1       0.015  -2.739  -0.101  0.00  0.00    +0.038 A 
ATOM     12  C   UNL     1      -0.600  -2.025   0.918  0.00  0.00    -0.029 A 
ATOM     13  C   UNL     1      -0.600  -0.644   0.889  0.00  0.00    +0.008 A 
ATOM     14  C   UNL     1      -1.262  -2.755   2.058  0.00  0.00    +0.045 C 
ENDBRANCH   1  11
BRANCH   4  15
ATOM     15  C   UNL     1      -0.223  -6.941  -2.439  0.00  0.00    +0.145 C 
BRANCH  15  16
ATOM     16  C   UNL     1       1.164  -7.184  -2.975  0.00  0.00    -0.016 A 
ATOM     17  C   UNL     1       2.268  -6.799  -2.237  0.00  0.00    +0.006 A 
ATOM     18  C   UNL     1       3.540  -7.022  -2.729  0.00  0.00    +0.000 A 
ATOM     19  C   UNL     1       3.710  -7.630  -3.959  0.00  0.00    +0.001 A 
ATOM     20  C   UNL     1       2.607  -8.016  -4.697  0.00  0.00    +0.015 A 
ATOM     21  C   UNL     1       1.333  -7.797  -4.203  0.00  0.00    +0.023 A 
ATOM     22 BR   UNL     1      -0.176  -8.331  -5.210  0.00  0.00    -0.050 Br
ENDBRANCH  15  16
ENDBRANCH   4  15
TORSDOF 3
