REMARK  Name = ZINC58213757
REMARK  5 active torsions:
REMARK  status: ('A' for Active; 'I' for Inactive)
REMARK    1  A    between atoms: C_1  and  C_2
REMARK    2  A    between atoms: C_6  and  C_10
REMARK    3  A    between atoms: C_11  and  C_13
REMARK    4  A    between atoms: C_14  and  C_15
REMARK    5  A    between atoms: C_20  and  N_21
REMARK                            x       y       z     vdW  Elec       q    Type
REMARK                         _______ _______ _______ _____ _____    ______ ____
ROOT
ATOM      1  C   UNL     1      -3.091  -2.312  -2.287  0.00  0.00    +0.068 C 
ATOM      2  C   UNL     1      -3.667  -3.098  -3.219  0.00  0.00    +0.015 C 
ENDROOT
BRANCH   1  11
ATOM      3  C   UNL     1       0.328   0.851  -0.281  0.00  0.00    +0.039 C 
ATOM      4  C   UNL     1      -0.092  -0.612  -0.123  0.00  0.00    +0.133 C 
ATOM      5  C   UNL     1      -1.583  -0.755  -0.453  0.00  0.00    +0.139 C 
ATOM      6  N   UNL     1      -2.003  -2.124  -0.115  0.00  0.00    -0.291 N 
ATOM      7  C   UNL     1      -1.668  -2.641   1.221  0.00  0.00    +0.099 C 
ATOM      8  C   UNL     1      -0.173  -2.406   1.469  0.00  0.00    +0.182 C 
ATOM      9  O   UNL     1       0.135  -1.032   1.224  0.00  0.00    -0.373 OA
ATOM     10  C   UNL     1      -1.972  -4.139   1.286  0.00  0.00    +0.030 C 
ATOM     11  C   UNL     1      -2.677  -2.882  -1.003  0.00  0.00    +0.240 C 
ATOM     12  O   UNL     1      -2.940  -4.040  -0.739  0.00  0.00    -0.271 OA
ENDBRANCH   1  11
BRANCH   2  13
ATOM     13  C   UNL     1      -4.084  -2.524  -4.509  0.00  0.00    +0.005 A 
ATOM     14  C   UNL     1      -4.200  -1.139  -4.657  0.00  0.00    +0.010 A 
ATOM     15  C   UNL     1      -4.591  -0.609  -5.869  0.00  0.00    +0.001 A 
ATOM     16  C   UNL     1      -4.868  -1.446  -6.937  0.00  0.00    +0.002 A 
ATOM     17  C   UNL     1      -4.755  -2.818  -6.798  0.00  0.00    +0.033 A 
ATOM     18  C   UNL     1      -4.359  -3.362  -5.594  0.00  0.00    +0.133 A 
BRANCH  18  19
ATOM     19  N   UNL     1      -4.233  -4.830  -5.449  0.00  0.00    +0.057 N 
ATOM     20  O   UNL     1      -3.340  -5.297  -4.781  0.00  0.00    -0.126 OA
ATOM     21  O   UNL     1      -5.024  -5.561  -5.998  0.00  0.00    -0.126 OA
ENDBRANCH  18  19
ENDBRANCH   2  13
TORSDOF 3
