REMARK  Name = ZINC04500001
REMARK  1 active torsions:
REMARK  status: ('A' for Active; 'I' for Inactive)
REMARK    1  A    between atoms: C_4  and  C_7
REMARK                            x       y       z     vdW  Elec       q    Type
REMARK                         _______ _______ _______ _____ _____    ______ ____
ROOT
ATOM      1  C   UNL     1       2.475   1.082  -0.015  0.00  0.00    +0.036 C 
ATOM      2  C   UNL     1       3.633   1.778  -0.125  0.00  0.00    +0.096 C 
ATOM      3  C   UNL     1       3.656   3.252  -0.128  0.00  0.00    +0.210 C 
ATOM      4  O   UNL     1       2.920   3.872   0.617  0.00  0.00    -0.285 OA
ATOM      5  C   UNL     1       4.569   3.982  -1.027  0.00  0.00    +0.050 A 
ATOM      6  C   UNL     1       4.407   5.364  -1.183  0.00  0.00    +0.014 A 
ATOM      7  C   UNL     1       5.266   6.071  -1.996  0.00  0.00    +0.001 A 
ATOM      8  C   UNL     1       6.289   5.418  -2.662  0.00  0.00    +0.002 A 
ATOM      9  C   UNL     1       6.450   4.052  -2.520  0.00  0.00    +0.029 A 
ATOM     10  C   UNL     1       5.595   3.332  -1.710  0.00  0.00    +0.119 A 
ATOM     11  S   UNL     1       5.811   1.587  -1.552  0.00  0.00    +0.073 S 
ATOM     12  O   UNL     1       7.168   1.372  -1.185  0.00  0.00    -0.150 OA
ATOM     13  O   UNL     1       5.226   0.994  -2.703  0.00  0.00    -0.150 OA
ATOM     14  N   UNL     1       4.882   1.129  -0.248  0.00  0.00    -0.212 N 
ATOM     15  H   UNL     1       5.179   0.459   0.387  0.00  0.00    +0.174 HD
ENDROOT
BRANCH   1  19
ATOM     16  C   UNL     1      -1.242   3.118  -0.154  0.00  0.00    +0.000 A 
ATOM     17  C   UNL     1      -1.110   1.978   0.621  0.00  0.00    +0.001 A 
ATOM     18  C   UNL     1       0.096   1.314   0.675  0.00  0.00    +0.008 A 
ATOM     19  C   UNL     1       1.186   1.788  -0.064  0.00  0.00    -0.023 A 
ATOM     20  C   UNL     1       1.042   2.938  -0.848  0.00  0.00    +0.008 A 
ATOM     21  C   UNL     1      -0.169   3.594  -0.887  0.00  0.00    +0.001 A 
ENDBRANCH   1  19
TORSDOF 1
