REMARK  Name = ZINC64348877
REMARK  9 active torsions:
REMARK  status: ('A' for Active; 'I' for Inactive)
REMARK    1  A    between atoms: C_1  and  C_2
REMARK    2  A    between atoms: C_5  and  C_8
REMARK    3  A    between atoms: N_11  and  N_12
REMARK    4  A    between atoms: C_13  and  C_14
REMARK    5  A    between atoms: C_17  and  O_22
REMARK    6  A    between atoms: C_18  and  O_20
REMARK    7  A    between atoms: O_20  and  C_21
REMARK    8  A    between atoms: C_24  and  N_26
REMARK    9  A    between atoms: C_27  and  C_29
REMARK                            x       y       z     vdW  Elec       q    Type
REMARK                         _______ _______ _______ _____ _____    ______ ____
ROOT
ATOM      1  C   UNL     1       0.058  -4.244  -0.021  0.00  0.00    +0.082 C 
ATOM      2  N   UNL     1       0.067  -4.918  -1.111  0.00  0.00    -0.222 NA
ATOM      3  C   UNL     1       0.085  -6.266  -1.172  0.00  0.00    +0.212 C 
ATOM      4  N   UNL     1       0.095  -7.037  -2.245  0.00  0.00    -0.122 NA
ATOM      5  S   UNL     1       0.092  -6.756   0.547  0.00  0.00    -0.056 S 
ATOM      6  C   UNL     1       0.075  -5.059   1.266  0.00  0.00    +0.188 C 
ENDROOT
BRANCH   1  11
ATOM      7  C   UNL     1      -0.018   1.503   0.010  0.00  0.00    +0.044 C 
ATOM      8  C   UNL     1       0.002  -0.004   0.002  0.00  0.00    -0.050 A 
ATOM      9  C   UNL     1       0.006  -0.686  -1.203  0.00  0.00    +0.004 A 
ATOM     10  C   UNL     1       0.024  -2.064  -1.219  0.00  0.00    +0.010 A 
ATOM     11  C   UNL     1       0.039  -2.774  -0.013  0.00  0.00    -0.001 A 
ATOM     12  C   UNL     1       0.036  -2.077   1.200  0.00  0.00    +0.010 A 
ATOM     13  C   UNL     1       0.023  -0.699   1.199  0.00  0.00    +0.004 A 
ENDBRANCH   1  11
BRANCH   6  14
ATOM     14  N   UNL     1      -1.133  -4.829   2.061  0.00  0.00    -0.298 N 
ATOM     15  C   UNL     1      -1.788  -5.871   2.610  0.00  0.00    +0.211 C 
ATOM     16  O   UNL     1      -1.376  -7.000   2.446  0.00  0.00    -0.276 OA
ATOM     17  C   UNL     1      -3.031  -5.634   3.428  0.00  0.00    +0.109 C 
ATOM     18  H   UNL     1      -1.462  -3.926   2.192  0.00  0.00    +0.150 HD
ENDBRANCH   6  14
BRANCH   4  19
ATOM     19  N   UNL     1       0.112  -8.321  -2.116  0.00  0.00    -0.155 NA
ATOM     20  C   UNL     1       0.122  -9.085  -3.177  0.00  0.00    +0.143 C 
BRANCH  20  21
ATOM     21  C   UNL     1       0.142 -10.547  -3.030  0.00  0.00    -0.002 A 
ATOM     22  C   UNL     1       0.145 -11.124  -1.756  0.00  0.00    +0.013 A 
ATOM     23  C   UNL     1       0.163 -12.496  -1.621  0.00  0.00    +0.050 A 
ATOM     24  C   UNL     1       0.180 -13.307  -2.747  0.00  0.00    +0.158 A 
ATOM     25  C   UNL     1       0.178 -12.740  -4.020  0.00  0.00    +0.162 A 
ATOM     26  C   UNL     1       0.153 -11.366  -4.165  0.00  0.00    +0.059 A 
BRANCH  25  27
ATOM     27  O   UNL     1       0.195 -13.540  -5.120  0.00  0.00    -0.491 OA
ATOM     28  C   UNL     1       0.193 -12.891  -6.393  0.00  0.00    +0.277 C 
ENDBRANCH  25  27
BRANCH  24  29
ATOM     29  O   UNL     1       0.198 -14.659  -2.607  0.00  0.00    -0.503 OA
ATOM     30  H   UNL     1      -0.680 -15.063  -2.571  0.00  0.00    +0.292 HD
ENDBRANCH  24  29
ENDBRANCH  20  21
ENDBRANCH   4  19
TORSDOF 6
