REMARK  Name = ZINC01496581
REMARK  7 active torsions:
REMARK  status: ('A' for Active; 'I' for Inactive)
REMARK    1  A    between atoms: C_3  and  C_9
REMARK    2  A    between atoms: C_4  and  O_8
REMARK    3  A    between atoms: C_6  and  O_7
REMARK    4  A    between atoms: N_10  and  N_11
REMARK    5  A    between atoms: C_12  and  C_14
REMARK    6  A    between atoms: C_14  and  O_15
REMARK    7  A    between atoms: O_15  and  C_16
REMARK                            x       y       z     vdW  Elec       q    Type
REMARK                         _______ _______ _______ _____ _____    ______ ____
ROOT
ATOM      1  N   UNL     1      -2.537   4.100   0.036  0.00  0.00    -0.204 N 
ATOM      2  C   UNL     1      -2.552   5.447   0.044  0.00  0.00    +0.270 C 
ATOM      3  O   UNL     1      -1.508   6.066   0.042  0.00  0.00    -0.270 OA
ATOM      4  H   UNL     1      -3.371   3.605   0.038  0.00  0.00    +0.177 HD
ENDROOT
BRANCH   1   6
ATOM      5  C   UNL     1      -1.301   2.115   0.020  0.00  0.00    +0.142 C 
ATOM      6  N   UNL     1      -1.315   3.413   0.027  0.00  0.00    -0.188 NA
BRANCH   5   9
ATOM      7  C   UNL     1       1.205  -0.676  -0.013  0.00  0.00    +0.046 A 
ATOM      8  C   UNL     1       0.002  -0.004   0.002  0.00  0.00    +0.016 A 
ATOM      9  C   UNL     1      -0.017   1.393   0.010  0.00  0.00    +0.036 A 
ATOM     10  C   UNL     1       1.192   2.105   0.002  0.00  0.00    +0.129 A 
ATOM     11  C   UNL     1       2.393   1.419  -0.014  0.00  0.00    +0.091 A 
ATOM     12  C   UNL     1       2.401   0.032  -0.021  0.00  0.00    +0.120 A 
BRANCH  12  13
ATOM     13  O   UNL     1       3.583  -0.638  -0.037  0.00  0.00    -0.507 OA
ATOM     14  H   UNL     1       3.916  -0.826  -0.925  0.00  0.00    +0.292 HD
ENDBRANCH  12  13
BRANCH  10  15
ATOM     15  O   UNL     1       1.182   3.463   0.009  0.00  0.00    -0.506 OA
ATOM     16  H   UNL     1       1.188   3.852   0.894  0.00  0.00    +0.292 HD
ENDBRANCH  10  15
ENDBRANCH   5   9
ENDBRANCH   1   6
BRANCH   2  17
ATOM     17  C   UNL     1      -3.865   6.186   0.054  0.00  0.00    +0.326 C 
BRANCH  17  18
ATOM     18  O   UNL     1      -3.620   7.594   0.060  0.00  0.00    -0.481 OA
BRANCH  18  19
ATOM     19  C   UNL     1      -4.707   8.410   0.070  0.00  0.00    +0.140 A 
ATOM     20  C   UNL     1      -5.983   7.866   0.073  0.00  0.00    +0.048 A 
ATOM     21  C   UNL     1      -7.087   8.697   0.083  0.00  0.00    +0.023 A 
ATOM     22  C   UNL     1      -6.921  10.071   0.090  0.00  0.00    +0.043 A 
ATOM     23  C   UNL     1      -5.649  10.616   0.086  0.00  0.00    +0.043 A 
ATOM     24  C   UNL     1      -4.542   9.788   0.083  0.00  0.00    +0.084 A 
ATOM     25 CL   UNL     1      -2.946  10.472   0.086  0.00  0.00    -0.080 Cl
ATOM     26 CL   UNL     1      -8.310  11.112   0.102  0.00  0.00    -0.083 Cl
ENDBRANCH  18  19
ENDBRANCH  17  18
ENDBRANCH   2  17
TORSDOF 7
