REMARK  Name = ZINC02241947
REMARK  12 active torsions:
REMARK  status: ('A' for Active; 'I' for Inactive)
REMARK    1  A    between atoms: C_1  and  C_2
REMARK    2  A    between atoms: N_8  and  C_9
REMARK    3  A    between atoms: C_9  and  C_10
REMARK    4  A    between atoms: C_10  and  C_11
REMARK    5  A    between atoms: C_10  and  C_12
REMARK    6  A    between atoms: C_13  and  C_21
REMARK    7  A    between atoms: C_15  and  C_19
REMARK    8  A    between atoms: C_16  and  N_18
REMARK    9  A    between atoms: C_23  and  O_29
REMARK   10  A    between atoms: C_26  and  O_27
REMARK   11  A    between atoms: O_27  and  C_28
REMARK   12  A    between atoms: O_29  and  C_30
REMARK                            x       y       z     vdW  Elec       q    Type
REMARK                         _______ _______ _______ _____ _____    ______ ____
ROOT
ATOM      1  C   UNL     1       5.328  -1.601   1.462  0.00  0.00    +0.064 C 
ATOM      2  C   UNL     1       3.906  -1.274   1.086  0.00  0.00    +0.022 A 
ATOM      3  C   UNL     1       3.542   0.015   0.915  0.00  0.00    +0.068 A 
ATOM      4  C   UNL     1       2.212   0.327   0.563  0.00  0.00    +0.141 A 
ATOM      5  C   UNL     1       1.306  -0.700   0.400  0.00  0.00    +0.072 A 
ATOM      6  C   UNL     1       1.729  -2.022   0.587  0.00  0.00    +0.259 A 
ATOM      7  O   UNL     1       0.938  -2.941   0.446  0.00  0.00    -0.267 OA
ATOM      8  N   UNL     1       3.007  -2.280   0.923  0.00  0.00    -0.312 N 
ATOM      9  C   UNL     1      -0.121  -0.412   0.025  0.00  0.00    +0.107 C 
ATOM     10  C   UNL     1      -0.439   1.037   0.268  0.00  0.00    +0.098 C 
ATOM     11  C   UNL     1       0.544   1.953   0.435  0.00  0.00    +0.199 C 
ATOM     12  O   UNL     1       1.845   1.615   0.393  0.00  0.00    -0.441 OA
ENDROOT
BRANCH   9  13
ATOM     13  C   UNL     1      -0.329  -0.731  -1.434  0.00  0.00    +0.011 A 
ATOM     14  C   UNL     1       0.397  -0.058  -2.398  0.00  0.00    +0.053 A 
ATOM     15  C   UNL     1       0.209  -0.355  -3.740  0.00  0.00    +0.121 A 
ATOM     16  C   UNL     1      -0.714  -1.321  -4.114  0.00  0.00    +0.049 A 
ATOM     17  C   UNL     1      -1.442  -1.990  -3.150  0.00  0.00    +0.049 A 
ATOM     18  C   UNL     1      -1.251  -1.697  -1.808  0.00  0.00    +0.124 A 
BRANCH  18  19
ATOM     19  O   UNL     1      -1.969  -2.356  -0.859  0.00  0.00    -0.495 OA
ATOM     20  C   UNL     1      -2.901  -3.337  -1.317  0.00  0.00    +0.277 C 
ENDBRANCH  18  19
BRANCH  15  21
ATOM     21  O   UNL     1       0.927   0.304  -4.688  0.00  0.00    -0.495 OA
ATOM     22  C   UNL     1       0.679  -0.049  -6.051  0.00  0.00    +0.277 C 
ENDBRANCH  15  21
ENDBRANCH   9  13
BRANCH  11  23
ATOM     23  N   UNL     1       0.203   3.264   0.653  0.00  0.00    -0.328 N 
ATOM     24  H   UNL     1      -0.731   3.523   0.686  0.00  0.00    +0.145 HD
ATOM     25  H   UNL     1       0.896   3.932   0.775  0.00  0.00    +0.145 HD
ENDBRANCH  11  23
BRANCH  10  26
ATOM     26  C   UNL     1      -1.807   1.458   0.317  0.00  0.00    +0.101 C 
ATOM     27  N   UNL     1      -2.892   1.792   0.356  0.00  0.00    -0.191 NA
ENDBRANCH  10  26
BRANCH   8  28
ATOM     28  C   UNL     1       3.435  -3.667   1.116  0.00  0.00    +0.128 C 
BRANCH  28  29
ATOM     29  C   UNL     1       3.777  -4.289  -0.239  0.00  0.00    +0.003 C 
ATOM     30  C   UNL     1       4.989  -3.571  -0.839  0.00  0.00    +0.009 C 
ATOM     31  C   UNL     1       4.104  -5.772  -0.052  0.00  0.00    +0.009 C 
ENDBRANCH  28  29
ENDBRANCH   8  28
TORSDOF 7
