REMARK  Name = ZINC16845362
REMARK  9 active torsions:
REMARK  status: ('A' for Active; 'I' for Inactive)
REMARK    1  A    between atoms: C_1  and  C_2
REMARK    2  A    between atoms: C_2  and  C_3
REMARK    3  A    between atoms: C_7  and  C_35
REMARK    4  A    between atoms: C_8  and  N_9
REMARK    5  A    between atoms: C_10  and  C_12
REMARK    6  A    between atoms: C_12  and  O_13
REMARK    7  A    between atoms: O_13  and  C_14
REMARK    8  A    between atoms: C_14  and  C_16
REMARK    9  A    between atoms: C_19  and  C_22
REMARK                            x       y       z     vdW  Elec       q    Type
REMARK                         _______ _______ _______ _____ _____    ______ ____
ROOT
ATOM      1  C   UNL     1      -1.722  -0.946  -2.988  0.00  0.00    +0.059 A 
ATOM      2  C   UNL     1      -3.091  -0.940  -2.717  0.00  0.00    +0.015 A 
ATOM      3  C   UNL     1      -3.982  -1.377  -3.676  0.00  0.00    +0.007 A 
ATOM      4  C   UNL     1      -3.520  -1.831  -4.899  0.00  0.00    -0.011 A 
ATOM      5  C   UNL     1      -2.164  -1.843  -5.172  0.00  0.00    +0.007 A 
ATOM      6  C   UNL     1      -1.262  -1.405  -4.224  0.00  0.00    +0.015 A 
ENDROOT
BRANCH   4   7
ATOM      7  C   UNL     1      -4.499  -2.312  -5.938  0.00  0.00    +0.191 C 
ATOM      8  N   UNL     1      -3.968  -2.046  -7.273  0.00  0.00    -0.322 N 
ATOM      9  C   UNL     1      -3.845  -0.765  -7.805  0.00  0.00    +0.055 A 
ATOM     10  C   UNL     1      -2.955  -0.558  -8.858  0.00  0.00    +0.025 A 
ATOM     11  C   UNL     1      -2.835   0.691  -9.431  0.00  0.00    +0.002 A 
ATOM     12  C   UNL     1      -3.596   1.747  -8.965  0.00  0.00    +0.002 A 
ATOM     13  C   UNL     1      -4.476   1.552  -7.916  0.00  0.00    +0.030 A 
ATOM     14  C   UNL     1      -4.596   0.305  -7.338  0.00  0.00    +0.126 A 
ATOM     15  S   UNL     1      -5.712   0.063  -5.990  0.00  0.00    +0.062 S 
ATOM     16  O   UNL     1      -6.996   0.479  -6.434  0.00  0.00    -0.153 OA
ATOM     17  O   UNL     1      -5.087   0.599  -4.832  0.00  0.00    -0.153 OA
ATOM     18  N   UNL     1      -5.779  -1.592  -5.785  0.00  0.00    -0.166 NA
ATOM     19  H   UNL     1      -3.687  -2.799  -7.815  0.00  0.00    +0.148 HD
ATOM     20  H   UNL     1      -6.608  -2.052  -5.580  0.00  0.00    +0.150 HD
ENDBRANCH   4   7
BRANCH   1  21
ATOM     21  C   UNL     1      -0.762  -0.475  -1.968  0.00  0.00    +0.340 C 
ATOM     22  O   UNL     1       0.430  -0.486  -2.205  0.00  0.00    -0.245 OA
BRANCH  21  23
ATOM     23  O   UNL     1      -1.208  -0.033  -0.776  0.00  0.00    -0.452 OA
BRANCH  23  24
ATOM     24  C   UNL     1      -0.209   0.414   0.177  0.00  0.00    +0.328 C 
BRANCH  24  26
ATOM     25  N   UNL     1      -0.155   1.329   2.474  0.00  0.00    -0.282 N 
ATOM     26  C   UNL     1      -0.889   0.869   1.442  0.00  0.00    +0.255 C 
ATOM     27  O   UNL     1      -2.098   0.821   1.532  0.00  0.00    -0.272 OA
ATOM     28  H   UNL     1       0.813   1.318   2.424  0.00  0.00    +0.155 HD
BRANCH  25  34
ATOM     29  C   UNL     1      -0.448   1.332   4.872  0.00  0.00    -0.026 A 
ATOM     30  C   UNL     1      -1.073   1.826   6.000  0.00  0.00    +0.005 A 
ATOM     31  C   UNL     1      -2.046   2.800   5.883  0.00  0.00    +0.001 A 
ATOM     32  C   UNL     1      -2.393   3.288   4.636  0.00  0.00    +0.005 A 
ATOM     33  C   UNL     1      -1.769   2.803   3.505  0.00  0.00    -0.029 A 
ATOM     34  C   UNL     1      -0.790   1.823   3.619  0.00  0.00    +0.040 A 
ATOM     35  C   UNL     1      -2.147   3.335   2.147  0.00  0.00    +0.045 C 
BRANCH  29  37
ATOM     36  C   UNL     1       1.991   0.918   5.041  0.00  0.00    +0.009 C 
ATOM     37  C   UNL     1       0.609   0.265   5.000  0.00  0.00    +0.033 C 
ENDBRANCH  29  37
ENDBRANCH  25  34
ENDBRANCH  24  26
ENDBRANCH  23  24
ENDBRANCH  21  23
ENDBRANCH   1  21
TORSDOF 7
