REMARK  Name = ZINC38942713
REMARK  8 active torsions:
REMARK  status: ('A' for Active; 'I' for Inactive)
REMARK    1  A    between atoms: C_1  and  C_2
REMARK    2  A    between atoms: C_2  and  C_3
REMARK    3  A    between atoms: C_2  and  C_4
REMARK    4  A    between atoms: C_4  and  N_5
REMARK    5  A    between atoms: C_9  and  N_19
REMARK    6  A    between atoms: C_14  and  C_17
REMARK    7  A    between atoms: C_14  and  C_18
REMARK    8  A    between atoms: C_20  and  C_22
REMARK                            x       y       z     vdW  Elec       q    Type
REMARK                         _______ _______ _______ _____ _____    ______ ____
ROOT
ATOM      1  N   UNL     1       0.144   0.035   2.495  0.00  0.00    -0.267 N 
ATOM      2  C   UNL     1       0.191   1.327   3.037  0.00  0.00    +0.078 A 
ATOM      3  C   UNL     1       0.202   2.439   2.209  0.00  0.00    +0.029 A 
ATOM      4  C   UNL     1       0.253   3.706   2.757  0.00  0.00    +0.025 A 
ATOM      5  C   UNL     1       0.293   3.868   4.136  0.00  0.00    +0.037 A 
ATOM      6  C   UNL     1       0.280   2.756   4.969  0.00  0.00    +0.070 A 
ATOM      7  C   UNL     1       0.226   1.486   4.422  0.00  0.00    +0.144 A 
ATOM      8  O   UNL     1       0.200   0.392   5.227  0.00  0.00    -0.489 OA
ATOM      9  C   UNL     1      -1.050  -0.277   5.376  0.00  0.00    +0.244 C 
ATOM     10  C   UNL     1      -1.746  -0.416   4.024  0.00  0.00    +0.076 C 
ATOM     11  C   UNL     1      -0.759  -0.851   2.971  0.00  0.00    +0.229 C 
ATOM     12  O   UNL     1      -0.773  -1.990   2.557  0.00  0.00    -0.275 OA
ATOM     13  C   UNL     1      -2.862  -1.457   4.133  0.00  0.00    +0.024 C 
ATOM     14  C   UNL     1      -2.350   0.931   3.623  0.00  0.00    +0.024 C 
ENDROOT
BRANCH   5  15
ATOM     15  N   UNL     1       0.347   5.153   4.687  0.00  0.00    -0.279 N 
ATOM     16  C   UNL     1      -0.297   5.419   5.841  0.00  0.00    +0.284 C 
ATOM     17  O   UNL     1      -0.852   4.524   6.447  0.00  0.00    -0.266 OA
ATOM     18  H   UNL     1       0.848   5.852   4.239  0.00  0.00    +0.155 HD
BRANCH  16  19
ATOM     19  C   UNL     1      -0.329   6.802   6.369  0.00  0.00    +0.194 A 
ATOM     20  C   UNL     1      -0.981   7.037   7.535  0.00  0.00    +0.103 A 
ATOM     21  C   UNL     1      -1.021   8.419   8.044  0.00  0.00    +0.193 A 
ATOM     22  O   UNL     1      -1.384   8.678   9.178  0.00  0.00    -0.287 OA
ATOM     23  C   UNL     1      -0.595   9.470   7.099  0.00  0.00    +0.064 A 
ATOM     24  C   UNL     1      -0.824  10.820   7.358  0.00  0.00    +0.015 A 
ATOM     25  C   UNL     1      -0.418  11.761   6.452  0.00  0.00    +0.001 A 
ATOM     26  C   UNL     1       0.218  11.377   5.280  0.00  0.00    +0.004 A 
ATOM     27  C   UNL     1       0.454  10.047   5.007  0.00  0.00    +0.047 A 
ATOM     28  C   UNL     1       0.053   9.072   5.917  0.00  0.00    +0.139 A 
ATOM     29  O   UNL     1       0.292   7.768   5.678  0.00  0.00    -0.450 OA
ENDBRANCH  16  19
ENDBRANCH   5  15
BRANCH   1  30
ATOM     30  C   UNL     1       1.061  -0.350   1.419  0.00  0.00    +0.116 C 
BRANCH  30  32
ATOM     31  C   UNL     1       2.166  -2.054   2.874  0.00  0.00    +0.009 C 
ATOM     32  C   UNL     1       2.392  -0.805   2.021  0.00  0.00    +0.001 C 
ATOM     33  C   UNL     1       3.377  -1.127   0.895  0.00  0.00    +0.009 C 
ENDBRANCH  30  32
ENDBRANCH   1  30
TORSDOF 4
