REMARK  Name = ZINC64025487
REMARK  7 active torsions:
REMARK  status: ('A' for Active; 'I' for Inactive)
REMARK    1  A    between atoms: C_1  and  N_2
REMARK    2  A    between atoms: N_2  and  C_3
REMARK    3  A    between atoms: N_2  and  C_17
REMARK    4  A    between atoms: C_3  and  C_4
REMARK    5  A    between atoms: N_13  and  C_14
REMARK    6  A    between atoms: C_17  and  N_18
REMARK    7  A    between atoms: C_22  and  C_25
REMARK                            x       y       z     vdW  Elec       q    Type
REMARK                         _______ _______ _______ _____ _____    ______ ____
ROOT
ATOM      1  C   UNL     1       0.161   1.986   0.336  0.00  0.00    -0.093 C 
ATOM      2  N   UNL     1       0.077   0.532   0.144  0.00  0.00    +0.393 N 
ATOM      3  H   UNL     1       0.439   0.292  -0.767  0.00  0.00    -0.079 HD
ENDROOT
BRANCH   2   4
ATOM      4  C   UNL     1       0.870  -0.145   1.179  0.00  0.00    -0.034 C 
BRANCH   4   5
ATOM      5  C   UNL     1       2.352   0.178   0.979  0.00  0.00    +0.147 C 
ATOM      6  N   UNL     1       3.151  -0.426   2.052  0.00  0.00    -0.326 N 
ATOM      7  C   UNL     1       4.044  -1.324   1.453  0.00  0.00    +0.050 A 
ATOM      8  C   UNL     1       5.012  -2.146   2.018  0.00  0.00    +0.025 A 
ATOM      9  C   UNL     1       5.786  -2.961   1.214  0.00  0.00    +0.002 A 
ATOM     10  C   UNL     1       5.602  -2.961  -0.156  0.00  0.00    +0.002 A 
ATOM     11  C   UNL     1       4.642  -2.147  -0.727  0.00  0.00    +0.025 A 
ATOM     12  C   UNL     1       3.858  -1.325   0.074  0.00  0.00    +0.056 A 
ATOM     13  N   UNL     1       2.838  -0.424  -0.269  0.00  0.00    -0.257 N 
ATOM     14  H   UNL     1       3.075  -0.237   3.001  0.00  0.00    +0.148 HD
BRANCH  13  15
ATOM     15  C   UNL     1       2.346  -0.139  -1.619  0.00  0.00    +0.436 C 
ATOM     16  F   UNL     1       3.377  -0.344  -2.543  0.00  0.00    -0.187 F 
ATOM     17  F   UNL     1       1.278  -0.991  -1.916  0.00  0.00    -0.187 F 
ENDBRANCH  13  15
ENDBRANCH   4   5
ENDBRANCH   2   4
BRANCH   2  18
ATOM     18  C   UNL     1      -1.325   0.105   0.243  0.00  0.00    +0.071 C 
BRANCH  18  19
ATOM     19  N   UNL     1      -2.091   0.687  -0.862  0.00  0.00    -0.257 N 
ATOM     20  C   UNL     1      -2.952   1.722  -0.776  0.00  0.00    +0.174 A 
ATOM     21  S   UNL     1      -3.345   2.594   0.643  0.00  0.00    -0.012 S 
ATOM     22  N   UNL     1      -3.446   1.947  -2.010  0.00  0.00    -0.317 N 
ATOM     23  C   UNL     1      -2.879   1.032  -2.877  0.00  0.00    +0.167 A 
ATOM     24  N   UNL     1      -2.060   0.273  -2.201  0.00  0.00    -0.152 NA
ATOM     25  H   UNL     1      -4.089   2.634  -2.248  0.00  0.00    +0.169 HD
BRANCH  23  26
ATOM     26  C   UNL     1      -3.150   0.933  -4.322  0.00  0.00    +0.056 A 
ATOM     27  C   UNL     1      -2.634   0.054  -5.240  0.00  0.00    +0.019 A 
ATOM     28  C   UNL     1      -3.040   0.154  -6.551  0.00  0.00    +0.008 A 
ATOM     29  C   UNL     1      -3.935   1.116  -6.896  0.00  0.00    +0.046 A 
ATOM     30  S   UNL     1      -4.241   1.921  -5.332  0.00  0.00    -0.094 S 
ENDBRANCH  23  26
ENDBRANCH  18  19
ENDBRANCH   2  18
TORSDOF 6
