REMARK  Name = ZINC21175489
REMARK  6 active torsions:
REMARK  status: ('A' for Active; 'I' for Inactive)
REMARK    1  A    between atoms: C_1  and  C_2
REMARK    2  A    between atoms: C_5  and  N_8
REMARK    3  A    between atoms: C_9  and  S_13
REMARK    4  A    between atoms: S_13  and  C_14
REMARK    5  A    between atoms: C_14  and  C_15
REMARK    6  A    between atoms: C_21  and  C_26
REMARK                            x       y       z     vdW  Elec       q    Type
REMARK                         _______ _______ _______ _____ _____    ______ ____
ROOT
ATOM      1  C   UNL     1       3.043  -5.783   4.197  0.00  0.00    +0.121 A 
ATOM      2  N   UNL     1       3.562  -6.819   4.904  0.00  0.00    -0.310 N 
ATOM      3  H   UNL     1       3.381  -7.728   4.618  0.00  0.00    +0.170 HD
ATOM      4  C   UNL     1       4.324  -6.609   5.994  0.00  0.00    +0.260 A 
ATOM      5  O   UNL     1       4.784  -7.550   6.618  0.00  0.00    -0.267 OA
ATOM      6  C   UNL     1       4.587  -5.265   6.409  0.00  0.00    +0.080 A 
ATOM      7  C   UNL     1       5.372  -4.785   7.539  0.00  0.00    +0.005 A 
ATOM      8  C   UNL     1       5.482  -3.449   7.736  0.00  0.00    +0.056 A 
ATOM      9  S   UNL     1       4.527  -2.755   6.400  0.00  0.00    -0.076 S 
ATOM     10  C   UNL     1       4.008  -4.260   5.617  0.00  0.00    +0.116 A 
ATOM     11  N   UNL     1       3.269  -4.545   4.548  0.00  0.00    -0.226 NA
ENDROOT
BRANCH   7  12
ATOM     12  C   UNL     1       6.037  -5.740   8.457  0.00  0.00    +0.002 A 
ATOM     13  C   UNL     1       5.637  -5.825   9.790  0.00  0.00    +0.010 A 
ATOM     14  C   UNL     1       6.260  -6.716  10.639  0.00  0.00    +0.001 A 
ATOM     15  C   UNL     1       7.279  -7.526  10.171  0.00  0.00    +0.001 A 
ATOM     16  C   UNL     1       7.681  -7.447   8.850  0.00  0.00    +0.020 A 
ATOM     17  C   UNL     1       7.062  -6.563   7.989  0.00  0.00    +0.049 A 
ATOM     18 CL   UNL     1       7.563  -6.470   6.329  0.00  0.00    -0.083 Cl
ENDBRANCH   7  12
BRANCH   1  19
ATOM     19  C   UNL     1       2.196  -6.066   2.983  0.00  0.00    +0.151 C 
BRANCH  19  20
ATOM     20  S   UNL     1       1.654  -4.499   2.246  0.00  0.00    -0.076 S 
BRANCH  20  22
ATOM     21  N   UNL     1       0.059  -4.173  -0.021  0.00  0.00    -0.187 N 
ATOM     22  C   UNL     1       0.688  -4.993   0.857  0.00  0.00    +0.214 A 
ATOM     23  N   UNL     1       0.441  -6.228   0.476  0.00  0.00    -0.101 NA
ATOM     24  N   UNL     1      -0.296  -6.235  -0.576  0.00  0.00    -0.022 NA
ATOM     25  N   UNL     1      -0.576  -5.030  -0.937  0.00  0.00    -0.038 NA
BRANCH  21  30
ATOM     26  C   UNL     1      -0.018   1.503   0.010  0.00  0.00    +0.044 C 
ATOM     27  C   UNL     1       0.002  -0.004   0.002  0.00  0.00    -0.050 A 
ATOM     28  C   UNL     1       0.006  -0.688  -1.200  0.00  0.00    +0.005 A 
ATOM     29  C   UNL     1       0.025  -2.068  -1.211  0.00  0.00    +0.028 A 
ATOM     30  C   UNL     1       0.040  -2.771  -0.013  0.00  0.00    +0.070 A 
ATOM     31  C   UNL     1       0.037  -2.082   1.192  0.00  0.00    +0.028 A 
ATOM     32  C   UNL     1       0.023  -0.700   1.196  0.00  0.00    +0.005 A 
ENDBRANCH  21  30
ENDBRANCH  20  22
ENDBRANCH  19  20
ENDBRANCH   1  19
TORSDOF 5
