REMARK  Name = ZINC49009438
REMARK  7 active torsions:
REMARK  status: ('A' for Active; 'I' for Inactive)
REMARK    1  A    between atoms: C_1  and  C_2
REMARK    2  A    between atoms: C_7  and  N_10
REMARK    3  A    between atoms: N_10  and  C_11
REMARK    4  A    between atoms: N_10  and  S_12
REMARK    5  A    between atoms: S_12  and  C_15
REMARK    6  A    between atoms: C_18  and  O_22
REMARK    7  A    between atoms: C_19  and  N_21
REMARK                            x       y       z     vdW  Elec       q    Type
REMARK                         _______ _______ _______ _____ _____    ______ ____
ROOT
ATOM      1  S   UNL     1       2.884  -3.329   0.158  0.00  0.00    +0.061 S 
ATOM      2  O   UNL     1       3.566  -3.150  -1.076  0.00  0.00    -0.153 OA
ATOM      3  O   UNL     1       3.453  -2.954   1.405  0.00  0.00    -0.153 OA
ENDROOT
BRANCH   1   4
ATOM      4  C   UNL     1       2.499  -5.045   0.276  0.00  0.00    +0.107 A 
ATOM      5  C   UNL     1       2.288  -5.620   1.516  0.00  0.00    +0.032 A 
ATOM      6  C   UNL     1       1.985  -6.966   1.615  0.00  0.00    +0.049 A 
ATOM      7  C   UNL     1       1.892  -7.741   0.471  0.00  0.00    +0.137 A 
ATOM      8  C   UNL     1       2.104  -7.162  -0.778  0.00  0.00    +0.068 A 
ATOM      9  C   UNL     1       2.402  -5.810  -0.870  0.00  0.00    +0.055 A 
BRANCH   8  10
ATOM     10  N   UNL     1       2.011  -7.941  -1.938  0.00  0.00    -0.355 N 
ATOM     11  H   UNL     1       1.800  -8.885  -1.872  0.00  0.00    +0.142 HD
ATOM     12  H   UNL     1       2.159  -7.536  -2.807  0.00  0.00    +0.142 HD
ENDBRANCH   8  10
BRANCH   7  13
ATOM     13  O   UNL     1       1.594  -9.065   0.567  0.00  0.00    -0.505 OA
ATOM     14  H   UNL     1       0.647  -9.258   0.537  0.00  0.00    +0.292 HD
ENDBRANCH   7  13
ENDBRANCH   1   4
BRANCH   1  15
ATOM     15  N   UNL     1       1.448  -2.513   0.028  0.00  0.00    -0.177 NA
ATOM     16  C   UNL     1       0.871  -2.252  -1.293  0.00  0.00    +0.132 C 
BRANCH  15  22
ATOM     17  C   UNL     1       2.860   1.114   1.850  0.00  0.00    +0.007 C 
ATOM     18  C   UNL     1       1.965   0.130   1.093  0.00  0.00    -0.013 C 
ATOM     19  C   UNL     1       0.661   0.827   0.698  0.00  0.00    +0.003 C 
ATOM     20  C   UNL     1      -0.234  -0.157  -0.059  0.00  0.00    +0.002 C 
ATOM     21  C   UNL     1      -0.547  -1.355   0.839  0.00  0.00    +0.020 C 
ATOM     22  C   UNL     1       0.756  -2.052   1.234  0.00  0.00    +0.080 C 
ATOM     23  C   UNL     1       1.651  -1.069   1.991  0.00  0.00    +0.024 C 
ENDBRANCH  15  22
ENDBRANCH   1  15
TORSDOF 5
