REMARK  Name = ZINC04236853
REMARK  8 active torsions:
REMARK  status: ('A' for Active; 'I' for Inactive)
REMARK    1  A    between atoms: C_1  and  C_2
REMARK    2  A    between atoms: C_7  and  C_34
REMARK    3  A    between atoms: C_12  and  O_25
REMARK    4  A    between atoms: C_14  and  C_16
REMARK    5  A    between atoms: C_16  and  C_17
REMARK    6  A    between atoms: C_28  and  C_31
REMARK    7  A    between atoms: C_31  and  O_32
REMARK    8  A    between atoms: O_32  and  C_33
REMARK                            x       y       z     vdW  Elec       q    Type
REMARK                         _______ _______ _______ _____ _____    ______ ____
ROOT
ATOM      1  C   UNL     1      -1.679   0.914   1.327  0.00  0.00    +0.012 C 
ATOM      2  C   UNL     1      -0.470   1.870   1.384  0.00  0.00    -0.023 C 
ATOM      3  C   UNL     1       0.297   1.783   0.067  0.00  0.00    +0.010 C 
ATOM      4  C   UNL     1      -0.499   2.389  -1.086  0.00  0.00    +0.033 C 
ATOM      5  C   UNL     1      -0.796   3.855  -0.777  0.00  0.00    +0.130 C 
ATOM      6  C   UNL     1      -1.649   3.937   0.493  0.00  0.00    +0.021 C 
ATOM      7  C   UNL     1      -0.929   3.289   1.672  0.00  0.00    +0.006 C 
ATOM      8  C   UNL     1       0.257   4.181   2.056  0.00  0.00    +0.007 C 
ATOM      9  C   UNL     1       1.024   3.596   3.243  0.00  0.00    +0.032 C 
ATOM     10  C   UNL     1       1.571   2.227   2.849  0.00  0.00    +0.119 C 
ATOM     11  C   UNL     1       0.420   1.299   2.497  0.00  0.00    +0.032 C 
ATOM     12  C   UNL     1      -3.019   3.325   0.194  0.00  0.00    +0.172 C 
ATOM     13  O   UNL     1      -3.597   4.125  -0.862  0.00  0.00    -0.348 OA
ATOM     14  C   UNL     1      -2.840   4.027  -2.075  0.00  0.00    +0.276 C 
ATOM     15  O   UNL     1      -1.499   4.457  -1.861  0.00  0.00    -0.345 OA
ATOM     16  C   UNL     1      -1.897   5.428   0.797  0.00  0.00    +0.016 C 
ENDROOT
BRANCH  10  17
ATOM     17  O   UNL     1       2.315   1.680   3.942  0.00  0.00    -0.391 OA
ATOM     18  H   UNL     1       3.068   2.222   4.215  0.00  0.00    +0.210 HD
ENDBRANCH  10  17
BRANCH  11  19
ATOM     19  C   UNL     1      -0.429   0.995   3.732  0.00  0.00    +0.102 C 
BRANCH  19  20
ATOM     20  C   UNL     1       0.355   0.124   4.679  0.00  0.00    +0.216 C 
ATOM     21  O   UNL     1       1.413  -0.354   4.328  0.00  0.00    -0.276 OA
ATOM     22  N   UNL     1      -0.118  -0.122   5.917  0.00  0.00    -0.297 N 
ATOM     23  C   UNL     1      -1.395   0.453   6.368  0.00  0.00    +0.136 C 
ATOM     24  C   UNL     1      -2.253  -0.683   6.949  0.00  0.00    +0.179 C 
ATOM     25  O   UNL     1      -1.492  -1.389   7.932  0.00  0.00    -0.377 OA
ATOM     26  C   UNL     1      -0.323  -2.031   7.418  0.00  0.00    +0.179 C 
ATOM     27  C   UNL     1       0.631  -0.969   6.859  0.00  0.00    +0.136 C 
ENDBRANCH  19  20
ENDBRANCH  11  19
BRANCH  14  28
ATOM     28  C   UNL     1      -3.495   4.908  -3.143  0.00  0.00    +0.220 C 
BRANCH  28  29
ATOM     29  O   UNL     1      -3.514   6.265  -2.695  0.00  0.00    -0.378 OA
ATOM     30  C   UNL     1      -4.107   7.175  -3.622  0.00  0.00    +0.194 C 
ENDBRANCH  28  29
ENDBRANCH  14  28
TORSDOF 5
