REMARK  Name = ZINC17702511
REMARK  8 active torsions:
REMARK  status: ('A' for Active; 'I' for Inactive)
REMARK    1  A    between atoms: C_1  and  N_2
REMARK    2  A    between atoms: N_2  and  C_3
REMARK    3  A    between atoms: N_2  and  C_4
REMARK    4  A    between atoms: C_4  and  C_6
REMARK    5  A    between atoms: C_4  and  C_23
REMARK    6  A    between atoms: C_6  and  N_7
REMARK    7  A    between atoms: C_8  and  C_10
REMARK    8  A    between atoms: C_10  and  N_11
REMARK                            x       y       z     vdW  Elec       q    Type
REMARK                         _______ _______ _______ _____ _____    ______ ____
ROOT
ATOM      1  N   UNL     1       4.660   5.064  -1.097  0.00  0.00    -0.315 N 
ATOM      2  C   UNL     1       5.454   5.536  -2.078  0.00  0.00    +0.235 C 
ATOM      3  O   UNL     1       5.077   5.507  -3.230  0.00  0.00    -0.274 OA
ATOM      4  H   UNL     1       5.002   5.090  -0.052  0.00  0.00    +0.149 HD
ENDROOT
BRANCH   1   5
ATOM      5  C   UNL     1       3.341   4.515  -1.422  0.00  0.00    +0.093 C 
BRANCH   5   6
ATOM      6  C   UNL     1       2.650   4.052  -0.138  0.00  0.00    -0.020 C 
BRANCH   6   7
ATOM      7  C   UNL     1       1.348   3.377  -0.483  0.00  0.00    -0.041 A 
ATOM      8  C   UNL     1       1.198   2.749  -1.706  0.00  0.00    +0.003 A 
ATOM      9  C   UNL     1       0.003   2.130  -2.022  0.00  0.00    +0.000 A 
ATOM     10  C   UNL     1      -1.044   2.142  -1.119  0.00  0.00    +0.001 A 
ATOM     11  C   UNL     1      -0.892   2.765   0.105  0.00  0.00    +0.020 A 
ATOM     12  C   UNL     1       0.303   3.385   0.423  0.00  0.00    +0.043 A 
ATOM     13 CL   UNL     1       0.491   4.174   1.958  0.00  0.00    -0.083 Cl
ENDBRANCH   6   7
BRANCH   6  15
ATOM     14  C   UNL     1       2.994   2.809   1.911  0.00  0.00    -0.096 C 
ATOM     15  N   UNL     1       3.520   3.104   0.571  0.00  0.00    +0.382 N 
ATOM     16  C   UNL     1       3.701   1.872  -0.207  0.00  0.00    -0.096 C 
ATOM     17  H   UNL     1       4.506   3.576   0.692  0.00  0.00    -0.082 HD
ENDBRANCH   6  15
ENDBRANCH   5   6
ENDBRANCH   1   5
BRANCH   2  18
ATOM     18  C   UNL     1       6.811   6.101  -1.744  0.00  0.00    +0.243 C 
BRANCH  18  19
ATOM     19  N   UNL     1       7.472   6.544  -2.973  0.00  0.00    -0.217 N 
ATOM     20  C   UNL     1       7.286   7.810  -3.395  0.00  0.00    +0.276 A 
ATOM     21  O   UNL     1       6.579   8.569  -2.762  0.00  0.00    -0.266 OA
ATOM     22  C   UNL     1       7.952   8.270  -4.633  0.00  0.00    +0.053 A 
ATOM     23  C   UNL     1       7.795   9.565  -5.106  0.00  0.00    +0.014 A 
ATOM     24  C   UNL     1       8.433   9.950  -6.272  0.00  0.00    +0.001 A 
ATOM     25  C   UNL     1       9.226   9.054  -6.968  0.00  0.00    +0.001 A 
ATOM     26  C   UNL     1       9.393   7.759  -6.510  0.00  0.00    +0.014 A 
ATOM     27  C   UNL     1       8.759   7.358  -5.342  0.00  0.00    +0.055 A 
ATOM     28  C   UNL     1       8.906   5.984  -4.813  0.00  0.00    +0.295 A 
ATOM     29  O   UNL     1       9.594   5.172  -5.400  0.00  0.00    -0.264 OA
ATOM     30  N   UNL     1       8.271   5.641  -3.675  0.00  0.00    -0.125 NA
ENDBRANCH  18  19
ENDBRANCH   2  18
TORSDOF 6
