REMARK  Name = ZINC49064470
REMARK  5 active torsions:
REMARK  status: ('A' for Active; 'I' for Inactive)
REMARK    1  A    between atoms: C_1  and  N_2
REMARK    2  A    between atoms: N_2  and  C_3
REMARK    3  A    between atoms: C_7  and  C_9
REMARK    4  A    between atoms: C_11  and  C_13
REMARK    5  A    between atoms: C_15  and  N_18
REMARK                            x       y       z     vdW  Elec       q    Type
REMARK                         _______ _______ _______ _____ _____    ______ ____
ROOT
ATOM      1  C   UNL     1      -0.665   1.395   0.020  0.00  0.00    +0.138 C 
ATOM      2  N   UNL     1      -0.335  -0.032  -0.008  0.00  0.00    -0.270 N 
ATOM      3  C   UNL     1      -0.178  -0.665  -1.187  0.00  0.00    +0.251 C 
ATOM      4  O   UNL     1      -0.032  -1.872  -1.215  0.00  0.00    -0.270 OA
ENDROOT
BRANCH   2   5
ATOM      5  C   UNL     1      -0.182  -0.738   1.190  0.00  0.00    +0.037 A 
ATOM      6  C   UNL     1       0.300  -2.041   1.173  0.00  0.00    +0.023 A 
ATOM      7  C   UNL     1       0.452  -2.743   2.353  0.00  0.00    +0.003 A 
ATOM      8  C   UNL     1       0.127  -2.155   3.558  0.00  0.00    +0.019 A 
ATOM      9  C   UNL     1      -0.358  -0.845   3.588  0.00  0.00    +0.054 A 
ATOM     10  C   UNL     1      -0.506  -0.135   2.396  0.00  0.00    +0.042 A 
BRANCH   9  11
ATOM     11  C   UNL     1      -0.697  -0.232   4.837  0.00  0.00    +0.099 C 
ATOM     12  N   UNL     1      -0.966   0.254   5.827  0.00  0.00    -0.191 NA
ENDBRANCH   9  11
ENDBRANCH   2   5
BRANCH   3  13
ATOM     13  C   UNL     1      -0.184   0.105  -2.442  0.00  0.00    +0.046 A 
ATOM     14  C   UNL     1      -0.261  -0.546  -3.727  0.00  0.00    +0.053 A 
ATOM     15  C   UNL     1      -0.258   0.271  -4.799  0.00  0.00    +0.164 A 
ATOM     16  S   UNL     1      -0.153   1.891  -4.070  0.00  0.00    -0.072 S 
ATOM     17  C   UNL     1      -0.122   1.480  -2.444  0.00  0.00    +0.060 A 
BRANCH  15  18
ATOM     18  N   UNL     1      -0.326  -0.091  -6.233  0.00  0.00    +0.063 N 
ATOM     19  O   UNL     1      -0.394  -1.252  -6.561  0.00  0.00    -0.126 OA
ATOM     20  O   UNL     1      -0.313   0.775  -7.076  0.00  0.00    -0.126 OA
ENDBRANCH  15  18
ENDBRANCH   3  13
TORSDOF 4
