REMARK  Name = ZINC63887472
REMARK  4 active torsions:
REMARK  status: ('A' for Active; 'I' for Inactive)
REMARK    1  A    between atoms: C_1  and  C_2
REMARK    2  A    between atoms: C_2  and  C_3
REMARK    3  A    between atoms: C_2  and  C_4
REMARK    4  A    between atoms: C_2  and  C_5
REMARK                            x       y       z     vdW  Elec       q    Type
REMARK                         _______ _______ _______ _____ _____    ______ ____
ROOT
ATOM      1  C   UNL     1       0.718  -0.497  -1.257  0.00  0.00    -0.004 C 
ATOM      2  C   UNL     1       0.717  -2.024  -1.268  0.00  0.00    +0.008 C 
ATOM      3  C   UNL     1       1.365  -2.553  -2.555  0.00  0.00    +0.033 C 
ATOM      4  C   UNL     1       2.732  -1.881  -2.659  0.00  0.00    -0.042 C 
ATOM      5  C   UNL     1       3.889  -2.524  -2.783  0.00  0.00    +0.067 C 
ATOM      6  C   UNL     1       4.059  -4.004  -2.971  0.00  0.00    +0.254 C 
ATOM      7  O   UNL     1       3.116  -4.768  -3.034  0.00  0.00    -0.270 OA
ATOM      8  N   UNL     1       5.344  -4.421  -3.067  0.00  0.00    -0.234 N 
ATOM      9  C   UNL     1       6.402  -3.606  -3.002  0.00  0.00    +0.331 C 
ATOM     10  O   UNL     1       7.508  -4.108  -3.099  0.00  0.00    -0.250 OA
ATOM     11  N   UNL     1       6.334  -2.274  -2.839  0.00  0.00    -0.156 NA
ATOM     12  C   UNL     1       5.149  -1.730  -2.733  0.00  0.00    +0.104 C 
ATOM     13  S   UNL     1       4.616  -0.060  -2.517  0.00  0.00    -0.100 S 
ATOM     14  C   UNL     1       2.808  -0.355  -2.588  0.00  0.00    +0.080 C 
ATOM     15  C   UNL     1       2.148   0.053  -1.270  0.00  0.00    +0.023 C 
ATOM     16  H   UNL     1       5.507  -5.370  -3.189  0.00  0.00    +0.159 HD
ENDROOT
BRANCH   1  18
ATOM     17  C   UNL     1      -0.019   1.526   0.010  0.00  0.00    +0.011 C 
ATOM     18  C   UNL     1       0.002  -0.004   0.002  0.00  0.00    -0.035 C 
ATOM     19  C   UNL     1       0.742  -0.511   1.242  0.00  0.00    +0.011 C 
ATOM     20  C   UNL     1      -1.433  -0.534   0.013  0.00  0.00    +0.011 C 
ENDBRANCH   1  18
TORSDOF 1
