REMARK  Name = ZINC04019901
REMARK  10 active torsions:
REMARK  status: ('A' for Active; 'I' for Inactive)
REMARK    1  A    between atoms: C_1  and  C_2
REMARK    2  A    between atoms: C_3  and  C_21
REMARK    3  A    between atoms: C_4  and  C_16
REMARK    4  A    between atoms: C_6  and  C_14
REMARK    5  A    between atoms: C_7  and  S_9
REMARK    6  A    between atoms: S_9  and  C_10
REMARK    7  A    between atoms: C_10  and  C_11
REMARK    8  A    between atoms: N_23  and  C_24
REMARK    9  A    between atoms: C_29  and  O_30
REMARK   10  A    between atoms: O_30  and  C_31
REMARK                            x       y       z     vdW  Elec       q    Type
REMARK                         _______ _______ _______ _____ _____    ______ ____
ROOT
ATOM      1  C   UNL     1       0.001  -0.006   0.022  0.00  0.00    +0.061 C 
ATOM      2  C   UNL     1      -0.019   1.501   0.035  0.00  0.00    +0.014 C 
ATOM      3  C   UNL     1      -1.196   2.147   0.038  0.00  0.00    +0.044 C 
ATOM      4  C   UNL     1      -1.274   3.646   0.066  0.00  0.00    +0.101 C 
ATOM      5  C   UNL     1       0.044   4.256  -0.315  0.00  0.00    +0.069 C 
ATOM      6  C   UNL     1       1.189   3.522  -0.310  0.00  0.00    +0.080 C 
ATOM      7  N   UNL     1       1.164   2.190   0.039  0.00  0.00    -0.312 N 
ATOM      8  H   UNL     1       2.097   1.680   0.321  0.00  0.00    +0.152 HD
ENDROOT
BRANCH   4   9
ATOM      9  C   UNL     1      -1.650   4.102   1.452  0.00  0.00    +0.003 A 
ATOM     10  C   UNL     1      -2.807   4.828   1.816  0.00  0.00    +0.045 A 
ATOM     11  C   UNL     1      -2.743   5.022   3.146  0.00  0.00    +0.195 A 
ATOM     12  O   UNL     1      -1.615   4.455   3.604  0.00  0.00    -0.471 OA
ATOM     13  C   UNL     1      -0.951   3.891   2.582  0.00  0.00    +0.199 A 
ENDBRANCH   4   9
BRANCH   3  14
ATOM     14  C   UNL     1      -2.395   1.394   0.018  0.00  0.00    +0.247 C 
ATOM     15  O   UNL     1      -2.349   0.177  -0.001  0.00  0.00    -0.270 OA
ATOM     16  N   UNL     1      -3.586   2.024   0.020  0.00  0.00    -0.279 N 
ATOM     17  H   UNL     1      -3.629   3.119   0.111  0.00  0.00    +0.155 HD
BRANCH  16  18
ATOM     18  C   UNL     1      -4.770   1.284  -0.093  0.00  0.00    +0.076 A 
ATOM     19  C   UNL     1      -4.861   0.025   0.482  0.00  0.00    +0.027 A 
ATOM     20  C   UNL     1      -6.030  -0.704   0.369  0.00  0.00    +0.002 A 
ATOM     21  C   UNL     1      -7.111  -0.180  -0.316  0.00  0.00    +0.004 A 
ATOM     22  C   UNL     1      -7.028   1.074  -0.892  0.00  0.00    +0.047 A 
ATOM     23  C   UNL     1      -5.861   1.812  -0.779  0.00  0.00    +0.141 A 
BRANCH  23  24
ATOM     24  O   UNL     1      -5.779   3.049  -1.340  0.00  0.00    -0.493 OA
ATOM     25  C   UNL     1      -6.937   3.526  -2.028  0.00  0.00    +0.277 C 
ENDBRANCH  23  24
ENDBRANCH  16  18
ENDBRANCH   3  14
BRANCH   5  26
ATOM     26  C   UNL     1       0.097   5.637  -0.691  0.00  0.00    +0.098 C 
ATOM     27  N   UNL     1       0.139   6.732  -0.988  0.00  0.00    -0.191 NA
ENDBRANCH   5  26
BRANCH   6  28
ATOM     28  S   UNL     1       2.717   4.280  -0.753  0.00  0.00    -0.100 S 
BRANCH  28  29
ATOM     29  C   UNL     1       3.834   2.869  -0.569  0.00  0.00    +0.171 C 
BRANCH  29  30
ATOM     30  C   UNL     1       5.240   3.293  -0.906  0.00  0.00    +0.221 C 
ATOM     31  O   UNL     1       5.465   4.438  -1.239  0.00  0.00    -0.275 OA
ATOM     32  N   UNL     1       6.248   2.401  -0.839  0.00  0.00    -0.329 N 
ATOM     33  H   UNL     1       7.274   2.711  -1.085  0.00  0.00    +0.145 HD
ATOM     34  H   UNL     1       6.044   1.363  -0.537  0.00  0.00    +0.145 HD
ENDBRANCH  29  30
ENDBRANCH  28  29
ENDBRANCH   6  28
TORSDOF 8
