REMARK  Name = ZINC40866391
REMARK  10 active torsions:
REMARK  status: ('A' for Active; 'I' for Inactive)
REMARK    1  A    between atoms: C_1  and  C_2
REMARK    2  A    between atoms: C_2  and  O_3
REMARK    3  A    between atoms: O_3  and  C_4
REMARK    4  A    between atoms: C_4  and  C_6
REMARK    5  A    between atoms: C_7  and  C_32
REMARK    6  A    between atoms: C_11  and  C_25
REMARK    7  A    between atoms: C_14  and  C_16
REMARK    8  A    between atoms: C_19  and  N_22
REMARK    9  A    between atoms: N_22  and  C_23
REMARK   10  A    between atoms: N_22  and  C_24
REMARK                            x       y       z     vdW  Elec       q    Type
REMARK                         _______ _______ _______ _____ _____    ______ ____
ROOT
ATOM      1  C   UNL     1      -2.799  -2.429   0.223  0.00  0.00    +0.082 C 
ATOM      2  C   UNL     1      -2.919  -3.729  -0.087  0.00  0.00    +0.020 C 
ATOM      3  N   UNL     1      -4.139  -4.318  -0.310  0.00  0.00    -0.287 N 
ATOM      4  C   UNL     1      -5.235  -3.480  -0.464  0.00  0.00    +0.219 A 
ATOM      5  N   UNL     1      -6.438  -3.743  -0.893  0.00  0.00    -0.193 NA
ATOM      6  C   UNL     1      -7.175  -2.620  -0.881  0.00  0.00    +0.183 A 
ATOM      7  N   UNL     1      -6.433  -1.626  -0.435  0.00  0.00    -0.147 NA
ATOM      8  N   UNL     1      -5.175  -2.159  -0.156  0.00  0.00    -0.220 N 
ATOM      9  C   UNL     1      -3.979  -1.507   0.373  0.00  0.00    +0.179 C 
ATOM     10  C   UNL     1      -1.674  -4.570  -0.196  0.00  0.00    +0.061 C 
ATOM     11  H   UNL     1      -4.231  -5.282  -0.357  0.00  0.00    +0.155 HD
ENDROOT
BRANCH   6  12
ATOM     12  C   UNL     1      -8.595  -2.515  -1.300  0.00  0.00    +0.021 A 
ATOM     13  C   UNL     1      -9.251  -1.287  -1.246  0.00  0.00    +0.013 A 
ATOM     14  C   UNL     1     -10.570  -1.194  -1.638  0.00  0.00    +0.021 A 
ATOM     15  C   UNL     1     -11.243  -2.319  -2.083  0.00  0.00    +0.041 A 
ATOM     16  C   UNL     1     -10.596  -3.542  -2.138  0.00  0.00    +0.021 A 
ATOM     17  C   UNL     1      -9.274  -3.643  -1.754  0.00  0.00    +0.013 A 
ATOM     18 CL   UNL     1     -12.904  -2.197  -2.573  0.00  0.00    -0.084 Cl
ENDBRANCH   6  12
BRANCH   9  19
ATOM     19  C   UNL     1      -4.181  -1.183   1.831  0.00  0.00    -0.018 A 
ATOM     20  C   UNL     1      -4.427  -2.200   2.736  0.00  0.00    +0.008 A 
ATOM     21  C   UNL     1      -4.613  -1.908   4.073  0.00  0.00    +0.023 A 
ATOM     22  C   UNL     1      -4.553  -0.590   4.508  0.00  0.00    +0.029 A 
ATOM     23  C   UNL     1      -4.306   0.429   3.597  0.00  0.00    +0.023 A 
ATOM     24  C   UNL     1      -4.115   0.129   2.263  0.00  0.00    +0.008 A 
BRANCH  22  25
ATOM     25  N   UNL     1      -4.741  -0.290   5.860  0.00  0.00    -0.336 N 
ATOM     26  C   UNL     1      -5.002  -1.366   6.819  0.00  0.00    +0.129 C 
ATOM     27  C   UNL     1      -4.677   1.100   6.317  0.00  0.00    +0.129 C 
ENDBRANCH  22  25
ENDBRANCH   9  19
BRANCH   1  28
ATOM     28  C   UNL     1      -1.503  -1.902   0.423  0.00  0.00    +0.339 C 
ATOM     29  O   UNL     1      -0.999  -1.188  -0.423  0.00  0.00    -0.245 OA
BRANCH  28  30
ATOM     30  O   UNL     1      -0.825  -2.191   1.554  0.00  0.00    -0.462 OA
BRANCH  30  32
ATOM     31  C   UNL     1       1.088  -2.059   3.025  0.00  0.00    +0.048 C 
ATOM     32  C   UNL     1       0.480  -1.624   1.690  0.00  0.00    +0.229 C 
ENDBRANCH  30  32
ENDBRANCH  28  30
ENDBRANCH   1  28
TORSDOF 6
