REMARK  Name = ZINC25157670
REMARK  6 active torsions:
REMARK  status: ('A' for Active; 'I' for Inactive)
REMARK    1  A    between atoms: C_1  and  O_2
REMARK    2  A    between atoms: O_2  and  C_3
REMARK    3  A    between atoms: C_3  and  C_5
REMARK    4  A    between atoms: C_5  and  C_7
REMARK    5  A    between atoms: C_5  and  N_14
REMARK    6  A    between atoms: C_20  and  C_22
REMARK                            x       y       z     vdW  Elec       q    Type
REMARK                         _______ _______ _______ _____ _____    ______ ____
ROOT
ATOM      1  N   UNL     1      -2.533   1.493   0.542  0.00  0.00    +0.393 N 
ATOM      2  C   UNL     1      -3.891   1.954   0.221  0.00  0.00    -0.058 C 
ATOM      3  C   UNL     1      -4.773   0.745  -0.108  0.00  0.00    +0.089 C 
ATOM      4  N   UNL     1      -4.688  -0.212   1.006  0.00  0.00    -0.299 N 
ATOM      5  C   UNL     1      -3.354  -0.617   1.476  0.00  0.00    +0.089 C 
ATOM      6  C   UNL     1      -2.528   0.646   1.742  0.00  0.00    -0.058 C 
ATOM      7  C   UNL     1      -5.803  -0.705   1.581  0.00  0.00    +0.282 C 
ATOM      8  O   UNL     1      -6.894  -0.266   1.268  0.00  0.00    -0.267 OA
ATOM      9  H   UNL     1      -2.180   0.881  -0.301  0.00  0.00    -0.080 HD
ENDROOT
BRANCH   7  10
ATOM     10  C   UNL     1      -5.701  -1.769   2.583  0.00  0.00    +0.191 A 
ATOM     11  C   UNL     1      -6.726  -2.257   3.342  0.00  0.00    +0.056 A 
ATOM     12  C   UNL     1      -6.183  -3.261   4.157  0.00  0.00    +0.063 A 
ATOM     13  C   UNL     1      -4.863  -3.337   3.870  0.00  0.00    +0.195 A 
ATOM     14  O   UNL     1      -4.577  -2.436   2.920  0.00  0.00    -0.439 OA
ATOM     15 CL   UNL     1      -3.727  -4.422   4.608  0.00  0.00    -0.043 Cl
ENDBRANCH   7  10
BRANCH   1  16
ATOM     16  C   UNL     1      -1.614   2.629   0.695  0.00  0.00    +0.073 C 
BRANCH  16  17
ATOM     17  C   UNL     1      -1.647   3.473  -0.553  0.00  0.00    -0.050 A 
ATOM     18  C   UNL     1      -1.702   2.869  -1.795  0.00  0.00    +0.004 A 
ATOM     19  C   UNL     1      -1.737   3.642  -2.940  0.00  0.00    +0.020 A 
ATOM     20  C   UNL     1      -1.706   5.022  -2.843  0.00  0.00    +0.041 A 
ATOM     21  C   UNL     1      -1.646   5.627  -1.600  0.00  0.00    +0.020 A 
ATOM     22  C   UNL     1      -1.616   4.852  -0.456  0.00  0.00    +0.004 A 
ATOM     23 CL   UNL     1      -1.743   5.995  -4.280  0.00  0.00    -0.084 Cl
ENDBRANCH  16  17
BRANCH  16  24
ATOM     24  C   UNL     1      -0.215   2.116   0.918  0.00  0.00    +0.297 C 
ATOM     25  O   UNL     1      -0.005   0.926   0.947  0.00  0.00    -0.252 OA
BRANCH  24  27
ATOM     26  C   UNL     1       2.121   2.416   1.284  0.00  0.00    +0.280 C 
ATOM     27  O   UNL     1       0.799   2.981   1.079  0.00  0.00    -0.469 OA
ENDBRANCH  24  27
ENDBRANCH  16  24
ENDBRANCH   1  16
TORSDOF 5
