REMARK  Name = ZINC09905227
REMARK  4 active torsions:
REMARK  status: ('A' for Active; 'I' for Inactive)
REMARK    1  A    between atoms: C_3  and  N_25
REMARK    2  A    between atoms: C_4  and  N_10
REMARK    3  A    between atoms: C_6  and  C_7
REMARK    4  A    between atoms: C_11  and  C_13
REMARK                            x       y       z     vdW  Elec       q    Type
REMARK                         _______ _______ _______ _____ _____    ______ ____
ROOT
ATOM      1  N   UNL     1       2.538   3.820  -0.006  0.00  0.00    -0.280 N 
ATOM      2  C   UNL     1       2.674   5.064  -0.506  0.00  0.00    +0.248 C 
ATOM      3  O   UNL     1       1.693   5.682  -0.874  0.00  0.00    -0.270 OA
ATOM      4  H   UNL     1       3.312   3.349   0.340  0.00  0.00    +0.155 HD
ENDROOT
BRANCH   2   5
ATOM      5  C   UNL     1       4.011   5.676  -0.606  0.00  0.00    +0.039 A 
ATOM      6  C   UNL     1       5.138   4.968  -0.178  0.00  0.00    +0.014 A 
ATOM      7  C   UNL     1       6.390   5.535  -0.275  0.00  0.00    +0.017 A 
ATOM      8  C   UNL     1       6.529   6.818  -0.790  0.00  0.00    +0.029 A 
ATOM      9  C   UNL     1       5.408   7.534  -1.216  0.00  0.00    +0.048 A 
ATOM     10  C   UNL     1       4.152   6.968  -1.125  0.00  0.00    +0.037 A 
ATOM     11  N   UNL     1       5.572   8.827  -1.736  0.00  0.00    -0.285 N 
ATOM     12  C   UNL     1       6.468   9.058  -2.703  0.00  0.00    +0.218 C 
ATOM     13  O   UNL     1       6.736  10.201  -3.006  0.00  0.00    -0.275 OA
ATOM     14  C   UNL     1       7.147   7.929  -3.420  0.00  0.00    +0.107 C 
ATOM     15  C   UNL     1       8.455   7.547  -2.706  0.00  0.00    +0.083 C 
ATOM     16  S   UNL     1       8.123   7.565  -0.912  0.00  0.00    -0.123 S 
ATOM     17  H   UNL     1       5.033   9.557  -1.393  0.00  0.00    +0.155 HD
ENDBRANCH   2   5
BRANCH   1  21
ATOM     18  C   UNL     1      -1.215   1.970   0.050  0.00  0.00    +0.015 A 
ATOM     19  C   UNL     1      -0.071   1.203   0.028  0.00  0.00    +0.026 A 
ATOM     20  C   UNL     1       1.178   1.812   0.008  0.00  0.00    +0.051 A 
ATOM     21  C   UNL     1       1.278   3.207   0.014  0.00  0.00    +0.056 A 
ATOM     22  C   UNL     1       0.133   3.980   0.042  0.00  0.00    +0.038 A 
ATOM     23  C   UNL     1      -1.122   3.364   0.062  0.00  0.00    +0.038 A 
BRANCH  23  24
ATOM     24  C   UNL     1      -2.347   4.186   0.091  0.00  0.00    +0.242 C 
ATOM     25  O   UNL     1      -2.266   5.399   0.097  0.00  0.00    -0.270 OA
ATOM     26  N   UNL     1      -3.557   3.591   0.111  0.00  0.00    -0.325 N 
ATOM     27  H   UNL     1      -3.622   2.623   0.106  0.00  0.00    +0.145 HD
ATOM     28  H   UNL     1      -4.362   4.131   0.130  0.00  0.00    +0.145 HD
ENDBRANCH  23  24
BRANCH  20  29
ATOM     29  N   UNL     1       2.332   1.033  -0.019  0.00  0.00    -0.328 N 
ATOM     30  C   UNL     1       1.998  -0.413   0.028  0.00  0.00    +0.105 C 
ATOM     31  C   UNL     1       3.276  -1.090  -0.529  0.00  0.00    +0.020 C 
ATOM     32  C   UNL     1       3.726  -0.116  -1.642  0.00  0.00    +0.020 C 
ATOM     33  C   UNL     1       3.078   1.234  -1.281  0.00  0.00    +0.105 C 
ENDBRANCH  20  29
ENDBRANCH   1  21
TORSDOF 4
