REMARK  Name = ZINC19797064
REMARK  5 active torsions:
REMARK  status: ('A' for Active; 'I' for Inactive)
REMARK    1  A    between atoms: C_1  and  C_2
REMARK    2  A    between atoms: C_13  and  S_18
REMARK    3  A    between atoms: N_14  and  N_17
REMARK    4  A    between atoms: S_18  and  C_19
REMARK    5  A    between atoms: C_19  and  C_20
REMARK                            x       y       z     vdW  Elec       q    Type
REMARK                         _______ _______ _______ _____ _____    ______ ____
ROOT
ATOM      1  C   UNL     1      -5.931  -3.242   0.993  0.00  0.00    +0.012 C 
ATOM      2  C   UNL     1      -6.634  -2.264   0.049  0.00  0.00    +0.018 C 
ATOM      3  C   UNL     1      -8.111  -2.154   0.429  0.00  0.00    +0.008 C 
ATOM      4  C   UNL     1      -8.775  -1.039  -0.385  0.00  0.00    +0.006 C 
ATOM      5  C   UNL     1      -8.241   0.314   0.107  0.00  0.00    +0.043 C 
ATOM      6  C   UNL     1      -6.747   0.229   0.191  0.00  0.00    -0.004 A 
ATOM      7  C   UNL     1      -5.990  -0.886   0.170  0.00  0.00    -0.020 A 
ATOM      8  C   UNL     1      -4.540  -0.706   0.266  0.00  0.00    +0.077 A 
ATOM      9  C   UNL     1      -4.092   0.622   0.370  0.00  0.00    +0.117 A 
ATOM     10  S   UNL     1      -5.594   1.567   0.338  0.00  0.00    -0.073 S 
ATOM     11  N   UNL     1      -2.804   0.928   0.468  0.00  0.00    -0.215 NA
ATOM     12  C   UNL     1      -1.884  -0.016   0.462  0.00  0.00    +0.191 A 
ATOM     13  N   UNL     1      -2.231  -1.332   0.366  0.00  0.00    -0.209 N 
ATOM     14  C   UNL     1      -3.520  -1.709   0.268  0.00  0.00    +0.280 A 
ATOM     15  O   UNL     1      -3.813  -2.889   0.183  0.00  0.00    -0.265 OA
ENDROOT
BRANCH  13  16
ATOM     16  N   UNL     1      -1.253  -2.285   0.369  0.00  0.00    -0.293 N 
ATOM     17  H   UNL     1      -1.521  -3.349   0.292  0.00  0.00    +0.163 HD
ATOM     18  H   UNL     1      -0.197  -1.988   0.449  0.00  0.00    +0.163 HD
ENDBRANCH  13  16
BRANCH  12  19
ATOM     19  S   UNL     1      -0.183   0.428   0.588  0.00  0.00    -0.071 S 
BRANCH  19  20
ATOM     20  C   UNL     1      -0.334   2.229   0.683  0.00  0.00    +0.195 C 
BRANCH  20  21
ATOM     21  C   UNL     1       1.006   2.828   0.796  0.00  0.00    +0.074 C 
ATOM     22  N   UNL     1       2.040   3.291   0.883  0.00  0.00    -0.196 NA
ENDBRANCH  20  21
ENDBRANCH  19  20
ENDBRANCH  12  19
TORSDOF 4
