REMARK  Name = ZINC16689807
REMARK  7 active torsions:
REMARK  status: ('A' for Active; 'I' for Inactive)
REMARK    1  A    between atoms: C_1  and  C_2
REMARK    2  A    between atoms: C_5  and  C_8
REMARK    3  A    between atoms: C_8  and  C_9
REMARK    4  A    between atoms: C_17  and  S_20
REMARK    5  A    between atoms: S_20  and  C_21
REMARK    6  A    between atoms: C_21  and  C_22
REMARK    7  A    between atoms: C_22  and  C_24
REMARK                            x       y       z     vdW  Elec       q    Type
REMARK                         _______ _______ _______ _____ _____    ______ ____
ROOT
ATOM      1  C   UNL     1       2.433   0.117  -0.021  0.00  0.00    +0.130 A 
ATOM      2  C   UNL     1       1.184  -0.655  -0.013  0.00  0.00    +0.275 A 
ATOM      3  O   UNL     1       1.214  -1.872  -0.019  0.00  0.00    -0.266 OA
ATOM      4  N   UNL     1       0.002  -0.004   0.002  0.00  0.00    -0.289 N 
ATOM      5  H   UNL     1      -0.830  -0.503   0.007  0.00  0.00    +0.172 HD
ATOM      6  C   UNL     1      -0.017   1.379   0.010  0.00  0.00    +0.254 A 
ATOM      7  N   UNL     1      -1.005   2.241   0.029  0.00  0.00    -0.108 NA
ATOM      8  N   UNL     1      -0.457   3.530   0.026  0.00  0.00    -0.119 NA
ATOM      9  C   UNL     1       0.848   3.420   0.013  0.00  0.00    +0.214 A 
ATOM     10  N   UNL     1       1.161   2.086   0.002  0.00  0.00    -0.172 N 
ATOM     11  N   UNL     1       2.390   1.416  -0.013  0.00  0.00    -0.161 NA
ENDROOT
BRANCH   1  12
ATOM     12  C   UNL     1       3.760  -0.595  -0.037  0.00  0.00    +0.098 C 
BRANCH  12  17
ATOM     13  C   UNL     1       8.034   3.295  -0.057  0.00  0.00    +0.044 C 
ATOM     14  C   UNL     1       6.919   2.281  -0.052  0.00  0.00    -0.050 A 
ATOM     15  C   UNL     1       6.419   1.809   1.148  0.00  0.00    +0.003 A 
ATOM     16  C   UNL     1       5.397   0.878   1.152  0.00  0.00    +0.004 A 
ATOM     17  C   UNL     1       4.875   0.420  -0.043  0.00  0.00    -0.041 A 
ATOM     18  C   UNL     1       5.378   0.888  -1.242  0.00  0.00    +0.004 A 
ATOM     19  C   UNL     1       6.397   1.821  -1.247  0.00  0.00    +0.003 A 
ENDBRANCH  12  17
ENDBRANCH   1  12
BRANCH   9  20
ATOM     20  S   UNL     1       2.000   4.753   0.010  0.00  0.00    -0.076 S 
BRANCH  20  21
ATOM     21  C   UNL     1       0.956   6.236   0.028  0.00  0.00    +0.157 C 
BRANCH  21  22
ATOM     22  C   UNL     1       1.828   7.465   0.027  0.00  0.00    +0.175 C 
ATOM     23  O   UNL     1       3.035   7.352   0.015  0.00  0.00    -0.291 OA
BRANCH  22  24
ATOM     24  C   UNL     1       1.215   8.801   0.040  0.00  0.00    +0.037 A 
ATOM     25  C   UNL     1      -0.178   8.936   0.054  0.00  0.00    +0.014 A 
ATOM     26  C   UNL     1      -0.745  10.191   0.067  0.00  0.00    +0.021 A 
ATOM     27  C   UNL     1       0.059  11.320   0.067  0.00  0.00    +0.042 A 
ATOM     28  C   UNL     1       1.438  11.196   0.053  0.00  0.00    +0.040 A 
ATOM     29  C   UNL     1       2.022   9.945   0.045  0.00  0.00    +0.053 A 
ATOM     30 CL   UNL     1       3.751   9.791   0.035  0.00  0.00    -0.083 Cl
ATOM     31 CL   UNL     1      -0.666  12.897   0.082  0.00  0.00    -0.083 Cl
ENDBRANCH  22  24
ENDBRANCH  21  22
ENDBRANCH  20  21
ENDBRANCH   9  20
TORSDOF 6
