REMARK  Name = ZINC16689782
REMARK  7 active torsions:
REMARK  status: ('A' for Active; 'I' for Inactive)
REMARK    1  A    between atoms: C_1  and  C_2
REMARK    2  A    between atoms: N_5  and  C_11
REMARK    3  A    between atoms: C_7  and  C_10
REMARK    4  A    between atoms: C_11  and  C_13
REMARK    5  A    between atoms: C_11  and  C_20
REMARK    6  A    between atoms: C_21  and  O_33
REMARK    7  A    between atoms: C_26  and  C_28
REMARK                            x       y       z     vdW  Elec       q    Type
REMARK                         _______ _______ _______ _____ _____    ______ ____
ROOT
ATOM      1  C   UNL     1      -0.079   6.003   0.034  0.00  0.00    +0.129 C 
ENDROOT
BRANCH   1   5
ATOM      2  C   UNL     1      -2.385   9.935  -1.824  0.00  0.00    +0.039 C 
ATOM      3  C   UNL     1      -2.375   8.407  -1.738  0.00  0.00    +0.130 C 
ATOM      4  C   UNL     1      -1.205   7.952  -0.861  0.00  0.00    +0.116 C 
ATOM      5  N   UNL     1      -1.155   6.483  -0.844  0.00  0.00    -0.286 NA
ATOM      6  C   UNL     1      -1.001   5.951  -2.205  0.00  0.00    +0.116 C 
ATOM      7  C   UNL     1      -2.172   6.426  -3.069  0.00  0.00    +0.130 C 
ATOM      8  O   UNL     1      -2.224   7.855  -3.049  0.00  0.00    -0.371 OA
ATOM      9  C   UNL     1      -3.480   5.859  -2.514  0.00  0.00    +0.039 C 
ENDBRANCH   1   5
BRANCH   1  10
ATOM     10  C   UNL     1      -0.320   6.495   1.438  0.00  0.00    +0.076 A 
ATOM     11  C   UNL     1       0.546   7.037   2.302  0.00  0.00    +0.228 A 
ATOM     12  N   UNL     1       0.136   7.430   3.553  0.00  0.00    -0.173 N 
ATOM     13  C   UNL     1      -1.183   7.241   3.865  0.00  0.00    +0.200 A 
ATOM     14  S   UNL     1      -1.837   6.514   2.381  0.00  0.00    -0.047 S 
ATOM     15  N   UNL     1      -1.413   7.661   5.077  0.00  0.00    -0.197 NA
ATOM     16  C   UNL     1      -0.277   8.136   5.604  0.00  0.00    +0.218 A 
ATOM     17  N   UNL     1       0.690   8.017   4.720  0.00  0.00    -0.138 NA
BRANCH  16  18
ATOM     18  C   UNL     1      -0.133   8.703   6.962  0.00  0.00    +0.173 A 
ATOM     19  C   UNL     1      -1.124   8.829   7.883  0.00  0.00    +0.053 A 
ATOM     20  C   UNL     1      -0.544   9.415   9.026  0.00  0.00    +0.042 A 
ATOM     21  C   UNL     1       0.759   9.614   8.749  0.00  0.00    +0.196 A 
ATOM     22  O   UNL     1       1.006   9.177   7.503  0.00  0.00    -0.460 OA
ENDBRANCH  16  18
BRANCH  11  23
ATOM     23  O   UNL     1       1.847   7.201   1.938  0.00  0.00    -0.492 OA
ATOM     24  H   UNL     1       2.563   7.646   2.644  0.00  0.00    +0.294 HD
ENDBRANCH  11  23
ENDBRANCH   1  10
BRANCH   1  25
ATOM     25  C   UNL     1      -0.059   4.497   0.026  0.00  0.00    -0.025 A 
ATOM     26  C   UNL     1       1.148   3.822   0.012  0.00  0.00    +0.007 A 
ATOM     27  C   UNL     1       1.167   2.440   0.004  0.00  0.00    +0.020 A 
ATOM     28  C   UNL     1      -0.021   1.732   0.012  0.00  0.00    +0.041 A 
ATOM     29  C   UNL     1      -1.229   2.407   0.021  0.00  0.00    +0.020 A 
ATOM     30  C   UNL     1      -1.247   3.789   0.034  0.00  0.00    +0.007 A 
ATOM     31 CL   UNL     1       0.002  -0.004   0.002  0.00  0.00    -0.084 Cl
ENDBRANCH   1  25
TORSDOF 5
