REMARK  Name = ZINC05714799
REMARK  5 active torsions:
REMARK  status: ('A' for Active; 'I' for Inactive)
REMARK    1  A    between atoms: C_3  and  S_17
REMARK    2  A    between atoms: C_6  and  N_7
REMARK    3  A    between atoms: N_8  and  C_9
REMARK    4  A    between atoms: C_14  and  O_15
REMARK    5  A    between atoms: S_17  and  N_20
REMARK                            x       y       z     vdW  Elec       q    Type
REMARK                         _______ _______ _______ _____ _____    ______ ____
ROOT
ATOM      1  C   UNL     1      -0.017   1.393   0.010  0.00  0.00    +0.031 A 
ATOM      2  C   UNL     1       1.170   2.096   0.002  0.00  0.00    +0.030 A 
ATOM      3  C   UNL     1       2.378   1.420  -0.013  0.00  0.00    +0.106 A 
ATOM      4  C   UNL     1       2.404   0.036  -0.022  0.00  0.00    +0.030 A 
ATOM      5  C   UNL     1       1.225  -0.679  -0.014  0.00  0.00    +0.031 A 
ATOM      6  C   UNL     1       0.002  -0.004   0.002  0.00  0.00    +0.086 A 
ENDROOT
BRANCH   3   7
ATOM      7  S   UNL     1       3.889   2.326  -0.024  0.00  0.00    +0.061 S 
ATOM      8  O   UNL     1       4.872   1.470  -0.589  0.00  0.00    -0.153 OA
ATOM      9  O   UNL     1       3.592   3.606  -0.565  0.00  0.00    -0.153 OA
BRANCH   7  10
ATOM     10  N   UNL     1       4.325   2.569   1.555  0.00  0.00    -0.177 NA
ATOM     11  C   UNL     1       3.931   3.716   2.386  0.00  0.00    +0.109 C 
ATOM     12  C   UNL     1       4.589   3.529   3.769  0.00  0.00    +0.018 C 
ATOM     13  C   UNL     1       5.776   2.577   3.462  0.00  0.00    +0.018 C 
ATOM     14  C   UNL     1       5.166   1.668   2.363  0.00  0.00    +0.109 C 
ENDBRANCH   7  10
ENDBRANCH   3   7
BRANCH   6  15
ATOM     15  N   UNL     1      -1.171  -0.707   0.010  0.00  0.00    -0.149 NA
ATOM     16  N   UNL     1      -1.149  -1.997   0.003  0.00  0.00    -0.146 NA
BRANCH  16  17
ATOM     17  C   UNL     1      -2.320  -2.698   0.011  0.00  0.00    +0.128 A 
ATOM     18  C   UNL     1      -3.544  -2.023   0.021  0.00  0.00    +0.048 A 
ATOM     19  C   UNL     1      -4.723  -2.739   0.029  0.00  0.00    +0.020 A 
ATOM     20  C   UNL     1      -4.699  -4.125   0.027  0.00  0.00    +0.019 A 
ATOM     21  C   UNL     1      -3.496  -4.804   0.017  0.00  0.00    +0.049 A 
ATOM     22  C   UNL     1      -2.302  -4.101   0.003  0.00  0.00    +0.144 A 
ATOM     23 BR   UNL     1      -6.379  -1.825   0.043  0.00  0.00    -0.050 Br
BRANCH  22  24
ATOM     24  O   UNL     1      -1.119  -4.768  -0.012  0.00  0.00    -0.505 OA
ATOM     25  H   UNL     1      -0.768  -4.965   0.866  0.00  0.00    +0.292 HD
ENDBRANCH  22  24
ENDBRANCH  16  17
ENDBRANCH   6  15
TORSDOF 5
