REMARK  Name = ZINC64363664
REMARK  5 active torsions:
REMARK  status: ('A' for Active; 'I' for Inactive)
REMARK    1  A    between atoms: C_1  and  C_2
REMARK    2  A    between atoms: C_3  and  C_8
REMARK    3  A    between atoms: C_8  and  C_9
REMARK    4  A    between atoms: C_9  and  C_10
REMARK    5  A    between atoms: C_17  and  C_18
REMARK                            x       y       z     vdW  Elec       q    Type
REMARK                         _______ _______ _______ _____ _____    ______ ____
ROOT
ATOM      1  C   UNL     1       1.473   0.442  -2.919  0.00  0.00    +0.101 C 
ENDROOT
BRANCH   1   2
ATOM      2  C   UNL     1       1.445   0.696  -4.404  0.00  0.00    +0.216 C 
ATOM      3  O   UNL     1       0.385   0.840  -4.975  0.00  0.00    -0.276 OA
ATOM      4  N   UNL     1       2.599   0.762  -5.098  0.00  0.00    -0.299 N 
ATOM      5  C   UNL     1       3.893   0.694  -4.407  0.00  0.00    +0.108 C 
ATOM      6  C   UNL     1       4.736   1.905  -4.816  0.00  0.00    +0.019 C 
ATOM      7  C   UNL     1       4.840   1.957  -6.342  0.00  0.00    +0.003 C 
ATOM      8  C   UNL     1       3.443   2.114  -6.946  0.00  0.00    +0.022 C 
ATOM      9  C   UNL     1       2.585   0.899  -6.561  0.00  0.00    +0.073 C 
ATOM     10  C   UNL     1       1.149   1.108  -7.043  0.00  0.00    +0.028 C 
ENDBRANCH   1   2
BRANCH   1  11
ATOM     11  C   UNL     1       0.041   0.414  -2.379  0.00  0.00    +0.051 C 
BRANCH  11  14
ATOM     12  C   UNL     1       0.190   2.632  -0.112  0.00  0.00    +0.069 C 
ATOM     13  C   UNL     1       0.134   1.142   0.110  0.00  0.00    +0.085 A 
ATOM     14  C   UNL     1       0.069   0.161  -0.894  0.00  0.00    +0.034 A 
ATOM     15  C   UNL     1       0.035  -1.048  -0.296  0.00  0.00    +0.230 A 
ATOM     16  O   UNL     1       0.077  -0.855   1.031  0.00  0.00    -0.343 OA
ATOM     17  N   UNL     1       0.144   0.540   1.265  0.00  0.00    -0.082 NA
ATOM     18 CL   UNL     1      -0.048  -2.584  -1.102  0.00  0.00    -0.040 Cl
ENDBRANCH  11  14
ENDBRANCH   1  11
TORSDOF 3
