REMARK  Name = ZINC21721217
REMARK  5 active torsions:
REMARK  status: ('A' for Active; 'I' for Inactive)
REMARK    1  A    between atoms: C_1  and  C_2
REMARK    2  A    between atoms: C_5  and  N_9
REMARK    3  A    between atoms: C_6  and  O_8
REMARK    4  A    between atoms: C_10  and  C_12
REMARK    5  A    between atoms: C_16  and  N_18
REMARK                            x       y       z     vdW  Elec       q    Type
REMARK                         _______ _______ _______ _____ _____    ______ ____
ROOT
ATOM      1  N   UNL     1      -2.428   1.039   0.020  0.00  0.00    -0.277 N 
ATOM      2  C   UNL     1      -2.414  -0.304  -0.089  0.00  0.00    +0.268 C 
ATOM      3  O   UNL     1      -1.357  -0.903  -0.097  0.00  0.00    -0.268 OA
ATOM      4  H   UNL     1      -3.385   1.575   0.101  0.00  0.00    +0.155 HD
ENDROOT
BRANCH   1   9
ATOM      5  C   UNL     1       2.463   3.923   0.048  0.00  0.00    +0.044 C 
ATOM      6  C   UNL     1       1.163   3.161   0.042  0.00  0.00    -0.047 A 
ATOM      7  C   UNL     1       1.094   1.910   0.628  0.00  0.00    +0.005 A 
ATOM      8  C   UNL     1      -0.095   1.206   0.625  0.00  0.00    +0.027 A 
ATOM      9  C   UNL     1      -1.223   1.752   0.029  0.00  0.00    +0.076 A 
ATOM     10  C   UNL     1      -1.154   3.015  -0.557  0.00  0.00    +0.138 A 
ATOM     11  C   UNL     1       0.042   3.714  -0.549  0.00  0.00    +0.050 A 
BRANCH  10  12
ATOM     12  O   UNL     1      -2.257   3.557  -1.138  0.00  0.00    -0.505 OA
ATOM     13  H   UNL     1      -2.201   4.554  -1.600  0.00  0.00    +0.292 HD
ENDBRANCH  10  12
ENDBRANCH   1   9
BRANCH   2  14
ATOM     14  C   UNL     1      -3.688  -1.051  -0.198  0.00  0.00    +0.142 A 
ATOM     15  C   UNL     1      -3.667  -2.439  -0.316  0.00  0.00    +0.048 A 
ATOM     16  C   UNL     1      -4.869  -3.128  -0.412  0.00  0.00    +0.021 A 
ATOM     17  C   UNL     1      -6.049  -2.405  -0.399  0.00  0.00    +0.048 A 
ATOM     18  C   UNL     1      -5.997  -1.018  -0.283  0.00  0.00    +0.141 A 
ATOM     19  N   UNL     1      -4.841  -0.391  -0.188  0.00  0.00    -0.223 NA
ATOM     20 BR   UNL     1      -2.023  -3.374  -0.336  0.00  0.00    -0.048 Br
BRANCH  18  21
ATOM     21  N   UNL     1      -7.187  -0.282  -0.268  0.00  0.00    -0.272 N 
ATOM     22  C   UNL     1      -8.457  -0.768  -0.362  0.00  0.00    +0.230 A 
ATOM     23  N   UNL     1      -9.267   0.254  -0.304  0.00  0.00    -0.138 NA
ATOM     24  N   UNL     1      -8.592   1.341  -0.189  0.00  0.00    -0.138 NA
ATOM     25  C   UNL     1      -7.315   1.072  -0.162  0.00  0.00    +0.230 A 
ENDBRANCH  18  21
ENDBRANCH   2  14
TORSDOF 4
