REMARK  Name = ZINC65396980
REMARK  3 active torsions:
REMARK  status: ('A' for Active; 'I' for Inactive)
REMARK    1  A    between atoms: C_3  and  C_21
REMARK    2  A    between atoms: C_5  and  C_6
REMARK    3  A    between atoms: C_15  and  N_20
REMARK                            x       y       z     vdW  Elec       q    Type
REMARK                         _______ _______ _______ _____ _____    ______ ____
ROOT
ATOM      1  C   UNL     1      -1.208  -0.902   0.009  0.00  0.00    +0.082 C 
ATOM      2  C   UNL     1      -1.197  -1.803  -1.240  0.00  0.00    +0.108 C 
ATOM      3  C   UNL     1      -2.553  -2.263  -1.639  0.00  0.00    +0.214 C 
ATOM      4  O   UNL     1      -2.706  -2.337  -2.840  0.00  0.00    -0.276 OA
ATOM      5  N   UNL     1      -3.639  -2.612  -0.939  0.00  0.00    -0.310 N 
ATOM      6  C   UNL     1      -3.666  -2.335   0.491  0.00  0.00    +0.156 C 
ATOM      7  C   UNL     1      -2.329  -2.772   1.029  0.00  0.00    +0.047 C 
ATOM      8  N   UNL     1      -2.080  -4.011   1.238  0.00  0.00    -0.261 NA
ATOM      9  C   UNL     1      -0.736  -4.471   1.626  0.00  0.00    +0.229 C 
ATOM     10  S   UNL     1       0.257  -2.971   1.192  0.00  0.00    -0.109 S 
ATOM     11  C   UNL     1      -1.172  -1.823   1.256  0.00  0.00    +0.106 C 
ATOM     12  H   UNL     1      -4.392  -3.041  -1.375  0.00  0.00    +0.149 HD
ENDROOT
BRANCH   1  17
ATOM     13  C   UNL     1      -0.016   1.341   0.009  0.00  0.00    +0.045 A 
ATOM     14  C   UNL     1       1.331   1.769  -0.001  0.00  0.00    +0.047 A 
ATOM     15  C   UNL     1       2.092   0.660  -0.014  0.00  0.00    +0.135 A 
ATOM     16  O   UNL     1       1.282  -0.411  -0.012  0.00  0.00    -0.462 OA
ATOM     17  C   UNL     1       0.002  -0.004   0.002  0.00  0.00    +0.110 A 
BRANCH  15  18
ATOM     18  C   UNL     1       3.599   0.625  -0.029  0.00  0.00    +0.218 C 
ATOM     19  C   UNL     1       4.115   0.314  -1.423  0.00  0.00    +0.030 C 
ATOM     20  C   UNL     1       4.780  -0.833  -1.271  0.00  0.00    +0.133 C 
ATOM     21  N   UNL     1       4.732  -1.249   0.014  0.00  0.00    -0.162 NA
ATOM     22  N   UNL     1       4.102  -0.503   0.773  0.00  0.00    -0.172 NA
ENDBRANCH  15  18
ENDBRANCH   1  17
BRANCH   9  23
ATOM     23  N   UNL     1      -0.320  -5.635   0.832  0.00  0.00    -0.301 NA
ATOM     24  H   UNL     1      -0.945  -6.414   0.979  0.00  0.00    +0.121 HD
ATOM     25  H   UNL     1      -0.258  -5.401  -0.147  0.00  0.00    +0.121 HD
ENDBRANCH   9  23
TORSDOF 3
