REMARK  Name = ZINC37192893
REMARK  6 active torsions:
REMARK  status: ('A' for Active; 'I' for Inactive)
REMARK    1  A    between atoms: C_1  and  C_2
REMARK    2  A    between atoms: C_5  and  S_9
REMARK    3  A    between atoms: C_6  and  N_8
REMARK    4  A    between atoms: S_9  and  C_10
REMARK    5  A    between atoms: C_10  and  C_11
REMARK    6  A    between atoms: C_17  and  C_21
REMARK                            x       y       z     vdW  Elec       q    Type
REMARK                         _______ _______ _______ _____ _____    ______ ____
ROOT
ATOM      1  C   UNL     1       0.058  -4.960  -1.801  0.00  0.00    +0.139 C 
ENDROOT
BRANCH   1   2
ATOM      2  C   UNL     1       0.077  -6.459  -1.958  0.00  0.00    +0.113 A 
ATOM      3  N   UNL     1       0.088  -7.376  -1.038  0.00  0.00    -0.158 NA
ATOM      4  N   UNL     1       0.104  -8.730  -1.358  0.00  0.00    -0.171 N 
ATOM      5  C   UNL     1       0.117  -9.784  -0.489  0.00  0.00    +0.275 A 
ATOM      6  O   UNL     1       0.114  -9.583   0.715  0.00  0.00    -0.266 OA
ATOM      7  C   UNL     1       0.132 -11.089  -0.980  0.00  0.00    +0.095 A 
ATOM      8  C   UNL     1       0.135 -11.308  -2.341  0.00  0.00    +0.046 A 
ATOM      9  N   UNL     1       0.122 -10.259  -3.160  0.00  0.00    -0.227 NA
ATOM     10  C   UNL     1       0.108  -9.037  -2.691  0.00  0.00    +0.199 A 
ATOM     11  S   UNL     1       0.081  -7.431  -3.456  0.00  0.00    -0.032 S 
ATOM     12  C   UNL     1       0.152 -12.711  -2.893  0.00  0.00    +0.066 C 
ENDBRANCH   1   2
BRANCH   1  13
ATOM     13  S   UNL     1       0.062  -4.537  -0.037  0.00  0.00    -0.117 S 
BRANCH  13  18
ATOM     14  C   UNL     1      -0.018   1.503   0.010  0.00  0.00    +0.044 C 
ATOM     15  C   UNL     1       0.002  -0.004   0.002  0.00  0.00    -0.049 A 
ATOM     16  C   UNL     1       0.006  -0.687  -1.200  0.00  0.00    +0.004 A 
ATOM     17  C   UNL     1       0.024  -2.069  -1.215  0.00  0.00    +0.017 A 
ATOM     18  C   UNL     1       0.039  -2.775  -0.021  0.00  0.00    +0.029 A 
ATOM     19  C   UNL     1       0.036  -2.086   1.192  0.00  0.00    +0.038 A 
ATOM     20  C   UNL     1       0.023  -0.700   1.197  0.00  0.00    +0.027 A 
BRANCH  19  21
ATOM     21  N   UNL     1       0.051  -2.792   2.401  0.00  0.00    -0.357 N 
ATOM     22  H   UNL     1       0.063  -3.762   2.395  0.00  0.00    +0.142 HD
ATOM     23  H   UNL     1       0.049  -2.312   3.243  0.00  0.00    +0.142 HD
ENDBRANCH  19  21
ENDBRANCH  13  18
ENDBRANCH   1  13
TORSDOF 4
