REMARK  Name = ZINC64657286
REMARK  5 active torsions:
REMARK  status: ('A' for Active; 'I' for Inactive)
REMARK    1  A    between atoms: C_1  and  C_2
REMARK    2  A    between atoms: C_2  and  N_3
REMARK    3  A    between atoms: C_6  and  C_9
REMARK    4  A    between atoms: C_9  and  N_10
REMARK    5  A    between atoms: C_11  and  C_13
REMARK                            x       y       z     vdW  Elec       q    Type
REMARK                         _______ _______ _______ _____ _____    ______ ____
ROOT
ATOM      1  N   UNL     1       1.855  -3.957   4.856  0.00  0.00    -0.311 N 
ATOM      2  C   UNL     1       2.552  -4.567   5.836  0.00  0.00    +0.244 C 
ATOM      3  O   UNL     1       3.114  -3.904   6.685  0.00  0.00    -0.270 OA
ATOM      4  H   UNL     1       1.407  -4.486   4.178  0.00  0.00    +0.149 HD
ENDROOT
BRANCH   2   5
ATOM      5  C   UNL     1       2.634  -6.045   5.876  0.00  0.00    +0.039 A 
ATOM      6  C   UNL     1       1.988  -6.805   4.888  0.00  0.00    +0.014 A 
ATOM      7  C   UNL     1       2.049  -8.165   4.904  0.00  0.00    +0.016 A 
ATOM      8  C   UNL     1       2.763  -8.821   5.916  0.00  0.00    +0.065 A 
ATOM      9  C   UNL     1       3.422  -8.065   6.922  0.00  0.00    +0.080 A 
ATOM     10  C   UNL     1       3.352  -6.665   6.885  0.00  0.00    +0.041 A 
ATOM     11  N   UNL     1       4.101  -8.708   7.882  0.00  0.00    -0.223 NA
ATOM     12  C   UNL     1       4.162 -10.031   7.899  0.00  0.00    +0.180 A 
ATOM     13  N   UNL     1       3.557 -10.791   6.971  0.00  0.00    -0.301 N 
ATOM     14  H   UNL     1       3.629 -11.757   7.023  0.00  0.00    +0.171 HD
ATOM     15  C   UNL     1       2.850 -10.228   5.967  0.00  0.00    +0.260 A 
ATOM     16  O   UNL     1       2.246 -10.990   5.039  0.00  0.00    -0.267 OA
ATOM     17  S   UNL     1       5.043 -10.800   9.149  0.00  0.00    -0.011 S 
ENDBRANCH   2   5
BRANCH   1  18
ATOM     18  C   UNL     1       1.774  -2.495   4.816  0.00  0.00    +0.108 C 
BRANCH  18  22
ATOM     19  N   UNL     1       0.713  -0.491   1.192  0.00  0.00    +0.380 N 
ATOM     20  C   UNL     1      -0.036  -0.111   2.396  0.00  0.00    -0.079 C 
ATOM     21  C   UNL     1       0.741  -0.544   3.642  0.00  0.00    -0.014 C 
ATOM     22  C   UNL     1       0.930  -2.063   3.615  0.00  0.00    +0.003 C 
ATOM     23  C   UNL     1       1.646  -2.456   2.319  0.00  0.00    -0.014 C 
ATOM     24  C   UNL     1       0.836  -1.952   1.123  0.00  0.00    -0.079 C 
ATOM     25  H   UNL     1       1.632  -0.077   1.226  0.00  0.00    -0.082 HD
BRANCH  19  27
ATOM     26  C   UNL     1      -0.019   1.526   0.010  0.00  0.00    -0.017 C 
ATOM     27  C   UNL     1       0.002  -0.004   0.002  0.00  0.00    -0.082 C 
ENDBRANCH  19  27
ENDBRANCH  18  22
ENDBRANCH   1  18
TORSDOF 4
