REMARK  Name = ZINC16949041
REMARK  7 active torsions:
REMARK  status: ('A' for Active; 'I' for Inactive)
REMARK    1  A    between atoms: C_2  and  C_24
REMARK    2  A    between atoms: C_4  and  N_11
REMARK    3  A    between atoms: C_6  and  C_7
REMARK    4  A    between atoms: N_11  and  N_12
REMARK    5  A    between atoms: C_13  and  C_14
REMARK    6  A    between atoms: C_13  and  C_17
REMARK    7  A    between atoms: C_14  and  N_16
REMARK                            x       y       z     vdW  Elec       q    Type
REMARK                         _______ _______ _______ _____ _____    ______ ____
ROOT
ATOM      1  N   UNL     1       3.631  -0.666   0.180  0.00  0.00    -0.237 N 
ATOM      2  H   UNL     1       4.464  -0.169   0.175  0.00  0.00    +0.174 HD
ENDROOT
BRANCH   1   6
ATOM      3  C   UNL     1       0.007   1.345   0.569  0.00  0.00    +0.024 A 
ATOM      4  C   UNL     1       1.194   2.056   0.563  0.00  0.00    +0.057 A 
ATOM      5  C   UNL     1       2.398   1.392   0.434  0.00  0.00    +0.037 A 
ATOM      6  C   UNL     1       2.417   0.008   0.311  0.00  0.00    +0.049 A 
ATOM      7  C   UNL     1       1.222  -0.703   0.317  0.00  0.00    +0.037 A 
ATOM      8  C   UNL     1       0.022  -0.033   0.446  0.00  0.00    +0.057 A 
BRANCH   8   9
ATOM      9  C   UNL     1      -1.273  -0.803   0.454  0.00  0.00    +0.417 C 
ATOM     10  F   UNL     1      -1.751  -0.925  -0.855  0.00  0.00    -0.166 F 
ATOM     11  F   UNL     1      -1.056  -2.076   0.992  0.00  0.00    -0.166 F 
ATOM     12  F   UNL     1      -2.216  -0.123   1.233  0.00  0.00    -0.166 F 
ENDBRANCH   8   9
BRANCH   4  13
ATOM     13  C   UNL     1       1.172   3.557   0.697  0.00  0.00    +0.417 C 
ATOM     14  F   UNL     1       1.242   3.905   2.050  0.00  0.00    -0.166 F 
ATOM     15  F   UNL     1       2.268   4.101   0.018  0.00  0.00    -0.166 F 
ATOM     16  F   UNL     1      -0.013   4.057   0.146  0.00  0.00    -0.166 F 
ENDBRANCH   4  13
ENDBRANCH   1   6
BRANCH   1  17
ATOM     17  N   UNL     1       3.647  -1.951   0.065  0.00  0.00    -0.175 NA
ATOM     18  C   UNL     1       4.784  -2.579  -0.158  0.00  0.00    +0.171 C 
BRANCH  18  19
ATOM     19  C   UNL     1       4.787  -4.030  -0.398  0.00  0.00    +0.269 C 
ATOM     20  O   UNL     1       5.837  -4.610  -0.604  0.00  0.00    -0.268 OA
ATOM     21  N   UNL     1       3.628  -4.718  -0.390  0.00  0.00    -0.296 N 
ATOM     22  C   UNL     1       2.294  -4.145  -0.162  0.00  0.00    +0.108 C 
ATOM     23  C   UNL     1       1.280  -5.307  -0.218  0.00  0.00    +0.020 C 
ATOM     24  C   UNL     1       2.159  -6.549   0.088  0.00  0.00    +0.020 C 
ATOM     25  C   UNL     1       3.488  -6.168  -0.615  0.00  0.00    +0.108 C 
ENDBRANCH  18  19
BRANCH  18  26
ATOM     26  C   UNL     1       6.047  -1.829  -0.166  0.00  0.00    +0.102 C 
ATOM     27  S   UNL     1       6.993  -1.730   1.257  0.00  0.00    -0.033 S 
BRANCH  26  28
ATOM     28  N   UNL     1       6.461  -1.220  -1.295  0.00  0.00    -0.350 N 
ATOM     29  H   UNL     1       5.963  -1.336  -2.119  0.00  0.00    +0.143 HD
ATOM     30  H   UNL     1       7.257  -0.665  -1.282  0.00  0.00    +0.143 HD
ENDBRANCH  26  28
ENDBRANCH  18  26
ENDBRANCH   1  17
TORSDOF 7
