REMARK  Name = ZINC57934197
REMARK  7 active torsions:
REMARK  status: ('A' for Active; 'I' for Inactive)
REMARK    1  A    between atoms: C_1  and  C_2
REMARK    2  A    between atoms: C_2  and  C_3
REMARK    3  A    between atoms: N_7  and  C_19
REMARK    4  A    between atoms: C_19  and  C_20
REMARK    5  A    between atoms: C_20  and  C_22
REMARK    6  A    between atoms: C_20  and  O_24
REMARK    7  A    between atoms: C_22  and  O_23
REMARK                            x       y       z     vdW  Elec       q    Type
REMARK                         _______ _______ _______ _____ _____    ______ ____
ROOT
ATOM      1  C   UNL     1       0.742  -0.511   1.242  0.00  0.00    +0.157 C 
ATOM      2  C   UNL     1       0.662  -2.015   1.297  0.00  0.00    +0.240 C 
ATOM      3  O   UNL     1      -0.251  -2.546   1.895  0.00  0.00    -0.273 OA
ATOM      4  N   UNL     1       1.591  -2.776   0.691  0.00  0.00    -0.266 N 
ATOM      5  C   UNL     1       2.730  -2.199   0.115  0.00  0.00    +0.061 A 
ATOM      6  C   UNL     1       3.579  -2.955  -0.679  0.00  0.00    +0.074 A 
ATOM      7  C   UNL     1       4.698  -2.369  -1.252  0.00  0.00    +0.164 A 
ATOM      8  C   UNL     1       4.971  -1.024  -1.034  0.00  0.00    +0.164 A 
ATOM      9  C   UNL     1       4.126  -0.266  -0.234  0.00  0.00    +0.074 A 
ATOM     10  C   UNL     1       3.012  -0.852   0.341  0.00  0.00    +0.053 A 
ATOM     11  N   UNL     1       2.154  -0.107   1.171  0.00  0.00    -0.331 N 
ATOM     12  O   UNL     1       6.059  -0.432  -1.599  0.00  0.00    -0.485 OA
ATOM     13  C   UNL     1       7.085  -1.304  -2.087  0.00  0.00    +0.270 C 
ATOM     14  C   UNL     1       6.420  -2.427  -2.893  0.00  0.00    +0.270 C 
ATOM     15  O   UNL     1       5.522  -3.129  -2.027  0.00  0.00    -0.485 OA
ATOM     16  H   UNL     1       2.483   0.649   1.682  0.00  0.00    +0.147 HD
ENDROOT
BRANCH   1  18
ATOM     17  C   UNL     1      -0.019   1.526   0.010  0.00  0.00    +0.006 C 
ATOM     18  C   UNL     1       0.002  -0.004   0.002  0.00  0.00    +0.028 C 
ENDBRANCH   1  18
BRANCH   4  19
ATOM     19  C   UNL     1       1.409  -4.229   0.633  0.00  0.00    +0.147 C 
BRANCH  19  20
ATOM     20  C   UNL     1       0.643  -4.597  -0.639  0.00  0.00    +0.157 C 
BRANCH  20  21
ATOM     21  O   UNL     1      -0.635  -3.957  -0.626  0.00  0.00    -0.388 OA
ATOM     22  H   UNL     1      -1.192  -4.206   0.124  0.00  0.00    +0.210 HD
ENDBRANCH  20  21
BRANCH  20  23
ATOM     23  C   UNL     1       0.453  -6.114  -0.699  0.00  0.00    +0.188 C 
BRANCH  23  24
ATOM     24  O   UNL     1      -0.159  -6.468  -1.941  0.00  0.00    -0.392 OA
ATOM     25  H   UNL     1      -0.310  -7.418  -2.048  0.00  0.00    +0.210 HD
ENDBRANCH  23  24
ENDBRANCH  20  23
ENDBRANCH  19  20
ENDBRANCH   4  19
TORSDOF 6
