REMARK  Name = ZINC00488317
REMARK  7 active torsions:
REMARK  status: ('A' for Active; 'I' for Inactive)
REMARK    1  A    between atoms: C_1  and  C_2
REMARK    2  A    between atoms: C_2  and  C_24
REMARK    3  A    between atoms: C_7  and  C_11
REMARK    4  A    between atoms: N_13  and  C_14
REMARK    5  A    between atoms: C_19  and  C_20
REMARK    6  A    between atoms: C_20  and  O_22
REMARK    7  A    between atoms: O_22  and  C_23
REMARK                            x       y       z     vdW  Elec       q    Type
REMARK                         _______ _______ _______ _____ _____    ______ ____
ROOT
ATOM      1  C   UNL     1      -6.703   0.765   1.482  0.00  0.00    +0.227 C 
ATOM      2  O   UNL     1      -7.323   1.242   2.408  0.00  0.00    -0.275 OA
ATOM      3  N   UNL     1      -5.462   1.209   1.201  0.00  0.00    -0.284 N 
ATOM      4  H   UNL     1      -4.998   0.887   0.412  0.00  0.00    +0.155 HD
ENDROOT
BRANCH   1  10
ATOM      5  C   UNL     1      -7.142  -3.352  -1.128  0.00  0.00    +0.016 C 
ATOM      6  C   UNL     1      -7.598  -2.695   0.176  0.00  0.00    -0.010 C 
ATOM      7  C   UNL     1      -8.907  -1.879  -0.056  0.00  0.00    +0.000 C 
ATOM      8  C   UNL     1      -8.608  -1.025  -1.327  0.00  0.00    +0.006 C 
ATOM      9  C   UNL     1      -7.532   0.012  -0.863  0.00  0.00    +0.021 C 
ATOM     10  C   UNL     1      -7.320  -0.326   0.644  0.00  0.00    +0.069 C 
ATOM     11  C   UNL     1      -8.759  -0.789   1.065  0.00  0.00    +0.025 C 
ATOM     12  C   UNL     1      -6.575  -1.668   0.638  0.00  0.00    -0.056 C 
ATOM     13  C   UNL     1      -5.324  -1.883   0.961  0.00  0.00    +0.009 C 
ATOM     14  C   UNL     1      -7.814  -3.755   1.258  0.00  0.00    +0.016 C 
ENDBRANCH   1  10
BRANCH   3  15
ATOM     15  C   UNL     1      -4.846   2.131   2.043  0.00  0.00    +0.047 A 
ATOM     16  C   UNL     1      -5.247   2.244   3.368  0.00  0.00    +0.024 A 
ATOM     17  C   UNL     1      -4.639   3.163   4.199  0.00  0.00    +0.002 A 
ATOM     18  C   UNL     1      -3.622   3.974   3.723  0.00  0.00    +0.001 A 
ATOM     19  C   UNL     1      -3.206   3.873   2.413  0.00  0.00    +0.017 A 
ATOM     20  C   UNL     1      -3.812   2.947   1.559  0.00  0.00    +0.080 A 
BRANCH  20  21
ATOM     21  C   UNL     1      -3.372   2.833   0.157  0.00  0.00    +0.341 C 
ATOM     22  O   UNL     1      -3.967   2.101  -0.609  0.00  0.00    -0.245 OA
BRANCH  21  23
ATOM     23  O   UNL     1      -2.311   3.542  -0.276  0.00  0.00    -0.464 OA
ATOM     24  C   UNL     1      -1.934   3.380  -1.669  0.00  0.00    +0.280 C 
ENDBRANCH  21  23
ENDBRANCH  20  21
ENDBRANCH   3  15
TORSDOF 4
