REMARK  Name = ZINC08612246
REMARK  7 active torsions:
REMARK  status: ('A' for Active; 'I' for Inactive)
REMARK    1  A    between atoms: C_1  and  C_2
REMARK    2  A    between atoms: C_4  and  C_29
REMARK    3  A    between atoms: C_9  and  C_13
REMARK    4  A    between atoms: N_15  and  C_16
REMARK    5  A    between atoms: C_17  and  C_25
REMARK    6  A    between atoms: C_25  and  O_27
REMARK    7  A    between atoms: O_27  and  C_28
REMARK                            x       y       z     vdW  Elec       q    Type
REMARK                         _______ _______ _______ _____ _____    ______ ____
ROOT
ATOM      1  C   UNL     1      -0.513  -4.699   3.710  0.00  0.00    +0.284 C 
ATOM      2  O   UNL     1      -0.771  -5.884   3.780  0.00  0.00    -0.266 OA
ATOM      3  N   UNL     1      -0.494  -3.946   4.828  0.00  0.00    -0.273 N 
ATOM      4  H   UNL     1      -0.288  -3.000   4.772  0.00  0.00    +0.156 HD
ENDROOT
BRANCH   1  13
ATOM      5  C   UNL     1      -0.018   1.503   0.010  0.00  0.00    +0.044 C 
ATOM      6  C   UNL     1       0.002  -0.004   0.002  0.00  0.00    -0.047 A 
ATOM      7  C   UNL     1       0.006  -0.683  -1.208  0.00  0.00    +0.007 A 
ATOM      8  C   UNL     1       0.020  -2.050  -1.234  0.00  0.00    -0.036 A 
ATOM      9  C   UNL     1       0.031  -2.762  -0.036  0.00  0.00    +0.067 A 
ATOM     10  C   UNL     1       0.032  -4.238  -0.014  0.00  0.00    +0.193 A 
ATOM     11  O   UNL     1       0.249  -4.899  -1.015  0.00  0.00    -0.287 OA
ATOM     12  C   UNL     1      -0.246  -4.865   1.290  0.00  0.00    +0.103 A 
ATOM     13  C   UNL     1      -0.219  -4.081   2.396  0.00  0.00    +0.194 A 
ATOM     14  O   UNL     1       0.062  -2.772   2.351  0.00  0.00    -0.450 OA
ATOM     15  C   UNL     1       0.036  -2.083   1.195  0.00  0.00    +0.140 A 
ATOM     16  C   UNL     1       0.023  -0.691   1.196  0.00  0.00    +0.050 A 
ATOM     17  C   UNL     1       0.022  -2.783  -2.551  0.00  0.00    +0.044 C 
ENDBRANCH   1  13
BRANCH   3  18
ATOM     18  C   UNL     1      -0.769  -4.523   6.055  0.00  0.00    +0.087 A 
ATOM     19  C   UNL     1      -0.800  -3.909   7.299  0.00  0.00    +0.091 A 
ATOM     20  C   UNL     1      -1.118  -4.744   8.444  0.00  0.00    -0.021 A 
ATOM     21  C   UNL     1      -1.345  -6.040   8.136  0.00  0.00    -0.004 A 
ATOM     22  S   UNL     1      -1.147  -6.126   6.381  0.00  0.00    -0.077 S 
ATOM     23  C   UNL     1      -1.692  -7.143   9.088  0.00  0.00    +0.043 C 
ATOM     24  C   UNL     1      -1.382  -6.664  10.514  0.00  0.00    +0.005 C 
ATOM     25  C   UNL     1      -1.980  -5.268  10.709  0.00  0.00    +0.005 C 
ATOM     26  C   UNL     1      -1.200  -4.246   9.879  0.00  0.00    +0.037 C 
BRANCH  19  27
ATOM     27  C   UNL     1      -0.525  -2.478   7.451  0.00  0.00    +0.342 C 
ATOM     28  O   UNL     1      -1.434  -1.673   7.384  0.00  0.00    -0.245 OA
BRANCH  27  29
ATOM     29  O   UNL     1       0.737  -2.054   7.665  0.00  0.00    -0.464 OA
ATOM     30  C   UNL     1       0.933  -0.645   7.804  0.00  0.00    +0.280 C 
ENDBRANCH  27  29
ENDBRANCH  19  27
ENDBRANCH   3  18
TORSDOF 4
