REMARK  Name = ZINC06933983
REMARK  8 active torsions:
REMARK  status: ('A' for Active; 'I' for Inactive)
REMARK    1  A    between atoms: C_1  and  C_2
REMARK    2  A    between atoms: C_2  and  C_3
REMARK    3  A    between atoms: C_3  and  C_5
REMARK    4  A    between atoms: C_3  and  C_6
REMARK    5  A    between atoms: C_6  and  C_8
REMARK    6  A    between atoms: C_6  and  N_58
REMARK    7  A    between atoms: C_14  and  C_17
REMARK    8  A    between atoms: N_20  and  C_21
REMARK                            x       y       z     vdW  Elec       q    Type
REMARK                         _______ _______ _______ _____ _____    ______ ____
ROOT
ATOM      1  C   UNL     1       0.180   5.328  -1.223  0.00  0.00    +0.201 C 
ATOM      2  O   UNL     1      -0.760   6.087  -1.327  0.00  0.00    -0.277 OA
ATOM      3  N   UNL     1      -0.033   4.001  -1.122  0.00  0.00    -0.300 N 
ATOM      4  C   UNL     1       1.091   3.076  -0.920  0.00  0.00    +0.127 C 
ATOM      5  C   UNL     1       0.817   2.238   0.334  0.00  0.00    +0.128 C 
ATOM      6  N   UNL     1      -0.543   1.690   0.245  0.00  0.00    -0.280 N 
ATOM      7  C   UNL     1      -1.667   2.614   0.038  0.00  0.00    +0.092 C 
ATOM      8  C   UNL     1      -1.394   3.453  -1.211  0.00  0.00    +0.130 C 
ATOM      9  C   UNL     1      -2.959   1.817  -0.154  0.00  0.00    +0.030 C 
ATOM     10  C   UNL     1      -0.757   0.363   0.346  0.00  0.00    +0.303 C 
ATOM     11  O   UNL     1      -1.892  -0.070   0.370  0.00  0.00    -0.253 OA
ATOM     12  N   UNL     1       0.289  -0.484   0.420  0.00  0.00    -0.296 N 
ATOM     13  H   UNL     1       1.193  -0.135   0.474  0.00  0.00    +0.151 HD
ENDROOT
BRANCH  12  14
ATOM     14  C   UNL     1       0.062  -1.931   0.418  0.00  0.00    +0.074 C 
ATOM     15  C   UNL     1      -0.233  -2.403   1.843  0.00  0.00    +0.022 C 
ATOM     16  C   UNL     1      -0.470  -3.914   1.841  0.00  0.00    +0.002 C 
ATOM     17  C   UNL     1       0.778  -4.626   1.316  0.00  0.00    +0.000 C 
ATOM     18  C   UNL     1       1.072  -4.154  -0.109  0.00  0.00    +0.002 C 
ATOM     19  C   UNL     1       1.310  -2.643  -0.107  0.00  0.00    +0.022 C 
ENDBRANCH  12  14
BRANCH   1  20
ATOM     20  C   UNL     1       1.587   5.869  -1.209  0.00  0.00    +0.016 C 
BRANCH  20  23
ATOM     21  H   UNL     1       1.008   7.841  -1.325  0.00  0.00    -0.089 HD
ATOM     22  H   UNL     1       1.256   7.304   0.230  0.00  0.00    -0.089 HD
ATOM     23  N   UNL     1       1.598   7.262  -0.729  0.00  0.00    +0.386 N 
ATOM     24  H   UNL     1       2.559   7.621  -0.758  0.00  0.00    -0.089 HD
ENDBRANCH  20  23
BRANCH  20  25
ATOM     25  C   UNL     1       2.164   5.826  -2.625  0.00  0.00    -0.020 C 
ATOM     26  C   UNL     1       2.094   4.395  -3.162  0.00  0.00    +0.006 C 
BRANCH  25  28
ATOM     27  C   UNL     1       4.163   6.365  -4.025  0.00  0.00    +0.004 C 
ATOM     28  C   UNL     1       3.623   6.288  -2.595  0.00  0.00    -0.001 C 
ENDBRANCH  25  28
ENDBRANCH  20  25
ENDBRANCH   1  20
TORSDOF 5
