REMARK  Name = ZINC01092803
REMARK  11 active torsions:
REMARK  status: ('A' for Active; 'I' for Inactive)
REMARK    1  A    between atoms: C_1  and  C_2
REMARK    2  A    between atoms: C_2  and  N_3
REMARK    3  A    between atoms: N_3  and  C_4
REMARK    4  A    between atoms: N_3  and  C_6
REMARK    5  A    between atoms: C_4  and  C_5
REMARK    6  A    between atoms: C_9  and  C_12
REMARK    7  A    between atoms: C_15  and  C_26
REMARK    8  A    between atoms: C_21  and  N_25
REMARK    9  A    between atoms: C_22  and  C_23
REMARK   10  A    between atoms: C_26  and  O_27
REMARK   11  A    between atoms: O_27  and  C_28
REMARK                            x       y       z     vdW  Elec       q    Type
REMARK                         _______ _______ _______ _____ _____    ______ ____
ROOT
ATOM      1  C   UNL     1       2.490   1.044  -0.016  0.00  0.00    +0.101 C 
ATOM      2  C   UNL     1       3.269   1.420  -1.250  0.00  0.00    +0.052 A 
ATOM      3  C   UNL     1       3.044   1.066  -2.574  0.00  0.00    +0.096 A 
ATOM      4  N   UNL     1       3.975   1.625  -3.309  0.00  0.00    -0.173 NA
ATOM      5  N   UNL     1       4.827   2.357  -2.466  0.00  0.00    -0.246 N 
ATOM      6  H   UNL     1       5.625   2.887  -2.751  0.00  0.00    +0.192 HD
ATOM      7  C   UNL     1       4.378   2.218  -1.208  0.00  0.00    +0.223 A 
ATOM      8  O   UNL     1       4.867   2.732  -0.051  0.00  0.00    -0.423 OA
ATOM      9  C   UNL     1       4.399   2.221   1.106  0.00  0.00    +0.200 C 
ATOM     10  C   UNL     1       3.306   1.431   1.192  0.00  0.00    +0.098 C 
ENDROOT
BRANCH   1  14
ATOM     11  C   UNL     1      -1.236   3.138   0.031  0.00  0.00    +0.030 A 
ATOM     12  C   UNL     1      -1.218   1.749   0.017  0.00  0.00    +0.023 A 
ATOM     13  C   UNL     1      -0.013   1.076   0.008  0.00  0.00    +0.006 A 
ATOM     14  C   UNL     1       1.176   1.783   0.000  0.00  0.00    -0.034 A 
ATOM     15  C   UNL     1       1.162   3.166   0.008  0.00  0.00    +0.006 A 
ATOM     16  C   UNL     1      -0.040   3.845   0.024  0.00  0.00    +0.023 A 
BRANCH  11  17
ATOM     17  N   UNL     1      -2.454   3.822   0.046  0.00  0.00    -0.330 N 
BRANCH  17  19
ATOM     18  C   UNL     1      -4.139   2.807   1.499  0.00  0.00    +0.024 C 
ATOM     19  C   UNL     1      -3.714   3.075   0.054  0.00  0.00    +0.102 C 
ENDBRANCH  17  19
BRANCH  17  20
ATOM     20  C   UNL     1      -2.471   5.287   0.054  0.00  0.00    +0.102 C 
ATOM     21  C   UNL     1      -2.490   5.806  -1.385  0.00  0.00    +0.024 C 
ENDBRANCH  17  20
ENDBRANCH  11  17
ENDBRANCH   1  14
BRANCH   9  22
ATOM     22  N   UNL     1       5.073   2.520   2.263  0.00  0.00    -0.328 N 
ATOM     23  H   UNL     1       5.861   3.085   2.233  0.00  0.00    +0.145 HD
ATOM     24  H   UNL     1       4.761   2.167   3.111  0.00  0.00    +0.145 HD
ENDBRANCH   9  22
BRANCH  10  25
ATOM     25  C   UNL     1       2.908   0.943   2.478  0.00  0.00    +0.101 C 
ATOM     26  N   UNL     1       2.592   0.556   3.498  0.00  0.00    -0.191 NA
ENDBRANCH  10  25
BRANCH   3  27
ATOM     27  C   UNL     1       1.925   0.192  -3.078  0.00  0.00    +0.217 C 
BRANCH  27  28
ATOM     28  O   UNL     1       0.792   1.004  -3.396  0.00  0.00    -0.377 OA
ATOM     29  C   UNL     1      -0.331   0.269  -3.886  0.00  0.00    +0.194 C 
ENDBRANCH  27  28
ENDBRANCH   3  27
TORSDOF 8
