REMARK  Name = ZINC04281788
REMARK  7 active torsions:
REMARK  status: ('A' for Active; 'I' for Inactive)
REMARK    1  A    between atoms: C_1  and  C_2
REMARK    2  A    between atoms: N_8  and  S_9
REMARK    3  A    between atoms: S_9  and  C_12
REMARK    4  A    between atoms: C_15  and  C_18
REMARK    5  A    between atoms: N_20  and  C_21
REMARK    6  A    between atoms: C_22  and  C_26
REMARK    7  A    between atoms: N_28  and  C_29
REMARK                            x       y       z     vdW  Elec       q    Type
REMARK                         _______ _______ _______ _____ _____    ______ ____
ROOT
ATOM      1  C   UNL     1      -4.856   0.289  -0.427  0.00  0.00    +0.106 A 
ATOM      2  C   UNL     1      -5.324   1.591  -0.398  0.00  0.00    +0.029 A 
ATOM      3  C   UNL     1      -4.456   2.643  -0.606  0.00  0.00    +0.015 A 
ATOM      4  C   UNL     1      -3.104   2.393  -0.845  0.00  0.00    +0.037 A 
ATOM      5  C   UNL     1      -2.640   1.077  -0.879  0.00  0.00    +0.015 A 
ATOM      6  C   UNL     1      -3.517   0.034  -0.663  0.00  0.00    +0.029 A 
ENDROOT
BRANCH   4   7
ATOM      7  C   UNL     1      -2.169   3.515  -1.069  0.00  0.00    +0.249 C 
ATOM      8  O   UNL     1      -2.577   4.660  -1.044  0.00  0.00    -0.270 OA
ATOM      9  N   UNL     1      -0.864   3.270  -1.300  0.00  0.00    -0.275 N 
ATOM     10  H   UNL     1      -0.539   2.356  -1.320  0.00  0.00    +0.156 HD
BRANCH   9  11
ATOM     11  C   UNL     1       0.011   4.322  -1.515  0.00  0.00    +0.084 A 
ATOM     12  C   UNL     1       1.376   4.271  -1.773  0.00  0.00    +0.065 A 
ATOM     13  C   UNL     1       2.049   5.534  -1.959  0.00  0.00    +0.022 A 
ATOM     14  C   UNL     1       1.301   6.648  -1.868  0.00  0.00    +0.048 A 
ATOM     15  S   UNL     1      -0.332   6.019  -1.536  0.00  0.00    -0.081 S 
BRANCH  12  16
ATOM     16  C   UNL     1       2.097   2.997  -1.851  0.00  0.00    +0.246 C 
ATOM     17  O   UNL     1       1.499   1.948  -1.688  0.00  0.00    -0.270 OA
ATOM     18  N   UNL     1       3.421   2.985  -2.102  0.00  0.00    -0.314 N 
ATOM     19  C   UNL     1       4.141   1.712  -2.180  0.00  0.00    +0.128 C 
ATOM     20  H   UNL     1       3.897   3.821  -2.232  0.00  0.00    +0.149 HD
ENDBRANCH  12  16
ENDBRANCH   9  11
ENDBRANCH   4   7
BRANCH   1  21
ATOM     21  S   UNL     1      -5.970  -1.049  -0.160  0.00  0.00    +0.061 S 
ATOM     22  O   UNL     1      -5.189  -2.142   0.304  0.00  0.00    -0.153 OA
ATOM     23  O   UNL     1      -7.064  -0.526   0.580  0.00  0.00    -0.153 OA
BRANCH  21  30
ATOM     24  C   UNL     1      -8.272   0.219  -1.212  0.00  0.00    +0.026 C 
ATOM     25  C   UNL     1      -7.711  -0.778  -2.228  0.00  0.00    +0.077 C 
ATOM     26  C   UNL     1      -8.792  -1.792  -2.598  0.00  0.00    +0.020 C 
ATOM     27  C   UNL     1      -8.190  -2.869  -3.503  0.00  0.00    +0.003 C 
ATOM     28  C   UNL     1      -7.075  -3.602  -2.753  0.00  0.00    +0.017 C 
ATOM     29  C   UNL     1      -5.971  -2.605  -2.388  0.00  0.00    +0.110 C 
ATOM     30  N   UNL     1      -6.569  -1.490  -1.640  0.00  0.00    -0.174 NA
ENDBRANCH  21  30
ENDBRANCH   1  21
TORSDOF 5
