REMARK  Name = ZINC47014318
REMARK  2 active torsions:
REMARK  status: ('A' for Active; 'I' for Inactive)
REMARK    1  A    between atoms: C_4  and  C_6
REMARK    2  A    between atoms: C_6  and  N_7
REMARK                            x       y       z     vdW  Elec       q    Type
REMARK                         _______ _______ _______ _____ _____    ______ ____
ROOT
ATOM      1  N   UNL     1       0.490  -3.128  -3.781  0.00  0.00    -0.299 N 
ATOM      2  C   UNL     1       0.227  -3.421  -2.492  0.00  0.00    +0.302 C 
ATOM      3  O   UNL     1       0.576  -2.658  -1.612  0.00  0.00    -0.253 OA
ATOM      4  N   UNL     1      -0.424  -4.559  -2.179  0.00  0.00    -0.285 N 
ATOM      5  C   UNL     1      -0.824  -4.835  -0.793  0.00  0.00    +0.114 C 
ATOM      6  C   UNL     1      -0.275  -6.205  -0.385  0.00  0.00    +0.084 C 
ATOM      7  C   UNL     1      -0.734  -7.257  -1.397  0.00  0.00    +0.173 C 
ATOM      8  C   UNL     1      -0.197  -6.911  -2.787  0.00  0.00    +0.084 C 
ATOM      9  C   UNL     1      -0.751  -5.544  -3.219  0.00  0.00    +0.114 C 
ATOM     10  O   UNL     1      -0.250  -8.547  -1.002  0.00  0.00    -0.346 OA
ATOM     11  C   UNL     1      -1.401  -9.394  -0.805  0.00  0.00    +0.191 C 
ATOM     12  C   UNL     1      -2.502  -8.686  -1.633  0.00  0.00    +0.191 C 
ATOM     13  O   UNL     1      -2.170  -7.291  -1.433  0.00  0.00    -0.346 OA
ATOM     14  H   UNL     1       0.277  -3.768  -4.478  0.00  0.00    +0.150 HD
ENDROOT
BRANCH   1  15
ATOM     15  C   UNL     1       1.098  -1.841  -4.131  0.00  0.00    +0.109 C 
BRANCH  15  19
ATOM     16  C   UNL     1       3.492  -1.960  -6.749  0.00  0.00    +0.000 C 
ATOM     17  C   UNL     1       2.805  -0.646  -7.198  0.00  0.00    +0.000 C 
ATOM     18  C   UNL     1       1.813  -0.366  -6.042  0.00  0.00    +0.005 C 
ATOM     19  C   UNL     1       1.290  -1.763  -5.647  0.00  0.00    +0.006 C 
ATOM     20  C   UNL     1       2.357  -2.776  -6.096  0.00  0.00    +0.005 C 
ENDBRANCH  15  19
ENDBRANCH   1  15
TORSDOF 2
