REMARK  Name = ZINC05006738
REMARK  3 active torsions:
REMARK  status: ('A' for Active; 'I' for Inactive)
REMARK    1  A    between atoms: C_4  and  O_7
REMARK    2  A    between atoms: O_7  and  C_8
REMARK    3  A    between atoms: C_11  and  C_14
REMARK                            x       y       z     vdW  Elec       q    Type
REMARK                         _______ _______ _______ _____ _____    ______ ____
ROOT
ATOM      1  C   UNL     1       2.990  -2.040   0.605  0.00  0.00    +0.128 A 
ATOM      2  C   UNL     1       1.838  -2.680   0.162  0.00  0.00    +0.047 A 
ATOM      3  C   UNL     1       1.856  -4.031  -0.101  0.00  0.00    +0.011 A 
ATOM      4  C   UNL     1       3.038  -4.761   0.079  0.00  0.00    -0.024 A 
ATOM      5  C   UNL     1       4.195  -4.111   0.526  0.00  0.00    +0.011 A 
ATOM      6  C   UNL     1       4.167  -2.759   0.780  0.00  0.00    +0.047 A 
ENDROOT
BRANCH   4   7
ATOM      7  C   UNL     1       3.063  -6.203  -0.199  0.00  0.00    +0.028 C 
ATOM      8  C   UNL     1       2.071  -6.770  -0.930  0.00  0.00    +0.078 C 
ATOM      9  C   UNL     1       1.800  -8.197  -1.192  0.00  0.00    +0.256 C 
ATOM     10  O   UNL     1       2.509  -9.073  -0.734  0.00  0.00    -0.269 OA
ATOM     11  N   UNL     1       0.753  -8.480  -1.948  0.00  0.00    -0.261 N 
ATOM     12  C   UNL     1      -0.039  -7.470  -2.458  0.00  0.00    +0.158 C 
ATOM     13  N   UNL     1      -1.098  -7.573  -3.212  0.00  0.00    -0.279 NA
ATOM     14  S   UNL     1       0.736  -5.991  -1.826  0.00  0.00    -0.049 S 
ATOM     15  H   UNL     1       0.539  -9.405  -2.146  0.00  0.00    +0.157 HD
ATOM     16  H   UNL     1      -1.565  -6.774  -3.503  0.00  0.00    +0.189 HD
ENDBRANCH   4   7
BRANCH   1  17
ATOM     17  O   UNL     1       2.966  -0.707   0.863  0.00  0.00    -0.456 OA
BRANCH  17  21
ATOM     18  C   UNL     1       4.601   1.837  -1.944  0.00  0.00    +0.000 A 
ATOM     19  C   UNL     1       4.610   0.471  -2.162  0.00  0.00    +0.004 A 
ATOM     20  C   UNL     1       4.063  -0.383  -1.223  0.00  0.00    +0.046 A 
ATOM     21  C   UNL     1       3.505   0.131  -0.061  0.00  0.00    +0.128 A 
ATOM     22  C   UNL     1       3.497   1.501   0.155  0.00  0.00    +0.046 A 
ATOM     23  C   UNL     1       4.045   2.351  -0.786  0.00  0.00    +0.004 A 
ENDBRANCH  17  21
ENDBRANCH   1  17
TORSDOF 3
