REMARK  Name = ZINC64137328
REMARK  4 active torsions:
REMARK  status: ('A' for Active; 'I' for Inactive)
REMARK    1  A    between atoms: C_15  and  C_17
REMARK    2  A    between atoms: C_19  and  C_22
REMARK    3  A    between atoms: C_22  and  O_23
REMARK    4  A    between atoms: O_23  and  C_24
REMARK                            x       y       z     vdW  Elec       q    Type
REMARK                         _______ _______ _______ _____ _____    ______ ____
ROOT
ATOM      1  C   UNL     1      -0.153   0.896   1.362  0.00  0.00    +0.001 A 
ATOM      2  C   UNL     1       1.018   1.631   1.596  0.00  0.00    +0.002 A 
ATOM      3  C   UNL     1       2.248   1.082   1.516  0.00  0.00    +0.026 A 
ATOM      4  C   UNL     1       2.406  -0.291   1.184  0.00  0.00    +0.043 A 
ATOM      5  N   UNL     1       3.478  -1.034   1.027  0.00  0.00    -0.376 N 
ATOM      6  C   UNL     1       3.056  -2.407   0.760  0.00  0.00    +0.124 C 
ATOM      7  C   UNL     1       3.623  -2.931  -0.564  0.00  0.00    +0.137 C 
ATOM      8  N   UNL     1       2.847  -4.121  -0.948  0.00  0.00    -0.294 N 
ATOM      9  C   UNL     1       1.400  -4.030  -1.168  0.00  0.00    +0.112 C 
ATOM     10  C   UNL     1       0.722  -3.506   0.111  0.00  0.00    +0.052 C 
ATOM     11  C   UNL     1       1.544  -2.344   0.620  0.00  0.00    -0.036 C 
ATOM     12  C   UNL     1       1.182  -1.089   0.924  0.00  0.00    -0.001 A 
ATOM     13  C   UNL     1      -0.117  -0.415   1.036  0.00  0.00    +0.010 A 
ATOM     14  C   UNL     1       3.472  -5.306  -1.099  0.00  0.00    +0.268 C 
ATOM     15  O   UNL     1       2.822  -6.317  -1.275  0.00  0.00    -0.268 OA
ATOM     16  H   UNL     1       4.395  -0.723   1.080  0.00  0.00    +0.160 HD
ENDROOT
BRANCH  14  17
ATOM     17  C   UNL     1       4.953  -5.375  -1.048  0.00  0.00    +0.168 A 
ATOM     18  C   UNL     1       5.733  -6.555  -1.048  0.00  0.00    +0.084 A 
ATOM     19  C   UNL     1       7.029  -6.198  -0.995  0.00  0.00    +0.175 A 
ATOM     20  O   UNL     1       7.095  -4.859  -0.962  0.00  0.00    -0.355 OA
ATOM     21  N   UNL     1       5.773  -4.353  -1.002  0.00  0.00    -0.073 NA
BRANCH  19  22
ATOM     22  C   UNL     1       8.205  -7.141  -0.976  0.00  0.00    +0.306 C 
BRANCH  22  23
ATOM     23  O   UNL     1       8.624  -7.408  -2.316  0.00  0.00    -0.478 OA
BRANCH  23  24
ATOM     24  C   UNL     1       9.682  -8.247  -2.477  0.00  0.00    +0.191 A 
ATOM     25  C   UNL     1      10.974  -7.739  -2.506  0.00  0.00    +0.168 A 
ATOM     26  C   UNL     1      12.049  -8.596  -2.669  0.00  0.00    +0.042 A 
ATOM     27  C   UNL     1      11.837  -9.955  -2.804  0.00  0.00    +0.006 A 
ATOM     28  C   UNL     1      10.551 -10.463  -2.776  0.00  0.00    +0.042 A 
ATOM     29  C   UNL     1       9.473  -9.613  -2.606  0.00  0.00    +0.168 A 
ATOM     30  F   UNL     1       8.217 -10.111  -2.573  0.00  0.00    -0.202 F 
ATOM     31  F   UNL     1      11.182  -6.411  -2.375  0.00  0.00    -0.202 F 
ENDBRANCH  23  24
ENDBRANCH  22  23
ENDBRANCH  19  22
ENDBRANCH  14  17
TORSDOF 4
