REMARK  Name = ZINC41452006
REMARK  6 active torsions:
REMARK  status: ('A' for Active; 'I' for Inactive)
REMARK    1  A    between atoms: C_1  and  O_2
REMARK    2  A    between atoms: O_2  and  C_3
REMARK    3  A    between atoms: C_8  and  N_9
REMARK    4  A    between atoms: N_9  and  S_10
REMARK    5  A    between atoms: S_10  and  C_13
REMARK    6  A    between atoms: C_16  and  N_19
REMARK                            x       y       z     vdW  Elec       q    Type
REMARK                         _______ _______ _______ _____ _____    ______ ____
ROOT
ATOM      1  S   UNL     1      -0.048  -4.268  -0.738  0.00  0.00    +0.072 S 
ATOM      2  O   UNL     1       1.247  -4.807  -0.511  0.00  0.00    -0.150 OA
ATOM      3  O   UNL     1      -1.234  -4.938  -0.334  0.00  0.00    -0.150 OA
ENDROOT
BRANCH   1   4
ATOM      4  C   UNL     1      -0.186  -4.003  -2.475  0.00  0.00    +0.109 A 
ATOM      5  C   UNL     1      -1.433  -3.958  -3.069  0.00  0.00    +0.030 A 
ATOM      6  C   UNL     1      -1.545  -3.751  -4.430  0.00  0.00    +0.025 A 
ATOM      7  C   UNL     1      -0.402  -3.588  -5.202  0.00  0.00    +0.040 A 
ATOM      8  C   UNL     1       0.850  -3.634  -4.602  0.00  0.00    +0.025 A 
ATOM      9  C   UNL     1       0.954  -3.837  -3.240  0.00  0.00    +0.030 A 
BRANCH   7  10
ATOM     10  N   UNL     1      -0.511  -3.379  -6.581  0.00  0.00    -0.234 N 
ATOM     11  C   UNL     1       0.609  -3.196  -7.525  0.00  0.00    +0.158 C 
ATOM     12  C   UNL     1      -0.082  -3.395  -8.895  0.00  0.00    +0.253 C 
ATOM     13  O   UNL     1      -1.452  -3.067  -8.591  0.00  0.00    -0.448 OA
ATOM     14  C   UNL     1      -1.657  -3.313  -7.286  0.00  0.00    +0.407 C 
ATOM     15  O   UNL     1      -2.758  -3.458  -6.793  0.00  0.00    -0.226 OA
ENDBRANCH   7  10
ENDBRANCH   1   4
BRANCH   1  16
ATOM     16  N   UNL     1      -0.075  -2.779  -0.013  0.00  0.00    -0.213 N 
ATOM     17  H   UNL     1       0.681  -2.485   0.519  0.00  0.00    +0.174 HD
BRANCH  16  23
ATOM     18  C   UNL     1      -1.023  -0.566  -0.249  0.00  0.00    +0.142 A 
ATOM     19  C   UNL     1      -2.128   0.254  -0.407  0.00  0.00    +0.049 A 
ATOM     20  C   UNL     1      -3.394  -0.297  -0.476  0.00  0.00    +0.024 A 
ATOM     21  C   UNL     1      -3.562  -1.668  -0.388  0.00  0.00    +0.043 A 
ATOM     22  C   UNL     1      -2.463  -2.493  -0.230  0.00  0.00    +0.048 A 
ATOM     23  C   UNL     1      -1.189  -1.946  -0.166  0.00  0.00    +0.091 A 
ATOM     24 CL   UNL     1      -5.154  -2.353  -0.476  0.00  0.00    -0.083 Cl
BRANCH  18  26
ATOM     25  C   UNL     1       0.318   1.399  -0.271  0.00  0.00    +0.277 C 
ATOM     26  O   UNL     1       0.223  -0.024  -0.180  0.00  0.00    -0.493 OA
ENDBRANCH  18  26
ENDBRANCH  16  23
ENDBRANCH   1  16
TORSDOF 5
