REMARK  Name = ZINC11715167
REMARK  6 active torsions:
REMARK  status: ('A' for Active; 'I' for Inactive)
REMARK    1  A    between atoms: C_1  and  C_2
REMARK    2  A    between atoms: C_2  and  C_3
REMARK    3  A    between atoms: C_2  and  N_4
REMARK    4  A    between atoms: C_6  and  C_9
REMARK    5  A    between atoms: C_23  and  C_24
REMARK    6  A    between atoms: C_23  and  N_59
REMARK                            x       y       z     vdW  Elec       q    Type
REMARK                         _______ _______ _______ _____ _____    ______ ____
ROOT
ATOM      1  C   UNL     1      -4.131   0.021   1.428  0.00  0.00    +0.014 C 
ATOM      2  C   UNL     1      -4.285  -0.623   2.786  0.00  0.00    +0.011 A 
ATOM      3  C   UNL     1      -3.237  -0.884   3.600  0.00  0.00    -0.022 A 
ATOM      4  C   UNL     1      -3.769  -1.494   4.798  0.00  0.00    +0.003 A 
ATOM      5  C   UNL     1      -3.170  -1.968   5.970  0.00  0.00    +0.010 A 
ATOM      6  C   UNL     1      -4.004  -2.500   6.922  0.00  0.00    +0.001 A 
ATOM      7  C   UNL     1      -5.376  -2.569   6.743  0.00  0.00    +0.002 A 
ATOM      8  C   UNL     1      -5.995  -2.107   5.595  0.00  0.00    +0.026 A 
ATOM      9  C   UNL     1      -5.174  -1.562   4.610  0.00  0.00    +0.047 A 
ATOM     10  N   UNL     1      -5.447  -1.026   3.384  0.00  0.00    -0.359 N 
ATOM     11  H   UNL     1      -6.332  -0.944   2.995  0.00  0.00    +0.166 HD
ATOM     12  C   UNL     1      -1.807  -0.565   3.244  0.00  0.00    +0.019 C 
ATOM     13  C   UNL     1      -1.742  -0.303   1.734  0.00  0.00    -0.072 C 
ATOM     14  N   UNL     1      -2.798   0.669   1.375  0.00  0.00    +0.391 N 
ATOM     15  H   UNL     1      -2.779   1.445   2.048  0.00  0.00    -0.080 HD
ENDROOT
BRANCH   1  18
ATOM     16  N   UNL     1      -7.014   2.099   0.612  0.00  0.00    -0.269 N 
ATOM     17  C   UNL     1      -6.333   0.937   0.527  0.00  0.00    +0.111 A 
ATOM     18  C   UNL     1      -5.193   1.074   1.244  0.00  0.00    -0.018 A 
ATOM     19  C   UNL     1      -5.173   2.367   1.777  0.00  0.00    +0.136 A 
ATOM     20  N   UNL     1      -6.263   2.982   1.399  0.00  0.00    -0.179 NA
BRANCH  16  22
ATOM     21  C   UNL     1      -8.084   2.847  -1.456  0.00  0.00    +0.032 C 
ATOM     22  C   UNL     1      -8.307   2.388  -0.013  0.00  0.00    +0.101 C 
ATOM     23  C   UNL     1      -9.170   1.125  -0.007  0.00  0.00    +0.032 C 
ENDBRANCH  16  22
ENDBRANCH   1  18
BRANCH  14  24
ATOM     24  C   UNL     1      -2.552   1.204   0.020  0.00  0.00    -0.035 C 
BRANCH  24  25
ATOM     25  C   UNL     1      -1.358   2.122   0.072  0.00  0.00    +0.018 A 
ATOM     26  C   UNL     1      -0.176   1.724  -0.433  0.00  0.00    +0.201 A 
ATOM     27  O   UNL     1       0.918   2.492  -0.409  0.00  0.00    -0.462 OA
ATOM     28  C   UNL     1       0.920   3.732   0.122  0.00  0.00    +0.138 A 
ATOM     29  C   UNL     1       2.075   4.504   0.132  0.00  0.00    +0.047 A 
ATOM     30  C   UNL     1       2.052   5.768   0.681  0.00  0.00    +0.004 A 
ATOM     31  C   UNL     1       0.884   6.282   1.226  0.00  0.00    +0.001 A 
ATOM     32  C   UNL     1      -0.272   5.533   1.227  0.00  0.00    +0.015 A 
ATOM     33  C   UNL     1      -0.261   4.253   0.674  0.00  0.00    +0.064 A 
ATOM     34  C   UNL     1      -1.474   3.413   0.652  0.00  0.00    +0.194 A 
ATOM     35  O   UNL     1      -2.530   3.809   1.115  0.00  0.00    -0.287 OA
ENDBRANCH  24  25
ENDBRANCH  14  24
TORSDOF 4
