REMARK  Name = ZINC04474984
REMARK  3 active torsions:
REMARK  status: ('A' for Active; 'I' for Inactive)
REMARK    1  A    between atoms: C_4  and  O_27
REMARK    2  A    between atoms: C_5  and  C_7
REMARK    3  A    between atoms: N_8  and  N_9
REMARK                            x       y       z     vdW  Elec       q    Type
REMARK                         _______ _______ _______ _____ _____    ______ ____
ROOT
ATOM      1  N   UNL     1       3.159   2.944   0.004  0.00  0.00    -0.127 N 
ATOM      2  C   UNL     1       2.618   1.815   0.595  0.00  0.00    +0.246 C 
ATOM      3  O   UNL     1       3.119   1.068   1.408  0.00  0.00    -0.273 OA
ATOM      4  C   UNL     1       1.308   1.751  -0.001  0.00  0.00    +0.097 C 
ATOM      5  C   UNL     1      -0.013   1.086   0.008  0.00  0.00    +0.031 C 
ATOM      6  C   UNL     1      -1.000   1.733   0.979  0.00  0.00    -0.026 C 
ATOM      7  C   UNL     1      -1.315   2.969   0.546  0.00  0.00    -0.026 C 
ATOM      8  C   UNL     1      -0.424   3.249  -0.708  0.00  0.00    +0.031 C 
ATOM      9  C   UNL     1       0.919   3.289   0.068  0.00  0.00    +0.097 C 
ATOM     10  C   UNL     1       2.197   3.754  -0.555  0.00  0.00    +0.246 C 
ATOM     11  O   UNL     1       2.350   4.641  -1.367  0.00  0.00    -0.273 OA
ATOM     12  C   UNL     1      -0.504   1.816  -1.294  0.00  0.00    -0.015 C 
ATOM     13  C   UNL     1      -1.575   1.295  -2.194  0.00  0.00    +0.009 C 
ATOM     14  C   UNL     1      -0.120   1.411  -2.679  0.00  0.00    +0.009 C 
ENDROOT
BRANCH   1  16
ATOM     15  C   UNL     1       5.374   2.413   0.530  0.00  0.00    +0.142 C 
ATOM     16  N   UNL     1       4.530   3.230  -0.022  0.00  0.00    -0.178 NA
BRANCH  15  21
ATOM     17  C   UNL     1       9.076   2.124   1.067  0.00  0.00    +0.001 A 
ATOM     18  C   UNL     1       9.531   3.279   0.453  0.00  0.00    +0.004 A 
ATOM     19  C   UNL     1       8.640   4.155  -0.136  0.00  0.00    +0.046 A 
ATOM     20  C   UNL     1       7.282   3.879  -0.122  0.00  0.00    +0.125 A 
ATOM     21  C   UNL     1       6.816   2.714   0.503  0.00  0.00    +0.036 A 
ATOM     22  C   UNL     1       7.728   1.836   1.095  0.00  0.00    +0.013 A 
BRANCH  20  23
ATOM     23  O   UNL     1       6.406   4.736  -0.706  0.00  0.00    -0.506 OA
ATOM     24  H   UNL     1       6.074   5.424  -0.113  0.00  0.00    +0.292 HD
ENDBRANCH  20  23
ENDBRANCH  15  21
ENDBRANCH   1  16
TORSDOF 3
