REMARK  Name = ZINC20262833
REMARK  5 active torsions:
REMARK  status: ('A' for Active; 'I' for Inactive)
REMARK    1  A    between atoms: C_1  and  C_2
REMARK    2  A    between atoms: N_5  and  S_8
REMARK    3  A    between atoms: S_8  and  C_11
REMARK    4  A    between atoms: C_14  and  N_18
REMARK    5  A    between atoms: C_15  and  N_17
REMARK                            x       y       z     vdW  Elec       q    Type
REMARK                         _______ _______ _______ _____ _____    ______ ____
ROOT
ATOM      1  C   UNL     1       1.930   4.339  -3.472  0.00  0.00    +0.107 A 
ATOM      2  C   UNL     1       3.189   3.792  -3.305  0.00  0.00    +0.030 A 
ATOM      3  C   UNL     1       3.759   3.039  -4.314  0.00  0.00    +0.027 A 
ATOM      4  C   UNL     1       3.074   2.840  -5.503  0.00  0.00    +0.051 A 
ATOM      5  C   UNL     1       1.806   3.396  -5.674  0.00  0.00    +0.048 A 
ATOM      6  C   UNL     1       1.239   4.145  -4.654  0.00  0.00    +0.053 A 
ENDROOT
BRANCH   4   7
ATOM      7  N   UNL     1       3.652   2.081  -6.528  0.00  0.00    -0.328 N 
ATOM      8  C   UNL     1       5.013   1.623  -6.149  0.00  0.00    +0.105 C 
ATOM      9  C   UNL     1       5.261   0.425  -7.100  0.00  0.00    +0.020 C 
ATOM     10  C   UNL     1       3.872  -0.247  -7.181  0.00  0.00    +0.020 C 
ATOM     11  C   UNL     1       2.869   0.853  -6.785  0.00  0.00    +0.105 C 
ENDBRANCH   4   7
BRANCH   1  12
ATOM     12  S   UNL     1       1.207   5.292  -2.178  0.00  0.00    +0.061 S 
ATOM     13  O   UNL     1       0.258   6.154  -2.791  0.00  0.00    -0.153 OA
ATOM     14  O   UNL     1       2.281   5.782  -1.387  0.00  0.00    -0.153 OA
BRANCH  12  19
ATOM     15  C   UNL     1      -0.933   0.270  -0.425  0.00  0.00    +0.007 C 
ATOM     16  C   UNL     1      -0.716   1.782  -0.338  0.00  0.00    -0.012 C 
ATOM     17  C   UNL     1      -1.252   2.448  -1.607  0.00  0.00    +0.020 C 
ATOM     18  C   UNL     1      -1.064   3.965  -1.500  0.00  0.00    +0.110 C 
ATOM     19  N   UNL     1       0.350   4.248  -1.221  0.00  0.00    -0.177 NA
ATOM     20  C   UNL     1       0.990   3.587  -0.075  0.00  0.00    +0.110 C 
ATOM     21  C   UNL     1       0.779   2.075  -0.197  0.00  0.00    +0.020 C 
ENDBRANCH  12  19
ENDBRANCH   1  12
BRANCH   5  22
ATOM     22  N   UNL     1       1.108   3.198  -6.871  0.00  0.00    -0.356 N 
ATOM     23  H   UNL     1       0.108   3.637  -7.004  0.00  0.00    +0.142 HD
ATOM     24  H   UNL     1       1.559   2.603  -7.679  0.00  0.00    +0.142 HD
ENDBRANCH   5  22
TORSDOF 4
