REMARK  Name = ZINC43412729
REMARK  3 active torsions:
REMARK  status: ('A' for Active; 'I' for Inactive)
REMARK    1  A    between atoms: C_1  and  C_2
REMARK    2  A    between atoms: C_12  and  C_19
REMARK    3  A    between atoms: C_15  and  C_18
REMARK                            x       y       z     vdW  Elec       q    Type
REMARK                         _______ _______ _______ _____ _____    ______ ____
ROOT
ATOM      1  C   UNL     1      -0.010   1.503   0.008  0.00  0.00    +0.075 C 
ATOM      2  C   UNL     1       0.008  -0.004   0.001  0.00  0.00    +0.101 A 
ATOM      3  N   UNL     1       0.011  -0.844  -1.015  0.00  0.00    -0.145 NA
ATOM      4  N   UNL     1       0.029  -2.086  -0.785  0.00  0.00    -0.126 NA
ATOM      5  C   UNL     1       0.045  -2.568   0.442  0.00  0.00    +0.189 A 
ATOM      6  S   UNL     1       0.041  -1.157   1.366  0.00  0.00    -0.036 S 
ATOM      7  N   UNL     1       0.065  -3.893   0.865  0.00  0.00    -0.247 N 
ATOM      8  C   UNL     1       0.070  -4.889  -0.043  0.00  0.00    +0.308 C 
ATOM      9  O   UNL     1      -0.034  -4.634  -1.227  0.00  0.00    -0.252 OA
ATOM     10  N   UNL     1       0.191  -6.169   0.363  0.00  0.00    -0.285 N 
ATOM     11  C   UNL     1       0.197  -6.504   1.793  0.00  0.00    +0.112 C 
ATOM     12  C   UNL     1      -0.875  -7.566   2.055  0.00  0.00    +0.004 C 
ATOM     13  C   UNL     1      -0.639  -8.762   1.129  0.00  0.00    +0.009 C 
ATOM     14  C   UNL     1      -0.753  -8.310  -0.329  0.00  0.00    +0.004 C 
ATOM     15  C   UNL     1       0.314  -7.256  -0.618  0.00  0.00    +0.112 C 
ATOM     16  C   UNL     1      -2.139  -7.709  -0.570  0.00  0.00    +0.009 C 
ATOM     17  C   UNL     1      -0.794  -8.025   3.512  0.00  0.00    +0.009 C 
ATOM     18  H   UNL     1       0.074  -4.099   1.812  0.00  0.00    +0.158 HD
ENDROOT
TORSDOF 0
