REMARK  Name = ZINC51676011
REMARK  5 active torsions:
REMARK  status: ('A' for Active; 'I' for Inactive)
REMARK    1  A    between atoms: C_6  and  N_7
REMARK    2  A    between atoms: C_8  and  C_10
REMARK    3  A    between atoms: C_10  and  N_11
REMARK    4  A    between atoms: C_18  and  C_21
REMARK    5  A    between atoms: N_23  and  C_24
REMARK                            x       y       z     vdW  Elec       q    Type
REMARK                         _______ _______ _______ _____ _____    ______ ____
ROOT
ATOM      1  N   UNL     1      -2.196  -4.261  -0.311  0.00  0.00    -0.291 N 
ATOM      2  C   UNL     1      -3.209  -5.143  -0.417  0.00  0.00    +0.303 C 
ATOM      3  O   UNL     1      -4.354  -4.745  -0.515  0.00  0.00    -0.253 OA
ATOM      4  N   UNL     1      -2.954  -6.466  -0.414  0.00  0.00    -0.285 N 
ATOM      5  C   UNL     1      -1.571  -6.961  -0.401  0.00  0.00    +0.109 C 
ATOM      6  C   UNL     1      -1.407  -7.938   0.768  0.00  0.00    +0.020 C 
ATOM      7  C   UNL     1      -2.467  -9.036   0.662  0.00  0.00    +0.016 C 
ATOM      8  C   UNL     1      -3.862  -8.412   0.745  0.00  0.00    +0.092 C 
ATOM      9  C   UNL     1      -4.053  -7.441  -0.418  0.00  0.00    +0.122 C 
ATOM     10  H   UNL     1      -1.278  -4.574  -0.306  0.00  0.00    +0.151 HD
ENDROOT
BRANCH   8  11
ATOM     11  C   UNL     1      -4.905  -9.497   0.674  0.00  0.00    +0.218 C 
ATOM     12  O   UNL     1      -4.566 -10.657   0.567  0.00  0.00    -0.275 OA
ATOM     13  N   UNL     1      -6.213  -9.180   0.730  0.00  0.00    -0.312 N 
ATOM     14  H   UNL     1      -6.484  -8.252   0.815  0.00  0.00    +0.149 HD
BRANCH  13  15
ATOM     15  C   UNL     1      -7.227 -10.235   0.660  0.00  0.00    +0.073 C 
ATOM     16  C   UNL     1      -8.445  -9.988  -0.232  0.00  0.00    +0.024 C 
ATOM     17  C   UNL     1      -8.591  -9.947   1.290  0.00  0.00    +0.024 C 
ENDBRANCH  13  15
ENDBRANCH   8  11
BRANCH   1  18
ATOM     18  C   UNL     1      -2.480  -2.828  -0.202  0.00  0.00    +0.202 C 
BRANCH  18  20
ATOM     19  N   UNL     1      -1.201  -0.722   0.014  0.00  0.00    -0.284 N 
ATOM     20  C   UNL     1      -1.185  -2.065  -0.096  0.00  0.00    +0.234 C 
ATOM     21  O   UNL     1      -0.128  -2.660  -0.111  0.00  0.00    -0.274 OA
ATOM     22  H   UNL     1      -2.045  -0.252   0.101  0.00  0.00    +0.155 HD
BRANCH  19  28
ATOM     23  C   UNL     1       1.074  -0.456  -0.753  0.00  0.00    +0.026 A 
ATOM     24  C   UNL     1       2.260   0.254  -0.763  0.00  0.00    +0.043 A 
ATOM     25  C   UNL     1       2.380   1.413  -0.018  0.00  0.00    +0.159 A 
ATOM     26  C   UNL     1       1.311   1.867   0.740  0.00  0.00    +0.160 A 
ATOM     27  C   UNL     1       0.122   1.160   0.751  0.00  0.00    +0.064 A 
ATOM     28  C   UNL     1       0.002  -0.004   0.004  0.00  0.00    +0.036 A 
ATOM     29  F   UNL     1       1.430   3.000   1.467  0.00  0.00    -0.202 F 
ATOM     30  F   UNL     1       3.541   2.105  -0.029  0.00  0.00    -0.202 F 
ENDBRANCH  19  28
ENDBRANCH  18  20
ENDBRANCH   1  18
TORSDOF 5
