REMARK  Name = ZINC20777072
REMARK  5 active torsions:
REMARK  status: ('A' for Active; 'I' for Inactive)
REMARK    1  A    between atoms: C_1  and  C_2
REMARK    2  A    between atoms: C_5  and  N_8
REMARK    3  A    between atoms: C_12  and  C_15
REMARK    4  A    between atoms: C_16  and  C_18
REMARK    5  A    between atoms: N_23  and  C_25
REMARK                            x       y       z     vdW  Elec       q    Type
REMARK                         _______ _______ _______ _____ _____    ______ ____
ROOT
ATOM      1  N   UNL     1      -4.834   1.159  -0.615  0.00  0.00    -0.327 N 
ATOM      2  C   UNL     1      -3.560   1.826  -0.915  0.00  0.00    +0.124 C 
ATOM      3  C   UNL     1      -2.499   1.372   0.100  0.00  0.00    +0.127 C 
ATOM      4  N   UNL     1      -2.449  -0.098   0.089  0.00  0.00    -0.290 N 
ATOM      5  C   UNL     1      -3.710  -0.838   0.246  0.00  0.00    +0.091 C 
ATOM      6  C   UNL     1      -4.722  -0.297  -0.769  0.00  0.00    +0.127 C 
ATOM      7  C   UNL     1      -3.466  -2.327  -0.008  0.00  0.00    +0.029 C 
ATOM      8  C   UNL     1      -1.278  -0.748  -0.057  0.00  0.00    +0.267 C 
ATOM      9  O   UNL     1      -1.268  -1.951  -0.233  0.00  0.00    -0.268 OA
ENDROOT
BRANCH   8  10
ATOM     10  C   UNL     1      -0.004   0.001  -0.001  0.00  0.00    +0.146 A 
ATOM     11  C   UNL     1       1.213  -0.652  -0.315  0.00  0.00    +0.040 A 
ATOM     12  C   UNL     1       2.367   0.070  -0.253  0.00  0.00    +0.074 A 
ATOM     13  C   UNL     1       2.278   1.429   0.121  0.00  0.00    +0.267 A 
ATOM     14  O   UNL     1       3.285   2.115   0.190  0.00  0.00    -0.266 OA
ATOM     15  N   UNL     1       1.074   1.963   0.402  0.00  0.00    -0.232 N 
ATOM     16  N   UNL     1      -0.004   1.270   0.339  0.00  0.00    -0.164 NA
ATOM     17  C   UNL     1       0.993   3.374   0.789  0.00  0.00    +0.176 C 
ENDBRANCH   8  10
BRANCH   1  22
ATOM     18  C   UNL     1      -9.016   3.226  -3.839  0.00  0.00    +0.044 C 
ATOM     19  C   UNL     1      -7.905   2.677  -2.982  0.00  0.00    -0.050 A 
ATOM     20  C   UNL     1      -7.155   3.531  -2.194  0.00  0.00    +0.005 A 
ATOM     21  C   UNL     1      -6.136   3.031  -1.408  0.00  0.00    +0.023 A 
ATOM     22  C   UNL     1      -5.865   1.668  -1.409  0.00  0.00    +0.030 A 
ATOM     23  C   UNL     1      -6.617   0.814  -2.206  0.00  0.00    +0.023 A 
ATOM     24  C   UNL     1      -7.638   1.320  -2.986  0.00  0.00    +0.005 A 
ENDBRANCH   1  22
TORSDOF 2
