REMARK  Name = ZINC12971488
REMARK  7 active torsions:
REMARK  status: ('A' for Active; 'I' for Inactive)
REMARK    1  A    between atoms: C_1  and  C_2
REMARK    2  A    between atoms: C_2  and  C_3
REMARK    3  A    between atoms: C_2  and  C_4
REMARK    4  A    between atoms: N_8  and  C_12
REMARK    5  A    between atoms: C_12  and  C_13
REMARK    6  A    between atoms: N_15  and  C_16
REMARK    7  A    between atoms: N_15  and  C_24
REMARK                            x       y       z     vdW  Elec       q    Type
REMARK                         _______ _______ _______ _____ _____    ______ ____
ROOT
ATOM      1  C   UNL     1      -1.134  -4.211   2.489  0.00  0.00    +0.234 C 
ATOM      2  O   UNL     1      -0.161  -3.498   2.618  0.00  0.00    -0.274 OA
ATOM      3  N   UNL     1      -1.172  -5.414   3.096  0.00  0.00    -0.292 N 
ENDROOT
BRANCH   3   4
ATOM      4  C   UNL     1      -0.088  -5.815   3.996  0.00  0.00    +0.099 C 
ATOM      5  C   UNL     1       1.242  -5.819   3.225  0.00  0.00    +0.046 C 
ATOM      6  C   UNL     1       2.400  -5.936   4.256  0.00  0.00    +0.168 C 
ATOM      7  S   UNL     1       1.785  -4.814   5.582  0.00  0.00    -0.029 S 
ATOM      8  O   UNL     1       2.304  -3.510   5.361  0.00  0.00    -0.174 OA
ATOM      9  O   UNL     1       1.980  -5.439   6.844  0.00  0.00    -0.174 OA
ATOM     10  C   UNL     1      -0.008  -4.820   5.179  0.00  0.00    +0.188 C 
ENDBRANCH   3   4
BRANCH   3  11
ATOM     11  C   UNL     1      -2.298  -6.320   2.855  0.00  0.00    +0.076 C 
ATOM     12  C   UNL     1      -3.055  -6.584   4.173  0.00  0.00    +0.022 C 
ATOM     13  C   UNL     1      -3.470  -8.074   4.080  0.00  0.00    +0.002 C 
ATOM     14  C   UNL     1      -2.242  -8.729   3.401  0.00  0.00    +0.002 C 
ATOM     15  C   UNL     1      -1.780  -7.684   2.364  0.00  0.00    +0.022 C 
ENDBRANCH   3  11
BRANCH   1  16
ATOM     16  C   UNL     1      -2.299  -3.753   1.651  0.00  0.00    +0.213 C 
BRANCH  16  20
ATOM     17  C   UNL     1      -1.431  -0.535   0.011  0.00  0.00    +0.164 C 
ATOM     18  C   UNL     1      -1.439  -2.050   0.056  0.00  0.00    +0.244 C 
ATOM     19  O   UNL     1      -0.976  -2.809  -0.768  0.00  0.00    -0.273 OA
ATOM     20  N   UNL     1      -2.067  -2.377   1.203  0.00  0.00    -0.216 N 
ATOM     21  C   UNL     1      -2.453  -1.291   1.881  0.00  0.00    +0.310 C 
ATOM     22  O   UNL     1      -3.038  -1.331   2.946  0.00  0.00    -0.252 OA
ATOM     23  N   UNL     1      -2.122  -0.144   1.252  0.00  0.00    -0.287 N 
ATOM     24  H   UNL     1      -2.300   0.759   1.556  0.00  0.00    +0.151 HD
BRANCH  17  26
ATOM     25  C   UNL     1      -0.019   1.526   0.011  0.00  0.00    +0.009 C 
ATOM     26  C   UNL     1       0.004  -0.004   0.003  0.00  0.00    +0.012 C 
ATOM     27  C   UNL     1       0.741  -0.510   1.244  0.00  0.00    +0.009 C 
ENDBRANCH  17  26
ENDBRANCH  16  20
ENDBRANCH   1  16
TORSDOF 5
