REMARK  Name = ZINC12891571
REMARK  11 active torsions:
REMARK  status: ('A' for Active; 'I' for Inactive)
REMARK    1  A    between atoms: C_1  and  C_2
REMARK    2  A    between atoms: C_3  and  C_25
REMARK    3  A    between atoms: C_7  and  N_16
REMARK    4  A    between atoms: C_9  and  C_11
REMARK    5  A    between atoms: C_11  and  N_55
REMARK    6  A    between atoms: N_16  and  C_17
REMARK    7  A    between atoms: C_17  and  C_18
REMARK    8  A    between atoms: N_20  and  C_21
REMARK    9  A    between atoms: C_21  and  C_22
REMARK   10  A    between atoms: C_21  and  C_23
REMARK   11  A    between atoms: C_21  and  C_24
REMARK                            x       y       z     vdW  Elec       q    Type
REMARK                         _______ _______ _______ _____ _____    ______ ____
ROOT
ATOM      1  C   UNL     1      -1.345  -0.660   0.546  0.00  0.00    +0.045 C 
ATOM      2  C   UNL     1      -0.051   0.109   0.485  0.00  0.00    -0.028 A 
ATOM      3  C   UNL     1       1.116  -0.506   0.732  0.00  0.00    -0.008 A 
ATOM      4  S   UNL     1       2.321   0.795   0.541  0.00  0.00    -0.074 S 
ATOM      5  C   UNL     1       1.225   2.129   0.136  0.00  0.00    +0.114 A 
ATOM      6  C   UNL     1      -0.051   1.525   0.160  0.00  0.00    +0.051 A 
ATOM      7  C   UNL     1      -1.141   2.391  -0.132  0.00  0.00    +0.131 A 
ATOM      8  N   UNL     1      -0.898   3.662  -0.408  0.00  0.00    -0.219 NA
ATOM      9  C   UNL     1       0.325   4.160  -0.412  0.00  0.00    +0.116 A 
ATOM     10  N   UNL     1       1.375   3.408  -0.144  0.00  0.00    -0.227 NA
ATOM     11  C   UNL     1       1.351  -1.952   1.085  0.00  0.00    +0.052 C 
ENDROOT
BRANCH   7  12
ATOM     12  N   UNL     1      -2.438   1.909  -0.131  0.00  0.00    -0.320 N 
ATOM     13  H   UNL     1      -2.602   0.959  -0.020  0.00  0.00    +0.148 HD
BRANCH  12  14
ATOM     14  C   UNL     1      -3.562   2.833  -0.299  0.00  0.00    +0.198 C 
BRANCH  14  15
ATOM     15  C   UNL     1      -4.856   2.061  -0.263  0.00  0.00    +0.231 C 
ATOM     16  O   UNL     1      -4.840   0.857  -0.111  0.00  0.00    -0.274 OA
ATOM     17  N   UNL     1      -6.031   2.708  -0.398  0.00  0.00    -0.309 N 
ATOM     18  H   UNL     1      -6.043   3.670  -0.519  0.00  0.00    +0.149 HD
BRANCH  17  19
ATOM     19  C   UNL     1      -7.288   1.957  -0.362  0.00  0.00    +0.026 C 
ATOM     20  C   UNL     1      -7.415   1.238   0.982  0.00  0.00    +0.031 C 
ATOM     21  C   UNL     1      -8.463   2.922  -0.537  0.00  0.00    +0.031 C 
ATOM     22  C   UNL     1      -7.300   0.928  -1.495  0.00  0.00    +0.031 C 
ENDBRANCH  17  19
ENDBRANCH  14  15
ENDBRANCH  12  14
ENDBRANCH   7  12
BRANCH   9  23
ATOM     23  C   UNL     1       0.525   5.620  -0.729  0.00  0.00    -0.001 C 
BRANCH  23  28
ATOM     24  C   UNL     1      -0.390   5.135  -2.933  0.00  0.00    -0.078 C 
ATOM     25  C   UNL     1      -0.331   5.833  -4.315  0.00  0.00    -0.020 C 
ATOM     26  C   UNL     1       0.021   7.294  -3.949  0.00  0.00    -0.020 C 
ATOM     27  C   UNL     1       0.672   7.214  -2.556  0.00  0.00    -0.078 C 
ATOM     28  N   UNL     1       0.704   5.794  -2.202  0.00  0.00    +0.384 N 
ATOM     29  H   UNL     1       1.604   5.387  -2.482  0.00  0.00    -0.081 HD
ENDBRANCH  23  28
ENDBRANCH   9  23
TORSDOF 6
