REMARK  Name = ZINC62356970
REMARK  6 active torsions:
REMARK  status: ('A' for Active; 'I' for Inactive)
REMARK    1  A    between atoms: C_1  and  C_2
REMARK    2  A    between atoms: N_5  and  C_8
REMARK    3  A    between atoms: C_8  and  C_10
REMARK    4  A    between atoms: C_8  and  C_27
REMARK    5  A    between atoms: C_10  and  N_11
REMARK    6  A    between atoms: C_12  and  C_14
REMARK                            x       y       z     vdW  Elec       q    Type
REMARK                         _______ _______ _______ _____ _____    ______ ____
ROOT
ATOM      1  N   UNL     1       1.546  -3.298  -2.394  0.00  0.00    -0.312 N 
ATOM      2  C   UNL     1       2.020  -3.079  -3.637  0.00  0.00    +0.249 C 
ATOM      3  O   UNL     1       3.105  -3.523  -3.961  0.00  0.00    -0.270 OA
ATOM      4  H   UNL     1       0.650  -3.010  -2.159  0.00  0.00    +0.149 HD
ENDROOT
BRANCH   2   5
ATOM      5  C   UNL     1       1.224  -2.305  -4.603  0.00  0.00    +0.101 A 
ATOM      6  C   UNL     1       1.629  -2.202  -5.922  0.00  0.00    +0.028 A 
ATOM      7  C   UNL     1       0.843  -1.451  -6.827  0.00  0.00    -0.001 A 
ATOM      8  C   UNL     1       1.232  -1.331  -8.171  0.00  0.00    +0.013 A 
ATOM      9  C   UNL     1       0.469  -0.606  -9.037  0.00  0.00    +0.039 A 
ATOM     10  C   UNL     1      -0.696   0.020  -8.600  0.00  0.00    +0.125 A 
ATOM     11  C   UNL     1      -1.097  -0.084  -7.283  0.00  0.00    +0.064 A 
ATOM     12  C   UNL     1      -0.335  -0.820  -6.381  0.00  0.00    +0.052 A 
ATOM     13  N   UNL     1      -0.733  -0.926  -5.065  0.00  0.00    -0.321 N 
ATOM     14  H   UNL     1      -1.548  -0.486  -4.775  0.00  0.00    +0.169 HD
ATOM     15  C   UNL     1      -0.012  -1.638  -4.179  0.00  0.00    +0.261 A 
ATOM     16  O   UNL     1      -0.383  -1.723  -3.023  0.00  0.00    -0.267 OA
ATOM     17  F   UNL     1      -1.439   0.735  -9.472  0.00  0.00    -0.205 F 
ENDBRANCH   2   5
BRANCH   1  18
ATOM     18  C   UNL     1       2.385  -3.969  -1.398  0.00  0.00    +0.097 C 
BRANCH  18  19
ATOM     19  C   UNL     1       1.670  -3.968  -0.045  0.00  0.00    +0.016 C 
BRANCH  19  24
ATOM     20  C   UNL     1       1.151   1.202   2.306  0.00  0.00    +0.007 C 
ATOM     21  C   UNL     1       1.574  -0.240   2.017  0.00  0.00    -0.018 C 
ATOM     22  C   UNL     1       0.343  -1.151   2.049  0.00  0.00    -0.015 C 
ATOM     23  C   UNL     1       0.760  -2.576   1.681  0.00  0.00    -0.078 C 
ATOM     24  N   UNL     1       1.343  -2.587   0.334  0.00  0.00    +0.387 N 
ATOM     25  C   UNL     1       2.564  -1.773   0.314  0.00  0.00    -0.078 C 
ATOM     26  C   UNL     1       2.217  -0.317   0.629  0.00  0.00    -0.015 C 
ATOM     27  H   UNL     1       0.677  -2.209  -0.323  0.00  0.00    -0.081 HD
ENDBRANCH  19  24
BRANCH  19  28
ATOM     28  C   UNL     1       2.571  -4.576   0.999  0.00  0.00    +0.093 A 
ATOM     29  C   UNL     1       2.399  -5.775   1.583  0.00  0.00    +0.043 A 
ATOM     30  C   UNL     1       3.468  -5.944   2.494  0.00  0.00    +0.041 A 
ATOM     31  C   UNL     1       4.228  -4.837   2.411  0.00  0.00    +0.195 A 
ATOM     32  O   UNL     1       3.683  -4.015   1.500  0.00  0.00    -0.469 OA
ENDBRANCH  19  28
ENDBRANCH  18  19
ENDBRANCH   1  18
TORSDOF 5
