REMARK  Name = ZINC27243817
REMARK  8 active torsions:
REMARK  status: ('A' for Active; 'I' for Inactive)
REMARK    1  A    between atoms: C_1  and  C_2
REMARK    2  A    between atoms: C_3  and  C_25
REMARK    3  A    between atoms: C_7  and  N_8
REMARK    4  A    between atoms: C_9  and  C_11
REMARK    5  A    between atoms: C_11  and  C_13
REMARK    6  A    between atoms: C_11  and  N_14
REMARK    7  A    between atoms: N_14  and  S_15
REMARK    8  A    between atoms: S_15  and  C_18
REMARK                            x       y       z     vdW  Elec       q    Type
REMARK                         _______ _______ _______ _____ _____    ______ ____
ROOT
ATOM      1  N   UNL     1      -5.900   1.718   0.647  0.00  0.00    -0.284 N 
ATOM      2  C   UNL     1      -7.084   1.128   0.905  0.00  0.00    +0.236 C 
ATOM      3  O   UNL     1      -7.159  -0.081   0.963  0.00  0.00    -0.274 OA
ATOM      4  H   UNL     1      -5.813   2.815   0.679  0.00  0.00    +0.155 HD
ENDROOT
BRANCH   1  11
ATOM      5  C   UNL     1      -3.348   2.631   1.509  0.00  0.00    +0.046 C 
ATOM      6  C   UNL     1      -3.518   1.345   0.741  0.00  0.00    -0.017 A 
ATOM      7  C   UNL     1      -2.405   0.565   0.427  0.00  0.00    +0.041 A 
ATOM      8  C   UNL     1      -2.571  -0.627  -0.279  0.00  0.00    +0.013 A 
ATOM      9  C   UNL     1      -3.833  -1.028  -0.669  0.00  0.00    +0.003 A 
ATOM     10  C   UNL     1      -4.935  -0.253  -0.363  0.00  0.00    +0.023 A 
ATOM     11  C   UNL     1      -4.780   0.937   0.340  0.00  0.00    +0.037 A 
BRANCH   7  12
ATOM     12  C   UNL     1      -1.055   0.997   0.846  0.00  0.00    +0.242 C 
ATOM     13  O   UNL     1      -0.897   2.089   1.357  0.00  0.00    -0.270 OA
ATOM     14  N   UNL     1       0.002   0.181   0.662  0.00  0.00    -0.325 N 
ATOM     15  H   UNL     1       1.006   0.502   0.974  0.00  0.00    +0.145 HD
ATOM     16  H   UNL     1      -0.141  -0.807   0.200  0.00  0.00    +0.145 HD
ENDBRANCH   7  12
ENDBRANCH   1  11
BRANCH   2  17
ATOM     17  C   UNL     1      -8.314   1.971   1.123  0.00  0.00    +0.159 C 
ATOM     18  C   UNL     1      -8.094   2.896   2.321  0.00  0.00    +0.035 C 
BRANCH  17  19
ATOM     19  N   UNL     1      -9.463   1.100   1.383  0.00  0.00    -0.178 NA
ATOM     20  H   UNL     1      -9.306   0.093   1.798  0.00  0.00    +0.149 HD
BRANCH  19  21
ATOM     21  S   UNL     1     -10.965   1.523   0.831  0.00  0.00    +0.059 S 
ATOM     22  O   UNL     1     -11.848   0.478   1.214  0.00  0.00    -0.153 OA
ATOM     23  O   UNL     1     -11.173   2.875   1.214  0.00  0.00    -0.153 OA
BRANCH  21  24
ATOM     24  C   UNL     1     -10.897   1.504  -0.930  0.00  0.00    +0.105 A 
ATOM     25  C   UNL     1     -10.551   2.650  -1.621  0.00  0.00    +0.030 A 
ATOM     26  C   UNL     1     -10.492   2.635  -3.001  0.00  0.00    +0.022 A 
ATOM     27  C   UNL     1     -10.790   1.474  -3.693  0.00  0.00    +0.041 A 
ATOM     28  C   UNL     1     -11.141   0.328  -3.002  0.00  0.00    +0.022 A 
ATOM     29  C   UNL     1     -11.195   0.344  -1.621  0.00  0.00    +0.030 A 
ATOM     30 CL   UNL     1     -10.722   1.455  -5.428  0.00  0.00    -0.084 Cl
ENDBRANCH  21  24
ENDBRANCH  19  21
ENDBRANCH  17  19
ENDBRANCH   2  17
TORSDOF 6
