REMARK  Name = ZINC37127421
REMARK  4 active torsions:
REMARK  status: ('A' for Active; 'I' for Inactive)
REMARK    1  A    between atoms: C_1  and  C_2
REMARK    2  A    between atoms: C_7  and  N_10
REMARK    3  A    between atoms: N_10  and  C_11
REMARK    4  A    between atoms: C_15  and  N_17
REMARK                            x       y       z     vdW  Elec       q    Type
REMARK                         _______ _______ _______ _____ _____    ______ ____
ROOT
ATOM      1  C   UNL     1       2.055  -3.771   0.017  0.00  0.00    +0.029 A 
ATOM      2  C   UNL     1       2.003  -4.578   1.147  0.00  0.00    +0.023 A 
ATOM      3  C   UNL     1       2.603  -5.823   1.137  0.00  0.00    +0.004 A 
ATOM      4  C   UNL     1       3.255  -6.269   0.004  0.00  0.00    +0.028 A 
ATOM      5  C   UNL     1       3.310  -5.468  -1.129  0.00  0.00    +0.067 A 
ATOM      6  C   UNL     1       2.705  -4.220  -1.124  0.00  0.00    +0.050 A 
ENDROOT
BRANCH   5   7
ATOM      7  N   UNL     1       3.972  -5.922  -2.278  0.00  0.00    -0.240 N 
ATOM      8  C   UNL     1       4.510  -7.150  -2.453  0.00  0.00    +0.114 A 
ATOM      9  C   UNL     1       5.053  -7.189  -3.692  0.00  0.00    +0.041 A 
ATOM     10  C   UNL     1       4.841  -5.944  -4.295  0.00  0.00    +0.135 A 
ATOM     11  N   UNL     1       4.189  -5.186  -3.450  0.00  0.00    -0.175 NA
ENDBRANCH   5   7
BRANCH   1  12
ATOM     12  N   UNL     1       1.448  -2.513   0.028  0.00  0.00    -0.341 N 
ATOM     13  H   UNL     1       1.482  -1.952  -0.763  0.00  0.00    +0.146 HD
BRANCH  12  19
ATOM     14  C   UNL     1      -0.019   1.526   0.010  0.00  0.00    +0.007 C 
ATOM     15  C   UNL     1       0.002  -0.004   0.002  0.00  0.00    -0.012 C 
ATOM     16  C   UNL     1      -1.433  -0.534   0.013  0.00  0.00    +0.003 C 
ATOM     17  C   UNL     1      -1.413  -2.063   0.004  0.00  0.00    +0.002 C 
ATOM     18  C   UNL     1      -0.673  -2.570   1.244  0.00  0.00    +0.022 C 
ATOM     19  C   UNL     1       0.763  -2.041   1.233  0.00  0.00    +0.071 C 
ATOM     20  C   UNL     1       0.742  -0.511   1.242  0.00  0.00    +0.025 C 
ENDBRANCH  12  19
ENDBRANCH   1  12
TORSDOF 3
