REMARK  Name = ZINC54554983
REMARK  7 active torsions:
REMARK  status: ('A' for Active; 'I' for Inactive)
REMARK    1  A    between atoms: C_1  and  C_2
REMARK    2  A    between atoms: C_2  and  C_3
REMARK    3  A    between atoms: C_2  and  C_4
REMARK    4  A    between atoms: C_7  and  N_10
REMARK    5  A    between atoms: N_10  and  C_11
REMARK    6  A    between atoms: C_14  and  S_17
REMARK    7  A    between atoms: S_17  and  C_20
REMARK                            x       y       z     vdW  Elec       q    Type
REMARK                         _______ _______ _______ _____ _____    ______ ____
ROOT
ATOM      1  N   UNL     1      -2.902  -2.559  -2.429  0.00  0.00    -0.340 N 
ATOM      2  H   UNL     1      -1.958  -2.777  -2.396  0.00  0.00    +0.146 HD
ENDROOT
BRANCH   1   6
ATOM      3  C   UNL     1      -1.433  -0.534   0.013  0.00  0.00    -0.008 C 
ATOM      4  C   UNL     1      -1.413  -2.063   0.004  0.00  0.00    +0.005 C 
ATOM      5  C   UNL     1      -2.848  -2.593   0.015  0.00  0.00    +0.022 C 
ATOM      6  C   UNL     1      -3.588  -2.086  -1.224  0.00  0.00    +0.070 C 
ATOM      7  C   UNL     1      -3.609  -0.556  -1.216  0.00  0.00    +0.022 C 
ATOM      8  C   UNL     1      -2.173  -0.027  -1.227  0.00  0.00    +0.005 C 
BRANCH   3  10
ATOM      9  C   UNL     1      -0.019   1.526   0.010  0.00  0.00    +0.007 C 
ATOM     10  C   UNL     1       0.002  -0.004   0.002  0.00  0.00    -0.014 C 
ATOM     11  C   UNL     1       0.742  -0.511   1.242  0.00  0.00    +0.007 C 
ENDBRANCH   3  10
ENDBRANCH   1   6
BRANCH   1  12
ATOM     12  C   UNL     1      -3.609  -2.695  -3.627  0.00  0.00    +0.046 A 
ATOM     13  C   UNL     1      -2.968  -3.149  -4.778  0.00  0.00    +0.028 A 
ATOM     14  C   UNL     1      -3.711  -3.268  -5.941  0.00  0.00    +0.049 A 
ATOM     15  C   UNL     1      -5.053  -2.934  -5.922  0.00  0.00    +0.176 A 
ATOM     16  N   UNL     1      -5.630  -2.508  -4.816  0.00  0.00    -0.235 NA
ATOM     17  C   UNL     1      -4.962  -2.386  -3.686  0.00  0.00    +0.135 A 
BRANCH  15  18
ATOM     18  S   UNL     1      -6.005  -3.082  -7.397  0.00  0.00    +0.011 S 
ATOM     19  O   UNL     1      -7.061  -2.144  -7.242  0.00  0.00    -0.168 OA
ATOM     20  O   UNL     1      -5.063  -2.944  -8.452  0.00  0.00    -0.168 OA
ATOM     21  C   UNL     1      -6.661  -4.773  -7.362  0.00  0.00    +0.202 C 
ENDBRANCH  15  18
ENDBRANCH   1  12
TORSDOF 4
