REMARK  Name = ZINC09441894
REMARK  6 active torsions:
REMARK  status: ('A' for Active; 'I' for Inactive)
REMARK    1  A    between atoms: N_12  and  C_16
REMARK    2  A    between atoms: C_16  and  C_17
REMARK    3  A    between atoms: C_17  and  O_19
REMARK    4  A    between atoms: O_19  and  C_20
REMARK    5  A    between atoms: C_20  and  C_21
REMARK    6  A    between atoms: C_21  and  C_23
REMARK                            x       y       z     vdW  Elec       q    Type
REMARK                         _______ _______ _______ _____ _____    ______ ____
ROOT
ATOM      1  C   UNL     1       1.209  -0.678  -0.013  0.00  0.00    +0.000 A 
ATOM      2  C   UNL     1       0.002  -0.004   0.002  0.00  0.00    +0.000 A 
ATOM      3  C   UNL     1      -0.017   1.376   0.010  0.00  0.00    +0.006 A 
ATOM      4  C   UNL     1       1.169   2.092   0.002  0.00  0.00    -0.012 A 
ATOM      5  C   UNL     1       2.378   1.417  -0.009  0.00  0.00    -0.042 A 
ATOM      6  C   UNL     1       2.394   0.032  -0.018  0.00  0.00    +0.004 A 
ATOM      7  C   UNL     1       3.521   2.410  -0.004  0.00  0.00    +0.038 C 
ATOM      8  C   UNL     1       2.889   3.756  -0.427  0.00  0.00    +0.045 C 
ATOM      9  C   UNL     1       1.427   3.575  -0.001  0.00  0.00    +0.138 C 
ATOM     10  C   UNL     1       1.171   4.187   1.351  0.00  0.00    +0.252 C 
ATOM     11  O   UNL     1       1.707   3.903   2.401  0.00  0.00    -0.272 OA
ATOM     12  N   UNL     1       0.217   5.120   1.145  0.00  0.00    -0.213 N 
ATOM     13  C   UNL     1      -0.153   5.170  -0.142  0.00  0.00    +0.310 C 
ATOM     14  O   UNL     1      -0.997   5.930  -0.574  0.00  0.00    -0.252 OA
ATOM     15  N   UNL     1       0.517   4.282  -0.904  0.00  0.00    -0.281 N 
ATOM     16  H   UNL     1       0.416   4.139  -1.858  0.00  0.00    +0.152 HD
ENDROOT
BRANCH  12  17
ATOM     17  C   UNL     1      -0.344   5.971   2.196  0.00  0.00    +0.238 C 
BRANCH  17  18
ATOM     18  C   UNL     1      -1.542   5.291   2.808  0.00  0.00    +0.326 C 
ATOM     19  O   UNL     1      -1.891   4.206   2.406  0.00  0.00    -0.249 OA
BRANCH  18  20
ATOM     20  O   UNL     1      -2.221   5.889   3.799  0.00  0.00    -0.455 OA
BRANCH  20  21
ATOM     21  C   UNL     1      -3.364   5.176   4.340  0.00  0.00    +0.312 C 
BRANCH  21  22
ATOM     22  C   UNL     1      -3.996   5.996   5.435  0.00  0.00    +0.207 C 
ATOM     23  O   UNL     1      -3.529   7.078   5.730  0.00  0.00    -0.288 OA
BRANCH  22  24
ATOM     24  C   UNL     1      -5.131   5.508   6.116  0.00  0.00    +0.059 A 
ATOM     25  C   UNL     1      -5.855   6.096   7.149  0.00  0.00    +0.020 A 
ATOM     26  C   UNL     1      -6.929   5.399   7.633  0.00  0.00    +0.028 A 
ATOM     27  C   UNL     1      -7.226   4.180   7.099  0.00  0.00    +0.079 A 
ATOM     28  S   UNL     1      -6.006   3.970   5.885  0.00  0.00    -0.074 S 
ATOM     29 CL   UNL     1      -8.515   3.100   7.530  0.00  0.00    -0.076 Cl
ENDBRANCH  22  24
ENDBRANCH  21  22
ENDBRANCH  20  21
ENDBRANCH  18  20
ENDBRANCH  17  18
ENDBRANCH  12  17
TORSDOF 6
