REMARK  Name = ZINC11883204
REMARK  10 active torsions:
REMARK  status: ('A' for Active; 'I' for Inactive)
REMARK    1  A    between atoms: C_1  and  C_2
REMARK    2  A    between atoms: C_2  and  C_3
REMARK    3  A    between atoms: C_2  and  N_4
REMARK    4  A    between atoms: N_4  and  C_5
REMARK    5  A    between atoms: N_4  and  S_12
REMARK    6  A    between atoms: C_5  and  C_6
REMARK    7  A    between atoms: S_12  and  C_15
REMARK    8  A    between atoms: C_18  and  C_21
REMARK    9  A    between atoms: C_24  and  C_26
REMARK   10  A    between atoms: C_27  and  N_35
REMARK                            x       y       z     vdW  Elec       q    Type
REMARK                         _______ _______ _______ _____ _____    ______ ____
ROOT
ATOM      1  C   UNL     1      -0.360  10.377   0.268  0.00  0.00    +0.106 A 
ATOM      2  C   UNL     1       1.002  10.136   0.264  0.00  0.00    +0.029 A 
ATOM      3  C   UNL     1       1.478   8.842   0.225  0.00  0.00    +0.015 A 
ATOM      4  C   UNL     1       0.580   7.773   0.191  0.00  0.00    +0.037 A 
ATOM      5  C   UNL     1      -0.794   8.023   0.190  0.00  0.00    +0.015 A 
ATOM      6  C   UNL     1      -1.255   9.322   0.234  0.00  0.00    +0.029 A 
ENDROOT
BRANCH   4   7
ATOM      7  C   UNL     1       1.082   6.383   0.148  0.00  0.00    +0.251 C 
ATOM      8  O   UNL     1       2.278   6.169   0.143  0.00  0.00    -0.270 OA
ATOM      9  N   UNL     1       0.212   5.354   0.115  0.00  0.00    -0.246 N 
ATOM     10  C   UNL     1       0.670   4.087   0.076  0.00  0.00    +0.288 C 
ATOM     11  O   UNL     1       1.869   3.872   0.071  0.00  0.00    -0.266 OA
ATOM     12  H   UNL     1      -0.742   5.525   0.119  0.00  0.00    +0.158 HD
BRANCH  10  13
ATOM     13  C   UNL     1      -0.242   3.006   0.041  0.00  0.00    +0.211 A 
ATOM     14  C   UNL     1       0.102   1.670   0.000  0.00  0.00    +0.083 A 
ATOM     15  C   UNL     1      -1.167   0.932  -0.018  0.00  0.00    +0.042 A 
ATOM     16  C   UNL     1      -1.499  -0.423  -0.052  0.00  0.00    +0.013 A 
ATOM     17  C   UNL     1      -2.813  -0.799  -0.061  0.00  0.00    +0.001 A 
ATOM     18  C   UNL     1      -3.817   0.158  -0.035  0.00  0.00    +0.004 A 
ATOM     19  C   UNL     1      -3.509   1.501  -0.000  0.00  0.00    +0.047 A 
ATOM     20  C   UNL     1      -2.179   1.907   0.009  0.00  0.00    +0.138 A 
ATOM     21  O   UNL     1      -1.591   3.119   0.039  0.00  0.00    -0.448 OA
BRANCH  14  22
ATOM     22  N   UNL     1       1.380   1.137  -0.015  0.00  0.00    -0.354 N 
ATOM     23  H   UNL     1       1.504   0.175  -0.040  0.00  0.00    +0.142 HD
ATOM     24  H   UNL     1       2.151   1.725  -0.004  0.00  0.00    +0.142 HD
ENDBRANCH  14  22
ENDBRANCH  10  13
ENDBRANCH   4   7
BRANCH   1  25
ATOM     25  S   UNL     1      -0.958  12.033   0.318  0.00  0.00    +0.061 S 
ATOM     26  O   UNL     1      -2.269  11.976   0.865  0.00  0.00    -0.153 OA
ATOM     27  O   UNL     1       0.074  12.820   0.896  0.00  0.00    -0.153 OA
BRANCH  25  28
ATOM     28  N   UNL     1      -1.121  12.542  -1.249  0.00  0.00    -0.170 NA
BRANCH  28  30
ATOM     29  C   UNL     1       0.293  12.477  -3.244  0.00  0.00    +0.025 C 
ATOM     30  C   UNL     1       0.001  13.198  -1.926  0.00  0.00    +0.074 C 
ATOM     31  C   UNL     1      -0.359  14.657  -2.212  0.00  0.00    +0.025 C 
ENDBRANCH  28  30
BRANCH  28  32
ATOM     32  C   UNL     1      -2.386  12.337  -1.958  0.00  0.00    +0.144 C 
BRANCH  32  33
ATOM     33  C   UNL     1      -3.246  13.566  -1.817  0.00  0.00    -0.032 A 
ATOM     34  C   UNL     1      -4.021  13.741  -0.685  0.00  0.00    +0.005 A 
ATOM     35  C   UNL     1      -4.806  14.871  -0.553  0.00  0.00    +0.000 A 
ATOM     36  C   UNL     1      -4.825  15.821  -1.557  0.00  0.00    +0.000 A 
ATOM     37  C   UNL     1      -4.054  15.644  -2.691  0.00  0.00    +0.000 A 
ATOM     38  C   UNL     1      -3.265  14.517  -2.821  0.00  0.00    +0.005 A 
ENDBRANCH  32  33
ENDBRANCH  28  32
ENDBRANCH  25  28
ENDBRANCH   1  25
TORSDOF 8
