REMARK  Name = ZINC49059968
REMARK  7 active torsions:
REMARK  status: ('A' for Active; 'I' for Inactive)
REMARK    1  A    between atoms: C_1  and  C_2
REMARK    2  A    between atoms: C_5  and  C_8
REMARK    3  A    between atoms: N_13  and  C_15
REMARK    4  A    between atoms: C_15  and  C_17
REMARK    5  A    between atoms: C_15  and  C_18
REMARK    6  A    between atoms: C_22  and  C_29
REMARK    7  A    between atoms: C_25  and  C_28
REMARK                            x       y       z     vdW  Elec       q    Type
REMARK                         _______ _______ _______ _____ _____    ______ ____
ROOT
ATOM      1  C   UNL     1      -0.243  -4.031   0.264  0.00  0.00    +0.092 A 
ATOM      2  C   UNL     1      -0.236  -4.598  -1.032  0.00  0.00    +0.035 A 
ATOM      3  C   UNL     1      -0.114  -5.952  -1.143  0.00  0.00    +0.074 A 
ATOM      4  C   UNL     1      -0.003  -6.705   0.046  0.00  0.00    +0.268 A 
ATOM      5  O   UNL     1       0.107  -7.920  -0.004  0.00  0.00    -0.266 OA
ATOM      6  N   UNL     1      -0.020  -6.074   1.235  0.00  0.00    -0.217 N 
ATOM      7  N   UNL     1      -0.130  -4.798   1.322  0.00  0.00    -0.168 NA
ENDROOT
BRANCH   1  12
ATOM      8  C   UNL     1      -0.748   1.671   0.896  0.00  0.00    +0.044 C 
ATOM      9  C   UNL     1      -0.615   0.179   0.731  0.00  0.00    -0.050 A 
ATOM     10  C   UNL     1      -0.613  -0.376  -0.536  0.00  0.00    +0.004 A 
ATOM     11  C   UNL     1      -0.492  -1.742  -0.694  0.00  0.00    +0.010 A 
ATOM     12  C   UNL     1      -0.372  -2.562   0.427  0.00  0.00    +0.002 A 
ATOM     13  C   UNL     1      -0.375  -1.997   1.700  0.00  0.00    +0.010 A 
ATOM     14  C   UNL     1      -0.491  -0.629   1.846  0.00  0.00    +0.004 A 
ENDBRANCH   1  12
BRANCH   6  15
ATOM     15  C   UNL     1       0.096  -6.865   2.463  0.00  0.00    +0.193 C 
ATOM     16  C   UNL     1      -1.149  -6.651   3.327  0.00  0.00    +0.043 C 
BRANCH  15  17
ATOM     17  C   UNL     1       1.319  -6.428   3.228  0.00  0.00    +0.240 C 
ATOM     18  O   UNL     1       1.844  -5.365   2.976  0.00  0.00    -0.273 OA
ATOM     19  N   UNL     1       1.828  -7.219   4.193  0.00  0.00    -0.299 N 
ATOM     20  C   UNL     1       1.272  -8.558   4.434  0.00  0.00    +0.111 C 
ATOM     21  C   UNL     1       2.410  -9.582   4.379  0.00  0.00    +0.004 C 
ATOM     22  C   UNL     1       3.509  -9.171   5.362  0.00  0.00    +0.009 C 
ATOM     23  C   UNL     1       4.069  -7.804   4.961  0.00  0.00    +0.004 C 
ATOM     24  C   UNL     1       2.954  -6.762   5.019  0.00  0.00    +0.111 C 
ATOM     25  C   UNL     1       5.191  -7.409   5.924  0.00  0.00    +0.009 C 
ATOM     26  C   UNL     1       2.984  -9.631   2.962  0.00  0.00    +0.009 C 
ENDBRANCH  15  17
ENDBRANCH   6  15
TORSDOF 3
