REMARK  Name = ZINC41472008
REMARK  3 active torsions:
REMARK  status: ('A' for Active; 'I' for Inactive)
REMARK    1  A    between atoms: C_1  and  C_2
REMARK    2  A    between atoms: C_8  and  N_10
REMARK    3  A    between atoms: N_15  and  C_20
REMARK                            x       y       z     vdW  Elec       q    Type
REMARK                         _______ _______ _______ _____ _____    ______ ____
ROOT
ATOM      1  N   UNL     1       0.056  -0.038   2.447  0.00  0.00    -0.325 N 
ATOM      2  C   UNL     1       0.755   0.096   3.631  0.00  0.00    +0.133 A 
ATOM      3  C   UNL     1       0.111   0.544   4.801  0.00  0.00    +0.079 A 
ATOM      4  C   UNL     1      -1.207   0.935   5.122  0.00  0.00    +0.148 A 
ATOM      5  N   UNL     1      -1.246   1.263   6.382  0.00  0.00    -0.172 NA
ATOM      6  N   UNL     1       0.025   1.107   6.950  0.00  0.00    -0.211 N 
ATOM      7  C   UNL     1       0.875   0.662   5.979  0.00  0.00    +0.168 A 
ATOM      8  N   UNL     1       2.169   0.347   5.939  0.00  0.00    -0.216 NA
ATOM      9  C   UNL     1       2.725  -0.066   4.822  0.00  0.00    +0.225 A 
ATOM     10  N   UNL     1       2.049  -0.198   3.695  0.00  0.00    -0.220 NA
ATOM     11  H   UNL     1      -0.888   0.180   2.413  0.00  0.00    +0.148 HD
ENDROOT
BRANCH   1  18
ATOM     12  C   UNL     1      -0.019   1.526   0.010  0.00  0.00    +0.009 C 
ATOM     13  C   UNL     1       0.002  -0.004   0.002  0.00  0.00    +0.006 C 
ATOM     14  C   UNL     1       0.718  -0.497  -1.257  0.00  0.00    +0.005 C 
ATOM     15  C   UNL     1       0.739  -2.027  -1.265  0.00  0.00    +0.000 C 
ATOM     16  C   UNL     1       1.479  -2.534  -0.026  0.00  0.00    +0.002 C 
ATOM     17  C   UNL     1       0.763  -2.041   1.233  0.00  0.00    +0.022 C 
ATOM     18  C   UNL     1       0.742  -0.511   1.242  0.00  0.00    +0.075 C 
ENDBRANCH   1  18
BRANCH   6  19
ATOM     19  C   UNL     1       0.366   1.365   8.285  0.00  0.00    +0.103 A 
ATOM     20  C   UNL     1       1.670   1.175   8.719  0.00  0.00    +0.031 A 
ATOM     21  C   UNL     1       2.003   1.430  10.035  0.00  0.00    +0.002 A 
ATOM     22  C   UNL     1       1.039   1.875  10.921  0.00  0.00    +0.003 A 
ATOM     23  C   UNL     1      -0.262   2.066  10.494  0.00  0.00    +0.040 A 
ATOM     24  C   UNL     1      -0.601   1.817   9.176  0.00  0.00    +0.149 A 
ATOM     25  F   UNL     1      -1.871   2.010   8.757  0.00  0.00    -0.203 F 
ENDBRANCH   6  19
TORSDOF 2
