REMARK  Name = ZINC04308853
REMARK  4 active torsions:
REMARK  status: ('A' for Active; 'I' for Inactive)
REMARK    1  A    between atoms: C_1  and  C_2
REMARK    2  A    between atoms: C_7  and  C_8
REMARK    3  A    between atoms: C_8  and  N_9
REMARK    4  A    between atoms: C_17  and  C_19
REMARK                            x       y       z     vdW  Elec       q    Type
REMARK                         _______ _______ _______ _____ _____    ______ ____
ROOT
ATOM      1  N   UNL     1      -2.784   2.927   1.147  0.00  0.00    -0.220 N 
ATOM      2  C   UNL     1      -1.841   2.140   1.706  0.00  0.00    +0.247 C 
ATOM      3  O   UNL     1      -1.652   1.947   2.888  0.00  0.00    -0.273 OA
ATOM      4  C   UNL     1      -1.070   1.549   0.547  0.00  0.00    +0.115 C 
ATOM      5  C   UNL     1      -1.192   0.029   0.548  0.00  0.00    +0.035 C 
ATOM      6  C   UNL     1      -0.543  -0.536   1.814  0.00  0.00    +0.003 C 
ATOM      7  C   UNL     1       0.930  -0.125   1.857  0.00  0.00    +0.000 C 
ATOM      8  C   UNL     1       1.036   1.401   1.878  0.00  0.00    +0.006 C 
ATOM      9  C   UNL     1       0.393   1.973   0.612  0.00  0.00    +0.018 C 
ATOM     10  C   UNL     1       0.480   3.501   0.641  0.00  0.00    +0.010 C 
ATOM     11  N   UNL     1      -1.719   2.118  -0.640  0.00  0.00    -0.285 N 
ATOM     12  C   UNL     1      -2.710   2.911  -0.190  0.00  0.00    +0.310 C 
ATOM     13  O   UNL     1      -3.454   3.542  -0.915  0.00  0.00    -0.252 OA
ATOM     14  H   UNL     1      -1.482   1.955  -1.567  0.00  0.00    +0.151 HD
ENDROOT
BRANCH   1  15
ATOM     15  C   UNL     1      -3.766   3.702   1.909  0.00  0.00    +0.153 C 
BRANCH  15  22
ATOM     16  C   UNL     1      -5.195   5.539   3.620  0.00  0.00    +0.044 C 
ATOM     17  C   UNL     1      -3.946   5.990   2.908  0.00  0.00    -0.046 A 
ATOM     18  C   UNL     1      -3.485   7.282   3.073  0.00  0.00    +0.003 A 
ATOM     19  C   UNL     1      -2.339   7.696   2.420  0.00  0.00    +0.000 A 
ATOM     20  C   UNL     1      -1.655   6.817   1.601  0.00  0.00    +0.000 A 
ATOM     21  C   UNL     1      -2.114   5.523   1.439  0.00  0.00    +0.005 A 
ATOM     22  C   UNL     1      -3.263   5.111   2.089  0.00  0.00    -0.027 A 
ENDBRANCH  15  22
ENDBRANCH   1  15
TORSDOF 2
