REMARK  Name = ZINC66839853
REMARK  5 active torsions:
REMARK  status: ('A' for Active; 'I' for Inactive)
REMARK    1  A    between atoms: C_1  and  C_2
REMARK    2  A    between atoms: C_11  and  C_14
REMARK    3  A    between atoms: N_16  and  N_17
REMARK    4  A    between atoms: C_18  and  C_20
REMARK    5  A    between atoms: C_20  and  C_21
REMARK                            x       y       z     vdW  Elec       q    Type
REMARK                         _______ _______ _______ _____ _____    ______ ____
ROOT
ATOM      1  C   UNL     1       2.882  -1.823   2.365  0.00  0.00    +0.264 C 
ATOM      2  O   UNL     1       3.019  -0.642   2.110  0.00  0.00    -0.269 OA
ATOM      3  N   UNL     1       3.890  -2.510   2.938  0.00  0.00    -0.230 N 
ATOM      4  H   UNL     1       3.781  -3.452   3.141  0.00  0.00    +0.173 HD
ENDROOT
BRANCH   1  14
ATOM      5  C   UNL     1      -0.019   1.526   0.010  0.00  0.00    +0.062 C 
ATOM      6  C   UNL     1       0.002  -0.004   0.002  0.00  0.00    +0.256 C 
ATOM      7  C   UNL     1      -1.413  -0.525   0.011  0.00  0.00    +0.258 C 
ATOM      8  O   UNL     1      -2.307   0.131  -0.481  0.00  0.00    -0.271 OA
ATOM      9  N   UNL     1      -1.680  -1.726   0.569  0.00  0.00    -0.280 N 
ATOM     10  C   UNL     1      -0.634  -2.447   1.163  0.00  0.00    +0.076 A 
ATOM     11  C   UNL     1      -0.780  -3.792   1.456  0.00  0.00    +0.027 A 
ATOM     12  C   UNL     1       0.261  -4.494   2.043  0.00  0.00    +0.003 A 
ATOM     13  C   UNL     1       1.448  -3.861   2.340  0.00  0.00    +0.017 A 
ATOM     14  C   UNL     1       1.612  -2.503   2.049  0.00  0.00    +0.082 A 
ATOM     15  C   UNL     1       0.562  -1.795   1.455  0.00  0.00    +0.155 A 
ATOM     16  O   UNL     1       0.695  -0.477   1.160  0.00  0.00    -0.477 OA
ATOM     17  H   UNL     1      -2.582  -2.084   0.560  0.00  0.00    +0.155 HD
ENDBRANCH   1  14
BRANCH   3  18
ATOM     18  N   UNL     1       5.096  -1.864   3.238  0.00  0.00    -0.234 N 
ATOM     19  C   UNL     1       6.105  -2.552   3.811  0.00  0.00    +0.233 C 
ATOM     20  O   UNL     1       5.968  -3.730   4.065  0.00  0.00    -0.274 OA
ATOM     21  H   UNL     1       5.206  -0.922   3.035  0.00  0.00    +0.173 HD
BRANCH  19  22
ATOM     22  C   UNL     1       7.402  -1.857   4.134  0.00  0.00    +0.135 C 
BRANCH  22  23
ATOM     23  C   UNL     1       8.356  -2.840   4.762  0.00  0.00    -0.003 A 
ATOM     24  C   UNL     1       8.441  -2.938   6.138  0.00  0.00    +0.007 A 
ATOM     25  C   UNL     1       9.315  -3.840   6.715  0.00  0.00    +0.000 A 
ATOM     26  C   UNL     1      10.106  -4.646   5.916  0.00  0.00    +0.003 A 
ATOM     27  C   UNL     1      10.022  -4.550   4.540  0.00  0.00    +0.038 A 
ATOM     28  C   UNL     1       9.143  -3.650   3.961  0.00  0.00    +0.127 A 
ATOM     29  F   UNL     1       9.057  -3.559   2.616  0.00  0.00    -0.205 F 
ENDBRANCH  22  23
ENDBRANCH  19  22
ENDBRANCH   3  18
TORSDOF 4
