REMARK  Name = ZINC08568085
REMARK  6 active torsions:
REMARK  status: ('A' for Active; 'I' for Inactive)
REMARK    1  A    between atoms: C_1  and  C_2
REMARK    2  A    between atoms: C_2  and  C_3
REMARK    3  A    between atoms: C_3  and  C_4
REMARK    4  A    between atoms: C_4  and  C_5
REMARK    5  A    between atoms: C_12  and  N_27
REMARK    6  A    between atoms: C_13  and  C_25
REMARK                            x       y       z     vdW  Elec       q    Type
REMARK                         _______ _______ _______ _____ _____    ______ ____
ROOT
ATOM      1  C   UNL     1       1.492  -2.540   2.454  0.00  0.00    +0.071 A 
ATOM      2  C   UNL     1       2.854  -2.788   2.545  0.00  0.00    +0.061 A 
ATOM      3  C   UNL     1       3.121  -3.227   3.814  0.00  0.00    +0.223 A 
ATOM      4  N   UNL     1       1.960  -3.250   4.487  0.00  0.00    -0.246 N 
ATOM      5  H   UNL     1       1.841  -3.519   5.411  0.00  0.00    +0.192 HD
ATOM      6  N   UNL     1       0.950  -2.810   3.618  0.00  0.00    -0.176 NA
ATOM      7  O   UNL     1       4.371  -3.556   4.224  0.00  0.00    -0.423 OA
ATOM      8  C   UNL     1       5.409  -3.195   3.442  0.00  0.00    +0.201 C 
ATOM      9  C   UNL     1       5.273  -2.759   2.168  0.00  0.00    +0.110 C 
ATOM     10  C   UNL     1       3.929  -2.638   1.505  0.00  0.00    +0.145 C 
ATOM     11  C   UNL     1       3.772  -3.645   0.412  0.00  0.00    -0.000 A 
ATOM     12  C   UNL     1       3.795  -5.023   0.427  0.00  0.00    +0.027 A 
ATOM     13  C   UNL     1       3.612  -5.671  -0.791  0.00  0.00    +0.041 A 
ATOM     14  C   UNL     1       3.416  -4.962  -1.960  0.00  0.00    +0.022 A 
ATOM     15  C   UNL     1       3.392  -3.577  -1.982  0.00  0.00    +0.025 A 
ATOM     16  C   UNL     1       3.575  -2.915  -0.767  0.00  0.00    +0.038 A 
ATOM     17  N   UNL     1       3.599  -1.557  -0.501  0.00  0.00    -0.284 N 
ATOM     18  C   UNL     1       3.803  -1.301   0.809  0.00  0.00    +0.238 C 
ATOM     19  O   UNL     1       3.872  -0.207   1.328  0.00  0.00    -0.274 OA
ATOM     20 CL   UNL     1       3.631  -7.407  -0.842  0.00  0.00    -0.084 Cl
ATOM     21  H   UNL     1       3.483  -0.870  -1.176  0.00  0.00    +0.155 HD
ENDROOT
BRANCH   8  22
ATOM     22  N   UNL     1       6.674  -3.275   3.969  0.00  0.00    -0.328 N 
ATOM     23  H   UNL     1       6.803  -3.584   4.879  0.00  0.00    +0.145 HD
ATOM     24  H   UNL     1       7.440  -3.022   3.430  0.00  0.00    +0.145 HD
ENDBRANCH   8  22
BRANCH   9  25
ATOM     25  C   UNL     1       6.446  -2.400   1.429  0.00  0.00    +0.102 C 
ATOM     26  N   UNL     1       7.376  -2.115   0.843  0.00  0.00    -0.191 NA
ENDBRANCH   9  25
BRANCH   1  27
ATOM     27  C   UNL     1       0.763  -2.041   1.233  0.00  0.00    +0.058 C 
BRANCH  27  28
ATOM     28  C   UNL     1       0.742  -0.511   1.242  0.00  0.00    +0.006 C 
BRANCH  28  30
ATOM     29  C   UNL     1      -0.019   1.526   0.010  0.00  0.00    +0.004 C 
ATOM     30  C   UNL     1       0.002  -0.004   0.002  0.00  0.00    -0.003 C 
ENDBRANCH  28  30
ENDBRANCH  27  28
ENDBRANCH   1  27
TORSDOF 5
