REMARK  Name = ZINC22305322
REMARK  6 active torsions:
REMARK  status: ('A' for Active; 'I' for Inactive)
REMARK    1  A    between atoms: C_1  and  C_2
REMARK    2  A    between atoms: C_3  and  C_18
REMARK    3  A    between atoms: C_4  and  C_11
REMARK    4  A    between atoms: N_9  and  C_10
REMARK    5  A    between atoms: N_20  and  C_21
REMARK    6  A    between atoms: C_25  and  N_27
REMARK                            x       y       z     vdW  Elec       q    Type
REMARK                         _______ _______ _______ _____ _____    ______ ____
ROOT
ATOM      1  C   UNL     1       0.323   0.844  -0.187  0.00  0.00    +0.061 C 
ATOM      2  C   UNL     1       0.084  -0.644  -0.179  0.00  0.00    +0.019 C 
ATOM      3  C   UNL     1      -1.177  -1.115  -0.275  0.00  0.00    +0.056 C 
ATOM      4  C   UNL     1      -1.372  -2.618  -0.264  0.00  0.00    +0.139 C 
ATOM      5  N   UNL     1      -0.161  -3.446  -0.148  0.00  0.00    -0.315 N 
ATOM      6  C   UNL     1       1.034  -2.828  -0.060  0.00  0.00    +0.137 C 
ATOM      7  S   UNL     1       2.451  -3.779   0.074  0.00  0.00    -0.018 S 
ATOM      8  N   UNL     1       1.148  -1.494  -0.081  0.00  0.00    -0.289 N 
ATOM      9  C   UNL     1       2.490  -0.914   0.014  0.00  0.00    +0.137 C 
ATOM     10  H   UNL     1      -0.221  -4.415  -0.135  0.00  0.00    +0.149 HD
ENDROOT
BRANCH   4  11
ATOM     11  C   UNL     1      -2.079  -3.004  -1.538  0.00  0.00    -0.020 A 
ATOM     12  C   UNL     1      -1.397  -2.980  -2.740  0.00  0.00    +0.006 A 
ATOM     13  C   UNL     1      -2.044  -3.334  -3.910  0.00  0.00    +0.003 A 
ATOM     14  C   UNL     1      -3.373  -3.712  -3.877  0.00  0.00    +0.038 A 
ATOM     15  C   UNL     1      -4.056  -3.736  -2.674  0.00  0.00    +0.124 A 
ATOM     16  C   UNL     1      -3.406  -3.387  -1.502  0.00  0.00    +0.044 A 
ATOM     17  F   UNL     1      -5.356  -4.105  -2.641  0.00  0.00    -0.205 F 
ENDBRANCH   4  11
BRANCH   3  18
ATOM     18  C   UNL     1      -2.281  -0.234  -0.382  0.00  0.00    +0.248 C 
ATOM     19  O   UNL     1      -3.017  -0.061   0.572  0.00  0.00    -0.270 OA
ATOM     20  N   UNL     1      -2.517   0.413  -1.541  0.00  0.00    -0.282 N 
ATOM     21  H   UNL     1      -1.993   0.202  -2.329  0.00  0.00    +0.155 HD
BRANCH  20  22
ATOM     22  C   UNL     1      -3.518   1.387  -1.607  0.00  0.00    +0.036 A 
ATOM     23  C   UNL     1      -3.804   2.167  -0.494  0.00  0.00    +0.023 A 
ATOM     24  C   UNL     1      -4.793   3.128  -0.562  0.00  0.00    +0.004 A 
ATOM     25  C   UNL     1      -5.500   3.313  -1.736  0.00  0.00    +0.033 A 
ATOM     26  C   UNL     1      -5.219   2.537  -2.846  0.00  0.00    +0.128 A 
ATOM     27  C   UNL     1      -4.226   1.579  -2.786  0.00  0.00    +0.056 A 
BRANCH  26  28
ATOM     28  N   UNL     1      -5.978   2.739  -4.100  0.00  0.00    +0.056 N 
ATOM     29  O   UNL     1      -6.843   3.581  -4.155  0.00  0.00    -0.126 OA
ATOM     30  O   UNL     1      -5.732   2.060  -5.071  0.00  0.00    -0.126 OA
ENDBRANCH  26  28
ENDBRANCH  20  22
ENDBRANCH   3  18
TORSDOF 4
