REMARK  Name = ZINC03903296
REMARK  9 active torsions:
REMARK  status: ('A' for Active; 'I' for Inactive)
REMARK    1  A    between atoms: C_1  and  C_2
REMARK    2  A    between atoms: C_2  and  C_3
REMARK    3  A    between atoms: C_2  and  C_4
REMARK    4  A    between atoms: C_2  and  C_5
REMARK    5  A    between atoms: C_12  and  N_26
REMARK    6  A    between atoms: C_13  and  C_24
REMARK    7  A    between atoms: C_14  and  C_16
REMARK    8  A    between atoms: C_19  and  S_22
REMARK    9  A    between atoms: S_22  and  C_23
REMARK                            x       y       z     vdW  Elec       q    Type
REMARK                         _______ _______ _______ _____ _____    ______ ____
ROOT
ATOM      1  C   UNL     1       0.912  -0.343  -1.938  0.00  0.00    +0.049 A 
ATOM      2  C   UNL     1       1.121  -1.667  -1.914  0.00  0.00    +0.050 A 
ATOM      3  C   UNL     1       1.991  -1.994  -2.977  0.00  0.00    +0.245 A 
ATOM      4  N   UNL     1       2.284  -0.895  -3.610  0.00  0.00    -0.135 NA
ATOM      5  N   UNL     1       1.612   0.164  -2.979  0.00  0.00    -0.277 N 
ATOM      6  H   UNL     1       1.646   1.097  -3.243  0.00  0.00    +0.189 HD
ATOM      7  O   UNL     1       2.396  -3.271  -3.212  0.00  0.00    -0.421 OA
ATOM      8  C   UNL     1       2.164  -4.183  -2.246  0.00  0.00    +0.201 C 
ATOM      9  C   UNL     1       1.346  -3.989  -1.191  0.00  0.00    +0.098 C 
ATOM     10  C   UNL     1       0.579  -2.710  -0.970  0.00  0.00    +0.101 C 
ENDROOT
BRANCH  10  11
ATOM     11  C   UNL     1      -0.884  -2.939  -1.251  0.00  0.00    -0.034 A 
ATOM     12  C   UNL     1      -1.314  -3.131  -2.551  0.00  0.00    +0.005 A 
ATOM     13  C   UNL     1      -2.653  -3.341  -2.813  0.00  0.00    +0.015 A 
ATOM     14  C   UNL     1      -3.569  -3.361  -1.768  0.00  0.00    +0.008 A 
ATOM     15  C   UNL     1      -3.133  -3.168  -0.463  0.00  0.00    +0.015 A 
ATOM     16  C   UNL     1      -1.792  -2.963  -0.208  0.00  0.00    +0.005 A 
BRANCH  14  17
ATOM     17  S   UNL     1      -5.279  -3.628  -2.098  0.00  0.00    -0.129 S 
ATOM     18  C   UNL     1      -6.057  -3.568  -0.460  0.00  0.00    +0.090 C 
ENDBRANCH  14  17
ENDBRANCH  10  11
BRANCH   1  20
ATOM     19  C   UNL     1       0.202   1.935  -1.263  0.00  0.00    +0.017 C 
ATOM     20  C   UNL     1       0.047   0.439  -0.983  0.00  0.00    +0.004 C 
ATOM     21  C   UNL     1       0.477   0.142   0.454  0.00  0.00    +0.017 C 
ATOM     22  C   UNL     1      -1.416   0.034  -1.172  0.00  0.00    +0.017 C 
ENDBRANCH   1  20
BRANCH   8  23
ATOM     23  N   UNL     1       2.806  -5.392  -2.343  0.00  0.00    -0.328 N 
ATOM     24  H   UNL     1       3.402  -5.567  -3.088  0.00  0.00    +0.145 HD
ATOM     25  H   UNL     1       2.664  -6.072  -1.666  0.00  0.00    +0.145 HD
ENDBRANCH   8  23
BRANCH   9  26
ATOM     26  C   UNL     1       1.198  -5.047  -0.237  0.00  0.00    +0.101 C 
ATOM     27  N   UNL     1       1.082  -5.886   0.519  0.00  0.00    -0.191 NA
ENDBRANCH   9  26
TORSDOF 5
