REMARK  Name = ZINC63406438
REMARK  9 active torsions:
REMARK  status: ('A' for Active; 'I' for Inactive)
REMARK    1  A    between atoms: C_1  and  C_2
REMARK    2  A    between atoms: N_5  and  C_8
REMARK    3  A    between atoms: C_8  and  C_9
REMARK    4  A    between atoms: C_9  and  C_10
REMARK    5  A    between atoms: C_10  and  C_11
REMARK    6  A    between atoms: C_11  and  N_12
REMARK    7  A    between atoms: N_15  and  C_16
REMARK    8  A    between atoms: C_19  and  C_22
REMARK    9  A    between atoms: N_24  and  C_25
REMARK                            x       y       z     vdW  Elec       q    Type
REMARK                         _______ _______ _______ _____ _____    ______ ____
ROOT
ATOM      1  N   UNL     1       3.762  -7.752   2.306  0.00  0.00    -0.299 N 
ATOM      2  C   UNL     1       4.499  -8.360   3.256  0.00  0.00    +0.300 C 
ATOM      3  O   UNL     1       5.041  -7.699   4.121  0.00  0.00    -0.253 OA
ATOM      4  N   UNL     1       4.635  -9.701   3.248  0.00  0.00    -0.297 N 
ATOM      5  H   UNL     1       3.329  -8.279   1.616  0.00  0.00    +0.150 HD
ATOM      6  H   UNL     1       4.202 -10.228   2.558  0.00  0.00    +0.151 HD
ENDROOT
BRANCH   4   7
ATOM      7  C   UNL     1       5.436 -10.362   4.282  0.00  0.00    +0.074 C 
ATOM      8  C   UNL     1       6.908 -10.357   3.866  0.00  0.00    +0.023 C 
ATOM      9  C   UNL     1       7.067 -11.105   2.541  0.00  0.00    +0.014 C 
ATOM     10  C   UNL     1       6.590 -12.549   2.710  0.00  0.00    +0.075 C 
ATOM     11  C   UNL     1       5.117 -12.554   3.126  0.00  0.00    +0.014 C 
ATOM     12  C   UNL     1       4.958 -11.806   4.451  0.00  0.00    +0.023 C 
BRANCH  10  13
ATOM     13  C   UNL     1       6.746 -13.286   1.405  0.00  0.00    +0.216 C 
ATOM     14  O   UNL     1       7.195 -12.713   0.435  0.00  0.00    -0.276 OA
ATOM     15  N   UNL     1       6.387 -14.582   1.316  0.00  0.00    -0.318 N 
ATOM     16  C   UNL     1       6.539 -15.298   0.047  0.00  0.00    +0.128 C 
ATOM     17  H   UNL     1       6.028 -15.040   2.091  0.00  0.00    +0.148 HD
ENDBRANCH  10  13
ENDBRANCH   4   7
BRANCH   1  18
ATOM     18  C   UNL     1       3.614  -6.294   2.315  0.00  0.00    +0.105 C 
BRANCH  18  19
ATOM     19  C   UNL     1       2.736  -5.863   1.138  0.00  0.00    +0.017 C 
BRANCH  19  20
ATOM     20  C   UNL     1       2.582  -4.341   1.147  0.00  0.00    -0.017 C 
BRANCH  20  21
ATOM     21  C   UNL     1       1.704  -3.911  -0.029  0.00  0.00    -0.079 C 
BRANCH  21  26
ATOM     22  C   UNL     1      -0.019   1.526   0.010  0.00  0.00    +0.007 C 
ATOM     23  C   UNL     1       0.002  -0.004   0.002  0.00  0.00    -0.018 C 
ATOM     24  C   UNL     1       0.727  -0.499  -1.252  0.00  0.00    -0.016 C 
ATOM     25  C   UNL     1       0.814  -2.027  -1.215  0.00  0.00    -0.079 C 
ATOM     26  N   UNL     1       1.556  -2.449  -0.021  0.00  0.00    +0.380 N 
ATOM     27  C   UNL     1       0.829  -2.040   1.187  0.00  0.00    -0.079 C 
ATOM     28  C   UNL     1       0.743  -0.513   1.242  0.00  0.00    -0.016 C 
ATOM     29  H   UNL     1       2.469  -2.020  -0.024  0.00  0.00    -0.082 HD
ENDBRANCH  21  26
ENDBRANCH  20  21
ENDBRANCH  19  20
ENDBRANCH  18  19
ENDBRANCH   1  18
TORSDOF 7
