REMARK  Name = ZINC63532243
REMARK  4 active torsions:
REMARK  status: ('A' for Active; 'I' for Inactive)
REMARK    1  A    between atoms: C_9  and  C_12
REMARK    2  A    between atoms: N_14  and  C_15
REMARK    3  A    between atoms: C_15  and  C_16
REMARK    4  A    between atoms: C_16  and  C_17
REMARK                            x       y       z     vdW  Elec       q    Type
REMARK                         _______ _______ _______ _____ _____    ______ ____
ROOT
ATOM      1  C   UNL     1       3.437  -5.119   0.480  0.00  0.00    +0.266 C 
ATOM      2  O   UNL     1       4.572  -4.766   0.728  0.00  0.00    -0.268 OA
ATOM      3  N   UNL     1       3.138  -6.432   0.415  0.00  0.00    -0.310 N 
ATOM      4  H   UNL     1       2.232  -6.714   0.217  0.00  0.00    +0.149 HD
ENDROOT
BRANCH   1  13
ATOM      5  C   UNL     1      -0.017   1.378   0.010  0.00  0.00    +0.001 A 
ATOM      6  C   UNL     1       1.172   2.087   0.002  0.00  0.00    +0.004 A 
ATOM      7  C   UNL     1       2.388   1.431  -0.022  0.00  0.00    +0.046 A 
ATOM      8  C   UNL     1       2.429   0.046  -0.034  0.00  0.00    +0.132 A 
ATOM      9  C   UNL     1       1.217  -0.670  -0.012  0.00  0.00    +0.062 A 
ATOM     10  C   UNL     1       0.002  -0.004   0.002  0.00  0.00    +0.015 A 
ATOM     11  C   UNL     1       1.324  -2.141   0.020  0.00  0.00    +0.178 A 
ATOM     12  C   UNL     1       2.545  -2.719   0.289  0.00  0.00    +0.069 A 
ATOM     13  C   UNL     1       2.378  -4.105   0.251  0.00  0.00    +0.175 A 
ATOM     14  N   UNL     1       1.113  -4.353  -0.024  0.00  0.00    -0.073 NA
ATOM     15  O   UNL     1       0.439  -3.111  -0.169  0.00  0.00    -0.353 OA
ATOM     16  C   UNL     1       3.764  -1.878   0.563  0.00  0.00    +0.270 C 
ATOM     17  O   UNL     1       3.614  -0.610  -0.083  0.00  0.00    -0.486 OA
ENDBRANCH   1  13
BRANCH   3  18
ATOM     18  C   UNL     1       4.184  -7.433   0.641  0.00  0.00    +0.109 C 
BRANCH  18  19
ATOM     19  C   UNL     1       3.585  -8.834   0.510  0.00  0.00    +0.052 C 
BRANCH  19  20
ATOM     20  C   UNL     1       4.661  -9.864   0.743  0.00  0.00    -0.040 C 
ATOM     21  C   UNL     1       4.946 -10.493   1.905  0.00  0.00    -0.001 A 
ATOM     22  C   UNL     1       4.364 -10.410   3.250  0.00  0.00    +0.010 A 
ATOM     23  C   UNL     1       4.875 -11.181   4.236  0.00  0.00    +0.001 A 
ATOM     24  C   UNL     1       5.946 -12.057   4.006  0.00  0.00    +0.002 A 
ATOM     25  C   UNL     1       6.533 -12.189   2.798  0.00  0.00    +0.026 A 
ATOM     26  C   UNL     1       6.075 -11.425   1.688  0.00  0.00    +0.043 A 
ATOM     27  N   UNL     1       6.473 -11.375   0.440  0.00  0.00    -0.380 N 
ATOM     28  C   UNL     1       5.635 -10.408  -0.278  0.00  0.00    +0.144 C 
ATOM     29  H   UNL     1       7.197 -11.893   0.055  0.00  0.00    +0.160 HD
ENDBRANCH  19  20
ENDBRANCH  18  19
ENDBRANCH   3  18
TORSDOF 4
