REMARK  Name = ZINC63407894
REMARK  9 active torsions:
REMARK  status: ('A' for Active; 'I' for Inactive)
REMARK    1  A    between atoms: C_1  and  N_2
REMARK    2  A    between atoms: N_2  and  C_3
REMARK    3  A    between atoms: N_2  and  C_4
REMARK    4  A    between atoms: C_7  and  C_10
REMARK    5  A    between atoms: C_10  and  N_11
REMARK    6  A    between atoms: N_11  and  C_12
REMARK    7  A    between atoms: N_15  and  C_16
REMARK    8  A    between atoms: N_19  and  C_22
REMARK    9  A    between atoms: C_22  and  C_23
REMARK                            x       y       z     vdW  Elec       q    Type
REMARK                         _______ _______ _______ _____ _____    ______ ____
ROOT
ATOM      1  N   UNL     1      -1.388  -3.068  -5.339  0.00  0.00    -0.284 N 
ATOM      2  C   UNL     1      -2.094  -2.094  -6.175  0.00  0.00    +0.134 C 
ATOM      3  C   UNL     1      -2.010  -4.199  -4.952  0.00  0.00    +0.302 C 
ATOM      4  O   UNL     1      -1.424  -5.008  -4.258  0.00  0.00    -0.253 OA
ATOM      5  N   UNL     1      -3.281  -4.434  -5.333  0.00  0.00    -0.297 N 
ATOM      6  H   UNL     1      -3.748  -3.789  -5.886  0.00  0.00    +0.151 HD
ENDROOT
BRANCH   5   7
ATOM      7  C   UNL     1      -3.957  -5.664  -4.912  0.00  0.00    +0.071 C 
ATOM      8  C   UNL     1      -4.575  -5.460  -3.526  0.00  0.00    +0.004 C 
ATOM      9  C   UNL     1      -5.346  -6.720  -3.127  0.00  0.00    -0.077 C 
ATOM     10  N   UNL     1      -6.409  -6.978  -4.106  0.00  0.00    +0.380 N 
ATOM     11  C   UNL     1      -5.819  -7.246  -5.423  0.00  0.00    -0.077 C 
ATOM     12  C   UNL     1      -5.066  -6.006  -5.910  0.00  0.00    +0.004 C 
ATOM     13  H   UNL     1      -7.013  -6.171  -4.167  0.00  0.00    -0.082 HD
BRANCH  10  14
ATOM     14  C   UNL     1      -7.195  -8.143  -3.677  0.00  0.00    -0.075 C 
BRANCH  14  15
ATOM     15  C   UNL     1      -8.378  -8.338  -4.628  0.00  0.00    -0.028 C 
ATOM     16  C   UNL     1      -9.380  -7.176  -4.471  0.00  0.00    +0.002 C 
ATOM     17  C   UNL     1     -10.767  -7.846  -4.628  0.00  0.00    +0.000 C 
ATOM     18  C   UNL     1     -10.576  -9.201  -3.902  0.00  0.00    +0.000 C 
ATOM     19  C   UNL     1      -9.138  -9.626  -4.266  0.00  0.00    +0.002 C 
ENDBRANCH  14  15
ENDBRANCH  10  14
ENDBRANCH   5   7
BRANCH   1  20
ATOM     20  C   UNL     1      -0.006  -2.813  -4.924  0.00  0.00    +0.144 C 
BRANCH  20  24
ATOM     21  C   UNL     1       0.000  -0.696  -1.211  0.00  0.00    +0.029 A 
ATOM     22  C   UNL     1       0.013  -2.085  -1.221  0.00  0.00    +0.023 A 
ATOM     23  C   UNL     1       0.010  -2.766  -2.422  0.00  0.00    +0.007 A 
ATOM     24  C   UNL     1      -0.005  -2.066  -3.615  0.00  0.00    -0.030 A 
ATOM     25  C   UNL     1      -0.018  -0.684  -3.609  0.00  0.00    +0.007 A 
ATOM     26  C   UNL     1      -0.021   0.004  -2.411  0.00  0.00    +0.023 A 
BRANCH  21  28
ATOM     27  C   UNL     1      -0.018   1.461   0.010  0.00  0.00    +0.129 C 
ATOM     28  N   UNL     1       0.002  -0.004   0.002  0.00  0.00    -0.336 N 
ATOM     29  C   UNL     1       0.024  -0.743   1.267  0.00  0.00    +0.129 C 
ENDBRANCH  21  28
ENDBRANCH  20  24
ENDBRANCH   1  20
TORSDOF 6
