REMARK  Name = ZINC40038259
REMARK  6 active torsions:
REMARK  status: ('A' for Active; 'I' for Inactive)
REMARK    1  A    between atoms: C_1  and  C_2
REMARK    2  A    between atoms: C_9  and  C_31
REMARK    3  A    between atoms: C_10  and  C_12
REMARK    4  A    between atoms: N_14  and  C_15
REMARK    5  A    between atoms: N_14  and  C_23
REMARK    6  A    between atoms: C_15  and  C_16
REMARK                            x       y       z     vdW  Elec       q    Type
REMARK                         _______ _______ _______ _____ _____    ______ ____
ROOT
ATOM      1  C   UNL     1       0.012  -5.339  -2.503  0.00  0.00    +0.283 C 
ATOM      2  O   UNL     1      -0.128  -4.263  -1.954  0.00  0.00    -0.267 OA
ATOM      3  N   UNL     1       0.131  -5.401  -3.844  0.00  0.00    -0.286 N 
ENDROOT
BRANCH   1  13
ATOM      4  C   UNL     1       0.220 -12.312  -0.005  0.00  0.00    +0.045 C 
ATOM      5  C   UNL     1       0.180 -10.805  -0.010  0.00  0.00    -0.029 A 
ATOM      6  C   UNL     1       0.151 -10.128  -1.210  0.00  0.00    +0.051 A 
ATOM      7  C   UNL     1       0.114  -8.739  -1.220  0.00  0.00    +0.136 A 
ATOM      8  C   UNL     1       0.107  -8.044   0.003  0.00  0.00    +0.025 A 
ATOM      9  C   UNL     1       0.137  -8.748   1.209  0.00  0.00    +0.032 A 
ATOM     10  C   UNL     1       0.168 -10.115   1.195  0.00  0.00    +0.045 A 
ATOM     11 CL   UNL     1       0.198 -10.993   2.692  0.00  0.00    -0.083 Cl
ATOM     12  C   UNL     1       0.067  -6.624  -0.347  0.00  0.00    +0.008 A 
ATOM     13  C   UNL     1       0.053  -6.572  -1.704  0.00  0.00    +0.194 A 
ATOM     14  O   UNL     1       0.081  -7.824  -2.209  0.00  0.00    -0.450 OA
ATOM     15  C   UNL     1       0.044  -5.456   0.605  0.00  0.00    +0.048 C 
ENDBRANCH   1  13
BRANCH   3  16
ATOM     16  C   UNL     1       0.207  -4.167  -4.630  0.00  0.00    +0.099 C 
ATOM     17  C   UNL     1      -1.111  -3.387  -4.484  0.00  0.00    +0.047 C 
ATOM     18  C   UNL     1      -0.894  -1.958  -5.058  0.00  0.00    +0.168 C 
ATOM     19  S   UNL     1       0.795  -1.591  -4.419  0.00  0.00    -0.029 S 
ATOM     20  O   UNL     1       0.681  -0.919  -3.172  0.00  0.00    -0.174 OA
ATOM     21  O   UNL     1       1.566  -1.006  -5.459  0.00  0.00    -0.174 OA
ATOM     22  C   UNL     1       1.388  -3.305  -4.122  0.00  0.00    +0.188 C 
ENDBRANCH   3  16
BRANCH   3  23
ATOM     23  C   UNL     1       0.185  -6.702  -4.516  0.00  0.00    +0.143 C 
BRANCH  23  24
ATOM     24  C   UNL     1      -1.204  -7.105  -4.941  0.00  0.00    -0.029 A 
ATOM     25  C   UNL     1      -2.045  -7.737  -4.043  0.00  0.00    +0.005 A 
ATOM     26  C   UNL     1      -3.318  -8.107  -4.432  0.00  0.00    +0.002 A 
ATOM     27  C   UNL     1      -3.752  -7.847  -5.719  0.00  0.00    +0.020 A 
ATOM     28  C   UNL     1      -2.910  -7.215  -6.617  0.00  0.00    +0.041 A 
ATOM     29  C   UNL     1      -1.637  -6.839  -6.226  0.00  0.00    +0.025 A 
ATOM     30 CL   UNL     1      -3.453  -6.888  -8.233  0.00  0.00    -0.084 Cl
ENDBRANCH  23  24
ENDBRANCH   3  23
TORSDOF 4
