REMARK  Name = ZINC39481015
REMARK  8 active torsions:
REMARK  status: ('A' for Active; 'I' for Inactive)
REMARK    1  A    between atoms: C_1  and  C_2
REMARK    2  A    between atoms: C_5  and  N_24
REMARK    3  A    between atoms: C_6  and  N_8
REMARK    4  A    between atoms: C_12  and  S_15
REMARK    5  A    between atoms: S_15  and  C_18
REMARK    6  A    between atoms: N_24  and  S_25
REMARK    7  A    between atoms: S_25  and  C_28
REMARK    8  A    between atoms: C_28  and  C_29
REMARK                            x       y       z     vdW  Elec       q    Type
REMARK                         _______ _______ _______ _____ _____    ______ ____
ROOT
ATOM      1  C   UNL     1       0.695   1.446   0.458  0.00  0.00    +0.044 C 
ATOM      2  C   UNL     1       0.526  -0.046   0.331  0.00  0.00    -0.049 A 
ATOM      3  C   UNL     1       0.436  -0.625  -0.921  0.00  0.00    +0.005 A 
ATOM      4  C   UNL     1       0.281  -1.994  -1.045  0.00  0.00    +0.026 A 
ATOM      5  C   UNL     1       0.216  -2.789   0.089  0.00  0.00    +0.069 A 
ATOM      6  C   UNL     1       0.307  -2.205   1.352  0.00  0.00    +0.053 A 
ATOM      7  C   UNL     1       0.468  -0.832   1.467  0.00  0.00    +0.028 A 
ENDROOT
BRANCH   6   8
ATOM      8  N   UNL     1       0.242  -3.002   2.501  0.00  0.00    -0.324 N 
ATOM      9  C   UNL     1       1.462  -3.568   3.098  0.00  0.00    +0.120 C 
ATOM     10  C   UNL     1       1.253  -5.073   3.299  0.00  0.00    +0.101 C 
ATOM     11  N   UNL     1       0.023  -5.295   4.071  0.00  0.00    -0.292 NA
ATOM     12  C   UNL     1      -1.158  -4.813   3.342  0.00  0.00    +0.220 C 
ATOM     13  C   UNL     1      -1.047  -3.292   3.147  0.00  0.00    +0.147 C 
ATOM     14  H   UNL     1      -0.077  -6.268   4.319  0.00  0.00    +0.124 HD
BRANCH  12  15
ATOM     15  S   UNL     1      -2.654  -5.192   4.295  0.00  0.00    +0.014 S 
ATOM     16  O   UNL     1      -2.523  -4.709   5.625  0.00  0.00    -0.168 OA
ATOM     17  O   UNL     1      -3.812  -4.895   3.527  0.00  0.00    -0.168 OA
BRANCH  15  18
ATOM     18  C   UNL     1      -2.657  -6.947   4.453  0.00  0.00    +0.090 A 
ATOM     19  C   UNL     1      -3.279  -7.726   3.495  0.00  0.00    +0.027 A 
ATOM     20  C   UNL     1      -3.281  -9.103   3.619  0.00  0.00    +0.002 A 
ATOM     21  C   UNL     1      -2.662  -9.701   4.701  0.00  0.00    +0.000 A 
ATOM     22  C   UNL     1      -2.040  -8.922   5.658  0.00  0.00    +0.002 A 
ATOM     23  C   UNL     1      -2.034  -7.545   5.532  0.00  0.00    +0.027 A 
ENDBRANCH  15  18
ENDBRANCH  12  15
ENDBRANCH   6   8
BRANCH   5  24
ATOM     24  N   UNL     1       0.059  -4.175  -0.034  0.00  0.00    -0.219 N 
ATOM     25  H   UNL     1      -0.473  -4.662   0.615  0.00  0.00    +0.173 HD
BRANCH  24  26
ATOM     26  S   UNL     1       0.780  -4.982  -1.287  0.00  0.00    +0.047 S 
ATOM     27  O   UNL     1       0.490  -6.353  -1.050  0.00  0.00    -0.155 OA
ATOM     28  O   UNL     1       0.304  -4.333  -2.458  0.00  0.00    -0.155 OA
BRANCH  26  29
ATOM     29  C   UNL     1       2.555  -4.675  -1.079  0.00  0.00    +0.223 C 
BRANCH  29  30
ATOM     30  C   UNL     1       3.318  -5.370  -2.177  0.00  0.00    -0.025 A 
ATOM     31  C   UNL     1       3.752  -6.671  -2.000  0.00  0.00    +0.005 A 
ATOM     32  C   UNL     1       4.452  -7.309  -3.008  0.00  0.00    +0.000 A 
ATOM     33  C   UNL     1       4.716  -6.647  -4.192  0.00  0.00    +0.000 A 
ATOM     34  C   UNL     1       4.280  -5.347  -4.370  0.00  0.00    +0.000 A 
ATOM     35  C   UNL     1       3.577  -4.710  -3.364  0.00  0.00    +0.005 A 
ENDBRANCH  29  30
ENDBRANCH  26  29
ENDBRANCH  24  26
ENDBRANCH   5  24
TORSDOF 7
