REMARK  Name = ZINC21631160
REMARK  6 active torsions:
REMARK  status: ('A' for Active; 'I' for Inactive)
REMARK    1  A    between atoms: C_3  and  N_10
REMARK    2  A    between atoms: C_5  and  N_7
REMARK    3  A    between atoms: C_11  and  C_13
REMARK    4  A    between atoms: C_13  and  O_14
REMARK    5  A    between atoms: O_14  and  C_15
REMARK    6  A    between atoms: C_15  and  C_17
REMARK                            x       y       z     vdW  Elec       q    Type
REMARK                         _______ _______ _______ _____ _____    ______ ____
ROOT
ATOM      1  N   UNL     1       3.584   2.123  -0.021  0.00  0.00    -0.283 N 
ATOM      2  C   UNL     1       3.569   3.468  -0.116  0.00  0.00    +0.255 C 
ATOM      3  O   UNL     1       2.513   4.065  -0.103  0.00  0.00    -0.272 OA
ATOM      4  H   UNL     1       4.429   1.652   0.045  0.00  0.00    +0.155 HD
ENDROOT
BRANCH   1   7
ATOM      5  C   UNL     1       0.112   1.159  -0.752  0.00  0.00    +0.004 A 
ATOM      6  C   UNL     1       1.298   1.867  -0.756  0.00  0.00    +0.023 A 
ATOM      7  C   UNL     1       2.381   1.409  -0.019  0.00  0.00    +0.036 A 
ATOM      8  C   UNL     1       2.269   0.238   0.720  0.00  0.00    +0.056 A 
ATOM      9  C   UNL     1       1.081  -0.466   0.720  0.00  0.00    +0.128 A 
ATOM     10  C   UNL     1       0.003  -0.006  -0.015  0.00  0.00    +0.033 A 
BRANCH   9  11
ATOM     11  N   UNL     1       0.960  -1.713   1.507  0.00  0.00    +0.056 N 
ATOM     12  O   UNL     1       1.901  -2.116   2.150  0.00  0.00    -0.126 OA
ATOM     13  O   UNL     1      -0.080  -2.330   1.508  0.00  0.00    -0.126 OA
ENDBRANCH   9  11
ENDBRANCH   1   7
BRANCH   2  14
ATOM     14  C   UNL     1       4.863   4.229  -0.238  0.00  0.00    +0.328 C 
BRANCH  14  15
ATOM     15  O   UNL     1       4.587   5.629  -0.323  0.00  0.00    -0.452 OA
BRANCH  15  16
ATOM     16  C   UNL     1       5.645   6.456  -0.438  0.00  0.00    +0.342 C 
ATOM     17  O   UNL     1       6.772   6.001  -0.465  0.00  0.00    -0.245 OA
BRANCH  16  18
ATOM     18  C   UNL     1       5.436   7.907  -0.530  0.00  0.00    +0.086 A 
ATOM     19  C   UNL     1       4.113   8.485  -0.496  0.00  0.00    +0.044 A 
ATOM     20  C   UNL     1       4.059   9.829  -0.589  0.00  0.00    +0.080 A 
ATOM     21  S   UNL     1       5.771  10.296  -0.721  0.00  0.00    -0.064 S 
ATOM     22  C   UNL     1       6.495   8.784  -0.648  0.00  0.00    +0.093 A 
ATOM     23 CL   UNL     1       8.188   8.408  -0.709  0.00  0.00    -0.075 Cl
ATOM     24 CL   UNL     1       2.658  10.855  -0.584  0.00  0.00    -0.076 Cl
ENDBRANCH  16  18
ENDBRANCH  15  16
ENDBRANCH  14  15
ENDBRANCH   2  14
TORSDOF 6
