REMARK  Name = ZINC65461191
REMARK  8 active torsions:
REMARK  status: ('A' for Active; 'I' for Inactive)
REMARK    1  A    between atoms: C_1  and  C_2
REMARK    2  A    between atoms: C_5  and  O_32
REMARK    3  A    between atoms: C_6  and  C_8
REMARK    4  A    between atoms: N_16  and  C_19
REMARK    5  A    between atoms: C_25  and  C_27
REMARK    6  A    between atoms: C_25  and  C_28
REMARK    7  A    between atoms: C_28  and  O_30
REMARK    8  A    between atoms: O_30  and  C_31
REMARK                            x       y       z     vdW  Elec       q    Type
REMARK                         _______ _______ _______ _____ _____    ______ ____
ROOT
ATOM      1  C   UNL     1       0.032  -2.677   2.786  0.00  0.00    +0.101 C 
ATOM      2  C   UNL     1      -1.344  -3.357   2.944  0.00  0.00    +0.111 C 
ATOM      3  C   UNL     1      -1.573  -3.442   4.477  0.00  0.00    +0.120 C 
ATOM      4  C   UNL     1      -2.757  -2.530   4.704  0.00  0.00    +0.232 C 
ATOM      5  O   UNL     1      -3.272  -2.304   5.778  0.00  0.00    -0.274 OA
ATOM      6  N   UNL     1      -3.148  -2.010   3.534  0.00  0.00    -0.210 N 
ATOM      7  C   UNL     1      -2.424  -2.413   2.465  0.00  0.00    +0.232 C 
ATOM      8  O   UNL     1      -2.600  -2.077   1.314  0.00  0.00    -0.274 OA
ATOM      9  C   UNL     1      -0.307  -2.819   5.101  0.00  0.00    +0.127 C 
ATOM     10  N   UNL     1       0.222  -1.908   4.043  0.00  0.00    -0.294 NA
ATOM     11  C   UNL     1       0.707  -3.910   5.450  0.00  0.00    +0.040 C 
ATOM     12  H   UNL     1       1.198  -1.705   4.199  0.00  0.00    +0.124 HD
ENDROOT
BRANCH   1  18
ATOM     13  C   UNL     1      -0.390   1.937   0.897  0.00  0.00    +0.044 C 
ATOM     14  C   UNL     1      -0.176   0.459   0.694  0.00  0.00    -0.050 A 
ATOM     15  C   UNL     1       0.014  -0.042  -0.581  0.00  0.00    +0.007 A 
ATOM     16  C   UNL     1       0.210  -1.396  -0.769  0.00  0.00    +0.046 A 
ATOM     17  C   UNL     1       0.216  -2.254   0.322  0.00  0.00    +0.122 A 
ATOM     18  C   UNL     1       0.026  -1.748   1.599  0.00  0.00    +0.012 A 
ATOM     19  C   UNL     1      -0.165  -0.392   1.783  0.00  0.00    +0.012 A 
BRANCH  17  20
ATOM     20  O   UNL     1       0.408  -3.587   0.139  0.00  0.00    -0.506 OA
ATOM     21  H   UNL     1       1.336  -3.858   0.170  0.00  0.00    +0.292 HD
ENDBRANCH  17  20
ENDBRANCH   1  18
BRANCH   6  22
ATOM     22  C   UNL     1      -4.228  -1.123   3.422  0.00  0.00    +0.044 A 
ATOM     23  C   UNL     1      -4.139   0.153   3.963  0.00  0.00    +0.024 A 
ATOM     24  C   UNL     1      -5.204   1.025   3.851  0.00  0.00    +0.002 A 
ATOM     25  C   UNL     1      -6.358   0.629   3.200  0.00  0.00    +0.000 A 
ATOM     26  C   UNL     1      -6.450  -0.641   2.660  0.00  0.00    +0.002 A 
ATOM     27  C   UNL     1      -5.386  -1.516   2.764  0.00  0.00    +0.024 A 
ENDBRANCH   6  22
BRANCH   9  28
ATOM     28  C   UNL     1      -0.665  -2.022   6.329  0.00  0.00    +0.328 C 
ATOM     29  O   UNL     1      -0.623  -2.540   7.420  0.00  0.00    -0.249 OA
BRANCH  28  30
ATOM     30  O   UNL     1      -1.031  -0.736   6.211  0.00  0.00    -0.467 OA
ATOM     31  C   UNL     1      -1.356  -0.040   7.416  0.00  0.00    +0.280 C 
ENDBRANCH  28  30
ENDBRANCH   9  28
TORSDOF 5
