REMARK  Name = ZINC04676369
REMARK  4 active torsions:
REMARK  status: ('A' for Active; 'I' for Inactive)
REMARK    1  A    between atoms: C_3  and  N_21
REMARK    2  A    between atoms: C_5  and  S_7
REMARK    3  A    between atoms: S_7  and  N_10
REMARK    4  A    between atoms: N_10  and  C_11
REMARK                            x       y       z     vdW  Elec       q    Type
REMARK                         _______ _______ _______ _____ _____    ______ ____
ROOT
ATOM      1  S   UNL     1      -2.139   5.907  -1.246  0.00  0.00    +0.059 S 
ATOM      2  O   UNL     1      -1.538   7.135  -1.635  0.00  0.00    -0.153 OA
ATOM      3  O   UNL     1      -2.153   4.764  -2.090  0.00  0.00    -0.153 OA
ENDROOT
BRANCH   1   8
ATOM      4  C   UNL     1      -6.123   5.619  -0.816  0.00  0.00    +0.004 A 
ATOM      5  C   UNL     1      -6.458   6.839  -0.259  0.00  0.00    +0.033 A 
ATOM      6  C   UNL     1      -5.473   7.775  -0.004  0.00  0.00    +0.128 A 
ATOM      7  C   UNL     1      -4.154   7.491  -0.306  0.00  0.00    +0.061 A 
ATOM      8  C   UNL     1      -3.820   6.270  -0.861  0.00  0.00    +0.107 A 
ATOM      9  C   UNL     1      -4.806   5.336  -1.121  0.00  0.00    +0.028 A 
BRANCH   6  10
ATOM     10  N   UNL     1      -5.831   9.082   0.591  0.00  0.00    +0.056 N 
ATOM     11  O   UNL     1      -4.963   9.908   0.815  0.00  0.00    -0.126 OA
ATOM     12  O   UNL     1      -6.993   9.333   0.856  0.00  0.00    -0.126 OA
ENDBRANCH   6  10
ENDBRANCH   1   8
BRANCH   1  13
ATOM     13  N   UNL     1      -1.403   5.446   0.164  0.00  0.00    -0.184 NA
ATOM     14  H   UNL     1      -0.800   6.055   0.618  0.00  0.00    +0.149 HD
BRANCH  13  15
ATOM     15  C   UNL     1      -1.663   4.118   0.726  0.00  0.00    +0.041 C 
ATOM     16  C   UNL     1      -0.995   3.055  -0.149  0.00  0.00    +0.027 C 
ATOM     17  C   UNL     1      -1.267   1.668   0.437  0.00  0.00    -0.009 C 
ATOM     18  C   UNL     1      -0.697   1.593   1.855  0.00  0.00    +0.007 C 
ATOM     19  C   UNL     1      -1.365   2.656   2.730  0.00  0.00    -0.009 C 
ATOM     20  C   UNL     1      -1.093   4.043   2.144  0.00  0.00    +0.027 C 
ATOM     21  C   UNL     1      -2.873   2.407   2.773  0.00  0.00    +0.007 C 
ATOM     22  C   UNL     1      -3.443   2.482   1.355  0.00  0.00    -0.009 C 
ATOM     23  C   UNL     1      -2.776   1.419   0.480  0.00  0.00    +0.007 C 
ATOM     24  C   UNL     1      -3.172   3.869   0.769  0.00  0.00    +0.027 C 
ENDBRANCH  13  15
ENDBRANCH   1  13
TORSDOF 4
