REMARK  Name = ZINC14806361
REMARK  7 active torsions:
REMARK  status: ('A' for Active; 'I' for Inactive)
REMARK    1  A    between atoms: C_1  and  C_2
REMARK    2  A    between atoms: N_5  and  C_15
REMARK    3  A    between atoms: C_15  and  C_16
REMARK    4  A    between atoms: C_16  and  C_17
REMARK    5  A    between atoms: C_22  and  N_25
REMARK    6  A    between atoms: C_27  and  C_34
REMARK    7  A    between atoms: C_30  and  C_33
REMARK                            x       y       z     vdW  Elec       q    Type
REMARK                         _______ _______ _______ _____ _____    ______ ____
ROOT
ATOM      1  C   UNL     1      -3.020  -3.798  -0.799  0.00  0.00    +0.077 C 
ENDROOT
BRANCH   1   2
ATOM      2  C   UNL     1      -4.445  -4.133  -1.157  0.00  0.00    +0.214 C 
ATOM      3  O   UNL     1      -5.304  -3.279  -1.092  0.00  0.00    -0.276 OA
ATOM      4  N   UNL     1      -4.765  -5.382  -1.549  0.00  0.00    -0.301 N 
ATOM      5  C   UNL     1      -3.737  -6.429  -1.627  0.00  0.00    +0.109 C 
ATOM      6  C   UNL     1      -4.201  -7.638  -0.807  0.00  0.00    +0.038 C 
ATOM      7  C   UNL     1      -5.584  -8.078  -1.293  0.00  0.00    +0.060 C 
ATOM      8  C   UNL     1      -6.585  -6.939  -1.085  0.00  0.00    +0.038 C 
ATOM      9  C   UNL     1      -6.150  -5.725  -1.902  0.00  0.00    +0.109 C 
BRANCH   7  10
ATOM     10  N   UNL     1      -6.018  -9.257  -0.532  0.00  0.00    -0.294 NA
ATOM     11  C   UNL     1      -6.242  -8.919   0.881  0.00  0.00    +0.116 C 
ATOM     12  C   UNL     1      -6.634 -10.185   1.647  0.00  0.00    +0.130 C 
ATOM     13  O   UNL     1      -7.791 -10.765   1.039  0.00  0.00    -0.371 OA
ATOM     14  C   UNL     1      -7.607 -11.107  -0.338  0.00  0.00    +0.130 C 
ATOM     15  C   UNL     1      -7.226  -9.851  -1.124  0.00  0.00    +0.116 C 
ATOM     16  C   UNL     1      -8.908 -11.686  -0.898  0.00  0.00    +0.039 C 
ATOM     17  C   UNL     1      -6.945  -9.826   3.101  0.00  0.00    +0.039 C 
ENDBRANCH   7  10
ENDBRANCH   1   2
BRANCH   1  18
ATOM     18  C   UNL     1      -2.930  -2.326  -0.391  0.00  0.00    -0.069 C 
BRANCH  18  22
ATOM     19  C   UNL     1       1.696  -2.451  -1.824  0.00  0.00    +0.050 C 
ATOM     20  C   UNL     1       0.819  -2.136  -0.610  0.00  0.00    +0.154 C 
ATOM     21  C   UNL     1      -0.635  -2.176  -1.023  0.00  0.00    -0.034 C 
ATOM     22  N   UNL     1      -1.572  -2.032   0.086  0.00  0.00    +0.385 N 
ATOM     23  C   UNL     1      -1.539  -0.673   0.636  0.00  0.00    -0.039 C 
ATOM     24  C   UNL     1      -0.415  -0.585   1.651  0.00  0.00    -0.021 A 
ATOM     25  C   UNL     1      -0.705  -0.437   2.992  0.00  0.00    +0.025 A 
ATOM     26  C   UNL     1       0.328  -0.341   3.909  0.00  0.00    +0.041 A 
ATOM     27  C   UNL     1       1.643  -0.391   3.482  0.00  0.00    +0.023 A 
ATOM     28  C   UNL     1       1.932  -0.544   2.139  0.00  0.00    +0.047 A 
ATOM     29  C   UNL     1       0.896  -0.649   1.221  0.00  0.00    +0.122 A 
ATOM     30  O   UNL     1       1.168  -0.843  -0.100  0.00  0.00    -0.491 OA
ATOM     31 CL   UNL     1      -0.027  -0.158   5.599  0.00  0.00    -0.084 Cl
ATOM     32  H   UNL     1      -1.328  -2.689   0.812  0.00  0.00    -0.081 HD
ENDBRANCH  18  22
ENDBRANCH   1  18
TORSDOF 4
