REMARK  Name = ZINC02777979
REMARK  7 active torsions:
REMARK  status: ('A' for Active; 'I' for Inactive)
REMARK    1  A    between atoms: C_1  and  C_2
REMARK    2  A    between atoms: C_4  and  C_22
REMARK    3  A    between atoms: C_7  and  C_9
REMARK    4  A    between atoms: C_9  and  C_11
REMARK    5  A    between atoms: C_9  and  N_12
REMARK    6  A    between atoms: C_13  and  C_21
REMARK    7  A    between atoms: C_15  and  C_17
REMARK                            x       y       z     vdW  Elec       q    Type
REMARK                         _______ _______ _______ _____ _____    ______ ____
ROOT
ATOM      1  C   UNL     1      -4.686   2.518   2.288  0.00  0.00    +0.194 C 
ATOM      2  C   UNL     1      -5.319   1.130   2.403  0.00  0.00    +0.043 C 
ENDROOT
BRANCH   1   9
ATOM      3  C   UNL     1      -0.013   1.086   0.008  0.00  0.00    +0.067 C 
ATOM      4  C   UNL     1      -0.718   1.572   1.248  0.00  0.00    +0.061 A 
ATOM      5  C   UNL     1      -0.111   1.847   2.482  0.00  0.00    +0.048 A 
ATOM      6  C   UNL     1      -1.073   2.257   3.337  0.00  0.00    +0.045 A 
ATOM      7  N   UNL     1      -2.257   2.243   2.662  0.00  0.00    -0.203 N 
ATOM      8  N   UNL     1      -1.998   1.814   1.354  0.00  0.00    -0.169 NA
ATOM      9  C   UNL     1      -3.461   2.586   3.162  0.00  0.00    +0.272 C 
ATOM     10  O   UNL     1      -3.557   2.947   4.310  0.00  0.00    -0.269 OA
ATOM     11  C   UNL     1      -0.873   2.659   4.776  0.00  0.00    +0.066 C 
ENDBRANCH   1   9
BRANCH   1  12
ATOM     12  N   UNL     1      -5.651   3.532   2.720  0.00  0.00    -0.256 N 
ATOM     13  C   UNL     1      -6.129   4.546   1.968  0.00  0.00    +0.038 A 
ATOM     14  C   UNL     1      -6.993   5.254   2.732  0.00  0.00    +0.056 A 
ATOM     15  C   UNL     1      -7.045   4.653   3.993  0.00  0.00    +0.165 A 
ATOM     16  N   UNL     1      -6.246   3.617   3.986  0.00  0.00    -0.166 NA
ATOM     17  C   UNL     1      -5.765   4.837   0.535  0.00  0.00    +0.065 C 
BRANCH  15  18
ATOM     18  C   UNL     1      -7.883   5.114   5.158  0.00  0.00    +0.436 C 
ATOM     19  F   UNL     1      -9.133   4.488   5.110  0.00  0.00    -0.164 F 
ATOM     20  F   UNL     1      -7.240   4.782   6.355  0.00  0.00    -0.164 F 
ATOM     21  F   UNL     1      -8.054   6.501   5.089  0.00  0.00    -0.164 F 
ENDBRANCH  15  18
ENDBRANCH   1  12
TORSDOF 3
