REMARK  Name = ZINC67583431
REMARK  7 active torsions:
REMARK  status: ('A' for Active; 'I' for Inactive)
REMARK    1  A    between atoms: C_1  and  C_2
REMARK    2  A    between atoms: C_2  and  C_3
REMARK    3  A    between atoms: C_2  and  C_4
REMARK    4  A    between atoms: C_2  and  C_5
REMARK    5  A    between atoms: N_13  and  C_14
REMARK    6  A    between atoms: N_19  and  S_21
REMARK    7  A    between atoms: S_21  and  C_24
REMARK                            x       y       z     vdW  Elec       q    Type
REMARK                         _______ _______ _______ _____ _____    ______ ____
ROOT
ATOM      1  C   UNL     1       0.707  -0.490  -1.238  0.00  0.00    +0.109 A 
ATOM      2  N   UNL     1       1.944  -0.281  -1.644  0.00  0.00    -0.144 NA
ATOM      3  N   UNL     1       2.328  -0.794  -2.732  0.00  0.00    -0.126 NA
ATOM      4  C   UNL     1       1.528  -1.534  -3.475  0.00  0.00    +0.189 A 
ATOM      5  S   UNL     1       0.106  -1.520  -2.570  0.00  0.00    -0.035 S 
ATOM      6  N   UNL     1       1.791  -2.166  -4.686  0.00  0.00    -0.247 N 
ATOM      7  C   UNL     1       3.010  -2.059  -5.252  0.00  0.00    +0.306 C 
ATOM      8  O   UNL     1       3.880  -1.410  -4.703  0.00  0.00    -0.252 OA
ATOM      9  N   UNL     1       3.264  -2.671  -6.425  0.00  0.00    -0.295 N 
ATOM     10  H   UNL     1       1.097  -2.683  -5.124  0.00  0.00    +0.158 HD
ATOM     11  H   UNL     1       2.570  -3.188  -6.863  0.00  0.00    +0.151 HD
ENDROOT
BRANCH   9  12
ATOM     12  C   UNL     1       4.589  -2.555  -7.040  0.00  0.00    +0.090 C 
ATOM     13  C   UNL     1       5.519  -3.619  -6.453  0.00  0.00    +0.025 C 
ATOM     14  C   UNL     1       6.912  -3.477  -7.071  0.00  0.00    +0.019 C 
ATOM     15  C   UNL     1       6.820  -3.697  -8.584  0.00  0.00    +0.109 C 
ATOM     16  N   UNL     1       5.819  -2.773  -9.136  0.00  0.00    -0.180 NA
ATOM     17  C   UNL     1       4.470  -2.763  -8.553  0.00  0.00    +0.131 C 
BRANCH  16  18
ATOM     18  S   UNL     1       6.204  -1.764 -10.390  0.00  0.00    +0.029 S 
ATOM     19  O   UNL     1       5.313  -0.664 -10.257  0.00  0.00    -0.158 OA
ATOM     20  O   UNL     1       7.608  -1.575 -10.287  0.00  0.00    -0.158 OA
ATOM     21  C   UNL     1       5.808  -2.709 -11.887  0.00  0.00    +0.215 C 
ENDBRANCH  16  18
ENDBRANCH   9  12
BRANCH   1  23
ATOM     22  C   UNL     1      -0.019   1.526   0.010  0.00  0.00    +0.018 C 
ATOM     23  C   UNL     1       0.002  -0.004   0.002  0.00  0.00    +0.013 C 
ATOM     24  C   UNL     1       0.742  -0.511   1.242  0.00  0.00    +0.018 C 
ATOM     25  C   UNL     1      -1.433  -0.534   0.013  0.00  0.00    +0.018 C 
ENDBRANCH   1  23
TORSDOF 3
