REMARK  Name = ZINC46569877
REMARK  8 active torsions:
REMARK  status: ('A' for Active; 'I' for Inactive)
REMARK    1  A    between atoms: C_1  and  O_2
REMARK    2  A    between atoms: O_2  and  C_3
REMARK    3  A    between atoms: C_5  and  N_12
REMARK    4  A    between atoms: C_8  and  O_9
REMARK    5  A    between atoms: O_9  and  C_10
REMARK    6  A    between atoms: C_13  and  C_15
REMARK    7  A    between atoms: C_17  and  C_27
REMARK    8  A    between atoms: N_18  and  C_20
REMARK                            x       y       z     vdW  Elec       q    Type
REMARK                         _______ _______ _______ _____ _____    ______ ____
ROOT
ATOM      1  C   UNL     1       2.748   2.578  -5.189  0.00  0.00    +0.148 A 
ATOM      2  C   UNL     1       2.540   3.925  -5.555  0.00  0.00    +0.066 A 
ATOM      3  C   UNL     1       3.173   4.078  -6.761  0.00  0.00    +0.110 A 
ATOM      4  N   UNL     1       3.723   2.865  -7.073  0.00  0.00    -0.228 N 
ATOM      5  N   UNL     1       3.466   2.016  -6.143  0.00  0.00    -0.161 NA
ENDROOT
BRANCH   4   6
ATOM      6  C   UNL     1       4.461   2.590  -8.231  0.00  0.00    +0.066 A 
ATOM      7  C   UNL     1       5.430   3.484  -8.666  0.00  0.00    +0.029 A 
ATOM      8  C   UNL     1       6.157   3.211  -9.808  0.00  0.00    +0.022 A 
ATOM      9  C   UNL     1       5.919   2.048 -10.519  0.00  0.00    +0.041 A 
ATOM     10  C   UNL     1       4.953   1.155 -10.088  0.00  0.00    +0.022 A 
ATOM     11  C   UNL     1       4.228   1.421  -8.943  0.00  0.00    +0.029 A 
ATOM     12 CL   UNL     1       6.834   1.708 -11.955  0.00  0.00    -0.084 Cl
ENDBRANCH   4   6
BRANCH   3  13
ATOM     13  C   UNL     1       3.246   5.309  -7.565  0.00  0.00    +0.153 A 
ATOM     14  C   UNL     1       2.930   6.563  -7.138  0.00  0.00    +0.051 A 
ATOM     15  C   UNL     1       3.147   7.429  -8.227  0.00  0.00    +0.042 A 
ATOM     16  C   UNL     1       3.580   6.672  -9.255  0.00  0.00    +0.196 A 
ATOM     17  O   UNL     1       3.644   5.393  -8.850  0.00  0.00    -0.461 OA
ENDBRANCH   3  13
BRANCH   1  19
ATOM     18  N   UNL     1       2.539   0.621  -3.736  0.00  0.00    -0.279 N 
ATOM     19  C   UNL     1       2.259   1.920  -3.961  0.00  0.00    +0.268 C 
ATOM     20  O   UNL     1       1.604   2.550  -3.154  0.00  0.00    -0.268 OA
ATOM     21  H   UNL     1       3.127   0.140  -4.338  0.00  0.00    +0.155 HD
BRANCH  18  24
ATOM     22  C   UNL     1       0.294  -0.166  -0.926  0.00  0.00    +0.163 A 
ATOM     23  C   UNL     1       0.847   0.483  -2.018  0.00  0.00    +0.074 A 
ATOM     24  C   UNL     1       1.980  -0.034  -2.631  0.00  0.00    +0.056 A 
ATOM     25  C   UNL     1       2.558  -1.202  -2.149  0.00  0.00    +0.066 A 
ATOM     26  C   UNL     1       2.007  -1.849  -1.059  0.00  0.00    +0.071 A 
ATOM     27  C   UNL     1       0.879  -1.332  -0.442  0.00  0.00    +0.163 A 
ATOM     28 CL   UNL     1       3.975  -1.848  -2.917  0.00  0.00    -0.081 Cl
BRANCH  22  30
ATOM     29  C   UNL     1      -1.363   1.539  -0.874  0.00  0.00    +0.277 C 
ATOM     30  O   UNL     1      -0.816   0.339  -0.324  0.00  0.00    -0.491 OA
ENDBRANCH  22  30
BRANCH  27  31
ATOM     31  O   UNL     1       0.341  -1.967   0.634  0.00  0.00    -0.491 OA
ATOM     32  C   UNL     1       0.994  -3.159   1.078  0.00  0.00    +0.277 C 
ENDBRANCH  27  31
ENDBRANCH  18  24
ENDBRANCH   1  19
TORSDOF 6
