REMARK  Name = ZINC64182247
REMARK  6 active torsions:
REMARK  status: ('A' for Active; 'I' for Inactive)
REMARK    1  A    between atoms: C_1  and  C_2
REMARK    2  A    between atoms: C_5  and  C_8
REMARK    3  A    between atoms: C_8  and  N_9
REMARK    4  A    between atoms: N_12  and  C_13
REMARK    5  A    between atoms: C_13  and  C_14
REMARK    6  A    between atoms: C_19  and  C_22
REMARK                            x       y       z     vdW  Elec       q    Type
REMARK                         _______ _______ _______ _____ _____    ______ ____
ROOT
ATOM      1  C   UNL     1       4.960  -8.082  -0.074  0.00  0.00    +0.233 C 
ATOM      2  O   UNL     1       5.808  -7.230  -0.234  0.00  0.00    -0.274 OA
ATOM      3  N   UNL     1       5.306  -9.385  -0.075  0.00  0.00    -0.296 N 
ATOM      4  C   UNL     1       6.705  -9.806  -0.261  0.00  0.00    +0.113 C 
ATOM      5  C   UNL     1       7.155 -10.531   1.009  0.00  0.00    +0.054 C 
ATOM      6  C   UNL     1       6.109 -11.512   1.450  0.00  0.00    -0.043 C 
ATOM      7  C   UNL     1       4.840 -11.474   1.061  0.00  0.00    -0.004 C 
ATOM      8  C   UNL     1       4.302 -10.441   0.116  0.00  0.00    +0.135 C 
ENDROOT
BRANCH   6   9
ATOM      9  C   UNL     1       6.499 -12.540   2.332  0.00  0.00    -0.016 C 
ATOM     10  C   UNL     1       7.734 -12.695   2.948  0.00  0.00    +0.003 A 
ATOM     11  C   UNL     1       8.926 -11.934   2.903  0.00  0.00    +0.010 A 
ATOM     12  C   UNL     1      10.004 -12.331   3.624  0.00  0.00    +0.001 A 
ATOM     13  C   UNL     1       9.972 -13.481   4.419  0.00  0.00    +0.002 A 
ATOM     14  C   UNL     1       8.866 -14.258   4.510  0.00  0.00    +0.026 A 
ATOM     15  C   UNL     1       7.696 -13.908   3.784  0.00  0.00    +0.043 A 
ATOM     16  N   UNL     1       6.516 -14.484   3.705  0.00  0.00    -0.380 N 
ATOM     17  C   UNL     1       5.657 -13.702   2.811  0.00  0.00    +0.149 C 
ATOM     18  H   UNL     1       6.255 -15.296   4.167  0.00  0.00    +0.160 HD
ENDBRANCH   6   9
BRANCH   1  19
ATOM     19  C   UNL     1       3.521  -7.685   0.125  0.00  0.00    +0.201 C 
BRANCH  19  23
ATOM     20  N   UNL     1       2.100  -4.295   0.206  0.00  0.00    -0.295 N 
ATOM     21  C   UNL     1       2.204  -5.638   0.242  0.00  0.00    +0.300 C 
ATOM     22  O   UNL     1       1.213  -6.320   0.417  0.00  0.00    -0.253 OA
ATOM     23  N   UNL     1       3.407  -6.225   0.086  0.00  0.00    -0.291 N 
ATOM     24  H   UNL     1       2.891  -3.750   0.067  0.00  0.00    +0.151 HD
ATOM     25  H   UNL     1       4.198  -5.681  -0.054  0.00  0.00    +0.151 HD
BRANCH  20  26
ATOM     26  C   UNL     1       0.792  -3.656   0.376  0.00  0.00    +0.141 C 
BRANCH  26  31
ATOM     27  C   UNL     1       1.391   2.083   0.064  0.00  0.00    +0.044 C 
ATOM     28  C   UNL     1       1.235   0.586   0.145  0.00  0.00    -0.050 A 
ATOM     29  C   UNL     1       0.987  -0.146  -1.000  0.00  0.00    +0.003 A 
ATOM     30  C   UNL     1       0.844  -1.519  -0.926  0.00  0.00    +0.005 A 
ATOM     31  C   UNL     1       0.949  -2.160   0.295  0.00  0.00    -0.030 A 
ATOM     32  C   UNL     1       1.197  -1.427   1.441  0.00  0.00    +0.005 A 
ATOM     33  C   UNL     1       1.345  -0.055   1.365  0.00  0.00    +0.003 A 
ENDBRANCH  26  31
ENDBRANCH  20  26
ENDBRANCH  19  23
ENDBRANCH   1  19
TORSDOF 5
