REMARK  Name = ZINC29047003
REMARK  6 active torsions:
REMARK  status: ('A' for Active; 'I' for Inactive)
REMARK    1  A    between atoms: C_1  and  C_2
REMARK    2  A    between atoms: N_5  and  C_8
REMARK    3  A    between atoms: C_10  and  C_24
REMARK    4  A    between atoms: C_13  and  N_14
REMARK    5  A    between atoms: C_15  and  C_17
REMARK    6  A    between atoms: C_20  and  C_22
REMARK                            x       y       z     vdW  Elec       q    Type
REMARK                         _______ _______ _______ _____ _____    ______ ____
ROOT
ATOM      1  C   UNL     1       1.217   3.051  -0.046  0.00  0.00    +0.052 A 
ATOM      2  C   UNL     1      -0.008   3.629   0.236  0.00  0.00    +0.033 A 
ATOM      3  C   UNL     1      -1.151   2.832   0.314  0.00  0.00    -0.020 A 
ATOM      4  C   UNL     1      -1.055   1.455   0.103  0.00  0.00    +0.010 A 
ATOM      5  C   UNL     1       0.169   0.882  -0.172  0.00  0.00    +0.026 A 
ATOM      6  C   UNL     1       1.307   1.673  -0.251  0.00  0.00    +0.055 A 
ENDROOT
BRANCH   3   7
ATOM      7  C   UNL     1      -2.461   3.445   0.615  0.00  0.00    -0.048 C 
ATOM      8  C   UNL     1      -2.978   4.287  -0.253  0.00  0.00    -0.042 C 
ATOM      9  C   UNL     1      -4.299   4.970  -0.045  0.00  0.00    -0.055 C 
ATOM     10  N   UNL     1      -5.070   4.280   0.997  0.00  0.00    +0.382 N 
ATOM     11  C   UNL     1      -4.248   4.102   2.205  0.00  0.00    -0.078 C 
ATOM     12  C   UNL     1      -3.152   3.076   1.898  0.00  0.00    +0.016 C 
ATOM     13  H   UNL     1      -5.959   4.876   1.251  0.00  0.00    -0.085 HD
ATOM     14  H   UNL     1      -5.384   3.293   0.627  0.00  0.00    -0.085 HD
ENDBRANCH   3   7
BRANCH   1  19
ATOM     15  C   UNL     1       5.573   6.606   0.482  0.00  0.00    +0.007 C 
ATOM     16  C   UNL     1       4.284   5.823   0.742  0.00  0.00    -0.011 C 
ATOM     17  C   UNL     1       4.594   4.324   0.774  0.00  0.00    +0.022 C 
ATOM     18  C   UNL     1       3.292   3.544   0.973  0.00  0.00    +0.105 C 
ATOM     19  N   UNL     1       2.365   3.847  -0.124  0.00  0.00    -0.328 N 
ATOM     20  C   UNL     1       2.017   5.273  -0.146  0.00  0.00    +0.105 C 
ATOM     21  C   UNL     1       3.280   6.105  -0.379  0.00  0.00    +0.022 C 
ENDBRANCH   1  19
BRANCH   6  22
ATOM     22  N   UNL     1       2.546   1.088  -0.535  0.00  0.00    -0.277 N 
ATOM     23  C   UNL     1       2.827  -0.149  -0.081  0.00  0.00    +0.284 C 
ATOM     24  O   UNL     1       1.980  -0.784   0.519  0.00  0.00    -0.266 OA
ATOM     25  H   UNL     1       3.290   1.638  -1.130  0.00  0.00    +0.155 HD
BRANCH  23  26
ATOM     26  C   UNL     1       4.157  -0.731  -0.309  0.00  0.00    +0.191 A 
ATOM     27  C   UNL     1       4.569  -1.967   0.104  0.00  0.00    +0.056 A 
ATOM     28  C   UNL     1       5.893  -2.121  -0.322  0.00  0.00    +0.061 A 
ATOM     29  C   UNL     1       6.239  -0.958  -0.974  0.00  0.00    +0.205 A 
ATOM     30  O   UNL     1       5.176  -0.133  -0.954  0.00  0.00    -0.440 OA
BRANCH  29  31
ATOM     31  C   UNL     1       7.510  -0.677  -1.570  0.00  0.00    +0.138 C 
ATOM     32  N   UNL     1       8.518  -0.453  -2.043  0.00  0.00    -0.188 NA
ENDBRANCH  29  31
ENDBRANCH  23  26
ENDBRANCH   6  22
TORSDOF 5
