REMARK  Name = ZINC09712420
REMARK  5 active torsions:
REMARK  status: ('A' for Active; 'I' for Inactive)
REMARK    1  A    between atoms: C_4  and  C_7
REMARK    2  A    between atoms: C_7  and  S_8
REMARK    3  A    between atoms: S_8  and  N_11
REMARK    4  A    between atoms: C_17  and  C_19
REMARK    5  A    between atoms: C_19  and  N_20
REMARK                            x       y       z     vdW  Elec       q    Type
REMARK                         _______ _______ _______ _____ _____    ______ ____
ROOT
ATOM      1  N   UNL     1       3.268   3.151   1.181  0.00  0.00    -0.178 NA
ATOM      2  C   UNL     1       3.272   1.681   1.173  0.00  0.00    +0.128 C 
ATOM      3  C   UNL     1       2.433   1.194  -0.015  0.00  0.00    +0.125 C 
ATOM      4  N   UNL     1       1.143   1.898   0.001  0.00  0.00    -0.298 N 
ATOM      5  C   UNL     1       1.139   3.368   0.003  0.00  0.00    +0.125 C 
ATOM      6  C   UNL     1       1.978   3.855   1.197  0.00  0.00    +0.128 C 
ATOM      7  C   UNL     1      -0.014   1.209   0.009  0.00  0.00    +0.234 C 
ATOM      8  O   UNL     1       0.002  -0.004   0.002  0.00  0.00    -0.274 OA
ENDROOT
BRANCH   1   9
ATOM      9  S   UNL     1       4.690   3.998   1.171  0.00  0.00    +0.036 S 
ATOM     10  O   UNL     1       4.376   5.241   1.783  0.00  0.00    -0.158 OA
ATOM     11  O   UNL     1       5.640   3.120   1.760  0.00  0.00    -0.158 OA
BRANCH   9  12
ATOM     12  C   UNL     1       5.073   4.245  -0.585  0.00  0.00    +0.220 C 
BRANCH  12  16
ATOM     13  C   UNL     1       8.728   6.426  -0.953  0.00  0.00    +0.000 A 
ATOM     14  C   UNL     1       8.749   5.045  -0.905  0.00  0.00    +0.000 A 
ATOM     15  C   UNL     1       7.566   4.339  -0.785  0.00  0.00    +0.005 A 
ATOM     16  C   UNL     1       6.362   5.015  -0.715  0.00  0.00    -0.025 A 
ATOM     17  C   UNL     1       6.341   6.396  -0.768  0.00  0.00    +0.005 A 
ATOM     18  C   UNL     1       7.524   7.102  -0.882  0.00  0.00    +0.000 A 
ENDBRANCH  12  16
ENDBRANCH   9  12
ENDBRANCH   1   9
BRANCH   7  19
ATOM     19  C   UNL     1      -1.330   1.944   0.019  0.00  0.00    +0.213 C 
BRANCH  19  20
ATOM     20  N   UNL     1      -2.430   0.977   0.019  0.00  0.00    -0.215 N 
ATOM     21  C   UNL     1      -2.993   0.472   1.133  0.00  0.00    +0.247 C 
ATOM     22  O   UNL     1      -2.693   0.721   2.281  0.00  0.00    -0.273 OA
ATOM     23  C   UNL     1      -4.081  -0.474   0.655  0.00  0.00    +0.113 C 
ATOM     24  C   UNL     1      -5.444   0.117   1.080  0.00  0.00    +0.035 C 
ATOM     25  C   UNL     1      -6.511  -0.423   0.168  0.00  0.00    +0.003 C 
ATOM     26  C   UNL     1      -7.201  -1.678   0.739  0.00  0.00    +0.000 C 
ATOM     27  C   UNL     1      -6.210  -2.660   1.391  0.00  0.00    +0.000 C 
ATOM     28  C   UNL     1      -4.946  -2.814   0.589  0.00  0.00    +0.003 C 
ATOM     29  C   UNL     1      -3.894  -1.835   1.143  0.00  0.00    +0.035 C 
ATOM     30  N   UNL     1      -3.987  -0.382  -0.816  0.00  0.00    -0.285 N 
ATOM     31  C   UNL     1      -3.003   0.492  -1.088  0.00  0.00    +0.310 C 
ATOM     32  O   UNL     1      -2.669   0.804  -2.214  0.00  0.00    -0.252 OA
ATOM     33  H   UNL     1      -4.534  -0.857  -1.461  0.00  0.00    +0.151 HD
ENDBRANCH  19  20
ENDBRANCH   7  19
TORSDOF 5
