REMARK  Name = ZINC00795442
REMARK  8 active torsions:
REMARK  status: ('A' for Active; 'I' for Inactive)
REMARK    1  A    between atoms: C_1  and  C_2
REMARK    2  A    between atoms: N_10  and  C_11
REMARK    3  A    between atoms: C_11  and  C_12
REMARK    4  A    between atoms: C_12  and  C_14
REMARK    5  A    between atoms: C_12  and  O_24
REMARK    6  A    between atoms: C_14  and  N_15
REMARK    7  A    between atoms: C_16  and  C_23
REMARK    8  A    between atoms: C_18  and  C_22
REMARK                            x       y       z     vdW  Elec       q    Type
REMARK                         _______ _______ _______ _____ _____    ______ ____
ROOT
ATOM      1  C   UNL     1      -1.336   2.088   0.020  0.00  0.00    +0.044 C 
ATOM      2  C   UNL     1      -0.016   1.359   0.009  0.00  0.00    -0.050 A 
ATOM      3  C   UNL     1       1.169   2.084   0.002  0.00  0.00    +0.005 A 
ATOM      4  C   UNL     1       2.385   1.439  -0.013  0.00  0.00    +0.027 A 
ATOM      5  C   UNL     1       2.432   0.048  -0.022  0.00  0.00    +0.050 A 
ATOM      6  C   UNL     1       1.227  -0.688  -0.013  0.00  0.00    +0.004 A 
ATOM      7  C   UNL     1       0.002  -0.004   0.002  0.00  0.00    +0.013 A 
ATOM      8  C   UNL     1       1.579  -2.050  -0.022  0.00  0.00    -0.011 A 
ATOM      9  C   UNL     1       2.948  -2.124  -0.037  0.00  0.00    +0.089 A 
ATOM     10  N   UNL     1       3.472  -0.856  -0.038  0.00  0.00    -0.335 N 
ATOM     11  C   UNL     1       3.645  -3.418  -0.047  0.00  0.00    +0.180 C 
ATOM     12  O   UNL     1       4.835  -3.513  -0.268  0.00  0.00    -0.290 OA
ATOM     13  C   UNL     1       2.773  -4.630   0.239  0.00  0.00    +0.081 C 
ATOM     14  C   UNL     1       1.459  -4.472  -0.534  0.00  0.00    +0.013 C 
ATOM     15  C   UNL     1       0.679  -3.258  -0.018  0.00  0.00    +0.038 C 
ENDROOT
BRANCH  10  16
ATOM     16  C   UNL     1       4.898  -0.519  -0.055  0.00  0.00    +0.155 C 
BRANCH  16  17
ATOM     17  C   UNL     1       5.375  -0.395  -1.503  0.00  0.00    +0.154 C 
BRANCH  17  18
ATOM     18  O   UNL     1       5.280  -1.668  -2.146  0.00  0.00    -0.388 OA
ATOM     19  H   UNL     1       5.811  -2.360  -1.729  0.00  0.00    +0.210 HD
ENDBRANCH  17  18
BRANCH  17  20
ATOM     20  C   UNL     1       6.830   0.078  -1.522  0.00  0.00    +0.159 C 
BRANCH  20  21
ATOM     21  N   UNL     1       7.250   0.310  -2.906  0.00  0.00    -0.294 N 
ATOM     22  C   UNL     1       7.083   1.536  -3.469  0.00  0.00    +0.022 A 
ATOM     23  C   UNL     1       7.478   1.735  -4.755  0.00  0.00    +0.044 A 
ATOM     24  C   UNL     1       8.047   0.672  -5.463  0.00  0.00    +0.045 A 
ATOM     25  N   UNL     1       8.192  -0.501  -4.880  0.00  0.00    -0.198 NA
ATOM     26  C   UNL     1       7.807  -0.689  -3.616  0.00  0.00    +0.349 A 
ATOM     27  O   UNL     1       7.957  -1.783  -3.098  0.00  0.00    -0.244 OA
ATOM     28  C   UNL     1       8.493   0.868  -6.889  0.00  0.00    +0.066 C 
ATOM     29  C   UNL     1       6.465   2.660  -2.678  0.00  0.00    +0.064 C 
ENDBRANCH  20  21
ENDBRANCH  17  20
ENDBRANCH  16  17
ENDBRANCH  10  16
TORSDOF 5
