REMARK  Name = ZINC62089674
REMARK  3 active torsions:
REMARK  status: ('A' for Active; 'I' for Inactive)
REMARK    1  A    between atoms: C_1  and  C_2
REMARK    2  A    between atoms: C_12  and  C_14
REMARK    3  A    between atoms: C_20  and  C_22
REMARK                            x       y       z     vdW  Elec       q    Type
REMARK                         _______ _______ _______ _____ _____    ______ ____
ROOT
ATOM      1  C   UNL     1      -0.083   1.508   0.023  0.00  0.00    +0.044 C 
ATOM      2  C   UNL     1      -0.045   0.002   0.010  0.00  0.00    -0.048 A 
ATOM      3  C   UNL     1      -0.041  -0.679  -1.193  0.00  0.00    +0.007 A 
ATOM      4  C   UNL     1      -0.007  -2.061  -1.213  0.00  0.00    +0.048 A 
ATOM      5  C   UNL     1       0.023  -2.772  -0.022  0.00  0.00    +0.142 A 
ATOM      6  C   UNL     1       0.021  -2.084   1.188  0.00  0.00    +0.079 A 
ATOM      7  C   UNL     1      -0.009  -0.698   1.202  0.00  0.00    +0.030 A 
ATOM      8  N   UNL     1       0.059  -2.800   2.397  0.00  0.00    -0.263 N 
ATOM      9  C   UNL     1      -0.214  -4.246   2.344  0.00  0.00    +0.155 C 
ATOM     10  C   UNL     1       0.516  -4.811   1.117  0.00  0.00    +0.248 C 
ATOM     11  O   UNL     1       0.051  -4.130  -0.050  0.00  0.00    -0.489 OA
ATOM     12  C   UNL     1       0.335  -2.184   3.564  0.00  0.00    +0.241 C 
ATOM     13  O   UNL     1       0.659  -1.016   3.571  0.00  0.00    -0.273 OA
ENDROOT
BRANCH  12  14
ATOM     14  C   UNL     1       0.242  -2.949   4.859  0.00  0.00    +0.163 C 
ATOM     15  C   UNL     1       1.516  -3.795   5.063  0.00  0.00    +0.033 C 
ATOM     16  C   UNL     1       2.379  -2.905   5.995  0.00  0.00    +0.021 C 
ATOM     17  C   UNL     1       1.297  -2.251   6.890  0.00  0.00    +0.109 C 
ATOM     18  N   UNL     1       0.152  -2.010   5.988  0.00  0.00    -0.283 N 
ATOM     19  C   UNL     1      -0.812  -1.086   6.166  0.00  0.00    +0.320 C 
ATOM     20  O   UNL     1      -1.706  -0.978   5.354  0.00  0.00    -0.266 OA
BRANCH  19  21
ATOM     21  C   UNL     1      -0.779  -0.186   7.375  0.00  0.00    +0.470 C 
ATOM     22  F   UNL     1      -1.875   0.682   7.339  0.00  0.00    -0.162 F 
ATOM     23  F   UNL     1      -0.837  -0.964   8.536  0.00  0.00    -0.162 F 
ATOM     24  F   UNL     1       0.406   0.558   7.370  0.00  0.00    -0.162 F 
ENDBRANCH  19  21
ENDBRANCH  12  14
TORSDOF 2
