REMARK  Name = ZINC62508701
REMARK  5 active torsions:
REMARK  status: ('A' for Active; 'I' for Inactive)
REMARK    1  A    between atoms: C_1  and  N_2
REMARK    2  A    between atoms: C_7  and  N_13
REMARK    3  A    between atoms: C_14  and  C_16
REMARK    4  A    between atoms: N_21  and  C_22
REMARK    5  A    between atoms: C_22  and  C_23
REMARK                            x       y       z     vdW  Elec       q    Type
REMARK                         _______ _______ _______ _____ _____    ______ ____
ROOT
ATOM      1  N   UNL     1      -2.331  -4.183   0.648  0.00  0.00    -0.284 N 
ATOM      2  C   UNL     1      -3.487  -4.868   0.754  0.00  0.00    +0.204 C 
ATOM      3  O   UNL     1      -4.538  -4.327   0.483  0.00  0.00    -0.277 OA
ATOM      4  H   UNL     1      -1.484  -4.637   0.787  0.00  0.00    +0.155 HD
ENDROOT
BRANCH   1  11
ATOM      5  C   UNL     1      -0.006   1.182  -1.202  0.00  0.00    +0.138 C 
ATOM      6  N   UNL     1      -0.158  -0.275  -1.176  0.00  0.00    -0.269 N 
ATOM      7  C   UNL     1      -1.276  -0.864  -0.568  0.00  0.00    +0.080 A 
ATOM      8  C   UNL     1      -2.399  -0.107  -0.269  0.00  0.00    +0.027 A 
ATOM      9  C   UNL     1      -3.493  -0.704   0.331  0.00  0.00    +0.004 A 
ATOM     10  C   UNL     1      -3.471  -2.052   0.635  0.00  0.00    +0.027 A 
ATOM     11  C   UNL     1      -2.351  -2.817   0.339  0.00  0.00    +0.077 A 
ATOM     12  C   UNL     1      -1.250  -2.222  -0.266  0.00  0.00    +0.164 A 
ATOM     13  O   UNL     1      -0.144  -2.955  -0.568  0.00  0.00    -0.479 OA
ATOM     14  C   UNL     1       0.585  -2.567  -1.735  0.00  0.00    +0.325 C 
ATOM     15  C   UNL     1       0.775  -1.071  -1.742  0.00  0.00    +0.257 C 
ATOM     16  O   UNL     1       1.763  -0.586  -2.252  0.00  0.00    -0.272 OA
ENDBRANCH   1  11
BRANCH   2  17
ATOM     17  C   UNL     1      -3.473  -6.305   1.208  0.00  0.00    +0.020 C 
ATOM     18  C   UNL     1      -2.711  -7.192   0.192  0.00  0.00    -0.008 C 
ATOM     19  C   UNL     1      -3.308  -8.596   0.443  0.00  0.00    -0.020 C 
ATOM     20  C   UNL     1      -4.674  -8.339   1.106  0.00  0.00    -0.077 C 
ATOM     21  N   UNL     1      -4.846  -6.871   1.197  0.00  0.00    +0.390 N 
ATOM     22  H   UNL     1      -5.356  -6.532   0.395  0.00  0.00    -0.080 HD
BRANCH  21  23
ATOM     23  C   UNL     1      -5.551  -6.516   2.435  0.00  0.00    -0.039 C 
BRANCH  23  24
ATOM     24  C   UNL     1      -6.979  -6.992   2.355  0.00  0.00    -0.029 A 
ATOM     25  C   UNL     1      -7.986  -6.104   2.027  0.00  0.00    +0.004 A 
ATOM     26  C   UNL     1      -9.296  -6.541   1.953  0.00  0.00    +0.000 A 
ATOM     27  C   UNL     1      -9.599  -7.865   2.208  0.00  0.00    +0.003 A 
ATOM     28  C   UNL     1      -8.594  -8.754   2.537  0.00  0.00    +0.038 A 
ATOM     29  C   UNL     1      -7.281  -8.319   2.605  0.00  0.00    +0.125 A 
ATOM     30  F   UNL     1      -6.296  -9.189   2.922  0.00  0.00    -0.205 F 
ENDBRANCH  23  24
ENDBRANCH  21  23
ENDBRANCH   2  17
TORSDOF 4
