REMARK  Name = ZINC15615059
REMARK  9 active torsions:
REMARK  status: ('A' for Active; 'I' for Inactive)
REMARK    1  A    between atoms: C_1  and  C_2
REMARK    2  A    between atoms: C_2  and  O_3
REMARK    3  A    between atoms: O_3  and  C_4
REMARK    4  A    between atoms: C_4  and  C_6
REMARK    5  A    between atoms: C_13  and  C_15
REMARK    6  A    between atoms: N_18  and  S_21
REMARK    7  A    between atoms: S_21  and  C_24
REMARK    8  A    between atoms: C_27  and  C_31
REMARK    9  A    between atoms: C_29  and  C_30
REMARK                            x       y       z     vdW  Elec       q    Type
REMARK                         _______ _______ _______ _____ _____    ______ ____
ROOT
ATOM      1  C   UNL     1      -1.168  -0.390   2.191  0.00  0.00    +0.078 C 
ATOM      2  C   UNL     1      -1.853  -0.758   0.872  0.00  0.00    +0.030 C 
ATOM      3  C   UNL     1      -1.506  -2.204   0.507  0.00  0.00    +0.110 C 
ATOM      4  N   UNL     1      -1.863  -3.075   1.635  0.00  0.00    -0.177 NA
ATOM      5  C   UNL     1      -1.331  -2.759   2.968  0.00  0.00    +0.110 C 
ATOM      6  C   UNL     1      -1.680  -1.306   3.305  0.00  0.00    +0.030 C 
ENDROOT
BRANCH   1  13
ATOM      7  C   UNL     1       1.126   2.611   0.738  0.00  0.00    +0.115 C 
ATOM      8  C   UNL     1       0.726   4.083   0.866  0.00  0.00    +0.018 C 
ATOM      9  C   UNL     1      -0.115   4.276   2.130  0.00  0.00    +0.020 C 
ATOM     10  C   UNL     1      -1.391   3.435   2.023  0.00  0.00    +0.108 C 
ATOM     11  N   UNL     1      -1.020   2.040   1.753  0.00  0.00    -0.300 N 
ATOM     12  C   UNL     1      -0.136   1.752   0.615  0.00  0.00    +0.122 C 
ATOM     13  C   UNL     1      -1.479   1.043   2.536  0.00  0.00    +0.219 C 
ATOM     14  O   UNL     1      -2.143   1.300   3.518  0.00  0.00    -0.275 OA
BRANCH   7  15
ATOM     15  C   UNL     1       1.981   2.428  -0.490  0.00  0.00    +0.312 C 
ATOM     16  O   UNL     1       1.621   1.684  -1.371  0.00  0.00    -0.250 OA
BRANCH  15  17
ATOM     17  O   UNL     1       3.143   3.091  -0.604  0.00  0.00    -0.465 OA
BRANCH  17  19
ATOM     18  C   UNL     1       5.196   3.700  -1.763  0.00  0.00    +0.048 C 
ATOM     19  C   UNL     1       3.914   2.865  -1.813  0.00  0.00    +0.229 C 
ENDBRANCH  17  19
ENDBRANCH  15  17
ENDBRANCH   7  15
ENDBRANCH   1  13
BRANCH   4  20
ATOM     20  S   UNL     1      -2.845  -4.389   1.409  0.00  0.00    +0.061 S 
ATOM     21  O   UNL     1      -2.602  -4.856   0.089  0.00  0.00    -0.153 OA
ATOM     22  O   UNL     1      -2.684  -5.218   2.552  0.00  0.00    -0.153 OA
BRANCH  20  23
ATOM     23  C   UNL     1      -4.508  -3.808   1.439  0.00  0.00    +0.108 A 
ATOM     24  C   UNL     1      -5.260  -3.802   0.279  0.00  0.00    +0.029 A 
ATOM     25  C   UNL     1      -6.566  -3.350   0.303  0.00  0.00    +0.005 A 
ATOM     26  C   UNL     1      -7.117  -2.894   1.486  0.00  0.00    -0.050 A 
ATOM     27  C   UNL     1      -6.364  -2.895   2.645  0.00  0.00    +0.008 A 
ATOM     28  C   UNL     1      -5.060  -3.351   2.622  0.00  0.00    -0.024 A 
ATOM     29  C   UNL     1      -4.238  -3.352   3.885  0.00  0.00    +0.046 C 
ATOM     30  C   UNL     1      -8.540  -2.396   1.512  0.00  0.00    +0.044 C 
ENDBRANCH  20  23
ENDBRANCH   4  20
TORSDOF 6
