REMARK  Name = ZINC66625307
REMARK  5 active torsions:
REMARK  status: ('A' for Active; 'I' for Inactive)
REMARK    1  A    between atoms: C_1  and  N_2
REMARK    2  A    between atoms: C_3  and  C_8
REMARK    3  A    between atoms: C_8  and  N_9
REMARK    4  A    between atoms: C_10  and  C_12
REMARK    5  A    between atoms: C_17  and  O_18
REMARK                            x       y       z     vdW  Elec       q    Type
REMARK                         _______ _______ _______ _____ _____    ______ ____
ROOT
ATOM      1  N   UNL     1      -0.882   5.311  -1.377  0.00  0.00    -0.304 N 
ATOM      2  C   UNL     1      -0.576   6.507  -0.837  0.00  0.00    +0.248 C 
ATOM      3  O   UNL     1       0.042   6.562   0.208  0.00  0.00    -0.270 OA
ATOM      4  H   UNL     1      -1.375   5.267  -2.211  0.00  0.00    +0.149 HD
ENDROOT
BRANCH   2   5
ATOM      5  C   UNL     1      -0.991   7.749  -1.514  0.00  0.00    +0.080 A 
ATOM      6  C   UNL     1      -1.707   7.690  -2.713  0.00  0.00    +0.018 A 
ATOM      7  C   UNL     1      -2.092   8.854  -3.342  0.00  0.00    +0.022 A 
ATOM      8  C   UNL     1      -1.773  10.086  -2.791  0.00  0.00    +0.063 A 
ATOM      9  C   UNL     1      -1.065  10.158  -1.605  0.00  0.00    +0.101 A 
ATOM     10  C   UNL     1      -0.675   8.995  -0.956  0.00  0.00    +0.149 A 
ATOM     11 CL   UNL     1      -0.671  11.706  -0.924  0.00  0.00    -0.078 Cl
ATOM     12 CL   UNL     1      -2.264  11.544  -3.594  0.00  0.00    -0.082 Cl
BRANCH  10  13
ATOM     13  O   UNL     1       0.014   9.064   0.210  0.00  0.00    -0.504 OA
ATOM     14  H   UNL     1       0.974   9.093   0.099  0.00  0.00    +0.292 HD
ENDBRANCH  10  13
ENDBRANCH   2   5
BRANCH   1  15
ATOM     15  C   UNL     1      -0.469   4.076  -0.704  0.00  0.00    +0.181 C 
BRANCH  15  18
ATOM     16  C   UNL     1      -0.013   1.086   0.008  0.00  0.00    +0.152 C 
ATOM     17  N   UNL     1      -0.721   1.571  -1.179  0.00  0.00    -0.309 N 
ATOM     18  C   UNL     1      -0.931   2.888  -1.508  0.00  0.00    +0.149 A 
ATOM     19  N   UNL     1      -1.590   2.941  -2.620  0.00  0.00    -0.157 NA
ATOM     20  N   UNL     1      -1.829   1.628  -3.048  0.00  0.00    -0.254 N 
ATOM     21  C   UNL     1      -1.274   0.801  -2.138  0.00  0.00    +0.175 A 
ATOM     22  S   UNL     1      -1.274  -0.910  -2.189  0.00  0.00    -0.011 S 
ATOM     23  H   UNL     1      -2.303   1.363  -3.852  0.00  0.00    +0.191 HD
ENDBRANCH  15  18
ENDBRANCH   1  15
TORSDOF 4
