REMARK  Name = ZINC63233046
REMARK  2 active torsions:
REMARK  status: ('A' for Active; 'I' for Inactive)
REMARK    1  A    between atoms: C_1  and  C_2
REMARK    2  A    between atoms: C_2  and  N_3
REMARK                            x       y       z     vdW  Elec       q    Type
REMARK                         _______ _______ _______ _____ _____    ______ ____
ROOT
ATOM      1  N   UNL     1       0.688  -0.476  -1.203  0.00  0.00    -0.252 N 
ATOM      2  C   UNL     1       0.071  -0.726  -2.377  0.00  0.00    +0.242 C 
ATOM      3  O   UNL     1      -1.104  -0.576  -2.634  0.00  0.00    -0.273 OA
ATOM      4  C   UNL     1       1.153  -1.232  -3.307  0.00  0.00    +0.166 C 
ATOM      5  C   UNL     1       1.251  -0.321  -4.543  0.00  0.00    +0.065 C 
ATOM      6  C   UNL     1       2.649  -0.495  -5.089  0.00  0.00    -0.035 C 
ATOM      7  C   UNL     1       3.068  -0.827  -6.305  0.00  0.00    -0.001 A 
ATOM      8  C   UNL     1       2.339  -1.046  -7.565  0.00  0.00    +0.010 A 
ATOM      9  C   UNL     1       3.092  -1.401  -8.639  0.00  0.00    +0.001 A 
ATOM     10  C   UNL     1       4.481  -1.557  -8.587  0.00  0.00    +0.002 A 
ATOM     11  C   UNL     1       5.233  -1.368  -7.473  0.00  0.00    +0.026 A 
ATOM     12  C   UNL     1       4.554  -0.985  -6.280  0.00  0.00    +0.043 A 
ATOM     13  N   UNL     1       5.018  -0.725  -5.094  0.00  0.00    -0.376 N 
ATOM     14  C   UNL     1       3.901  -0.318  -4.239  0.00  0.00    +0.124 C 
ATOM     15  C   UNL     1       3.752  -1.248  -3.026  0.00  0.00    +0.136 C 
ATOM     16  N   UNL     1       2.384  -1.086  -2.505  0.00  0.00    -0.298 N 
ATOM     17  C   UNL     1       2.006  -0.709  -1.278  0.00  0.00    +0.143 C 
ATOM     18  S   UNL     1       3.080  -0.547   0.045  0.00  0.00    -0.018 S 
ATOM     19  H   UNL     1       5.947  -0.788  -4.822  0.00  0.00    +0.160 HD
ENDROOT
BRANCH   1  21
ATOM     20  C   UNL     1      -0.019   1.526   0.010  0.00  0.00    +0.025 C 
ATOM     21  C   UNL     1       0.002  -0.004   0.002  0.00  0.00    +0.112 C 
ENDBRANCH   1  21
TORSDOF 1
