REMARK  Name = ZINC62129302
REMARK  9 active torsions:
REMARK  status: ('A' for Active; 'I' for Inactive)
REMARK    1  A    between atoms: C_1  and  O_2
REMARK    2  A    between atoms: O_2  and  C_3
REMARK    3  A    between atoms: C_6  and  C_11
REMARK    4  A    between atoms: C_8  and  O_9
REMARK    5  A    between atoms: O_9  and  C_10
REMARK    6  A    between atoms: C_11  and  C_12
REMARK    7  A    between atoms: C_17  and  C_20
REMARK    8  A    between atoms: C_20  and  N_21
REMARK    9  A    between atoms: C_25  and  C_26
REMARK                            x       y       z     vdW  Elec       q    Type
REMARK                         _______ _______ _______ _____ _____    ______ ____
ROOT
ATOM      1  C   UNL     1      -5.704  -2.199  -2.350  0.00  0.00    +0.220 C 
ATOM      2  O   UNL     1      -5.209  -1.850  -3.401  0.00  0.00    -0.275 OA
ATOM      3  N   UNL     1      -6.836  -2.930  -2.349  0.00  0.00    -0.301 N 
ATOM      4  C   UNL     1      -7.452  -3.356  -1.085  0.00  0.00    +0.108 C 
ATOM      5  C   UNL     1      -7.652  -4.874  -1.120  0.00  0.00    +0.024 C 
ATOM      6  C   UNL     1      -8.455  -5.250  -2.367  0.00  0.00    +0.012 C 
ATOM      7  C   UNL     1      -7.679  -4.836  -3.619  0.00  0.00    +0.024 C 
ATOM      8  C   UNL     1      -7.482  -3.313  -3.613  0.00  0.00    +0.108 C 
ENDROOT
BRANCH   1   9
ATOM      9  C   UNL     1      -5.054  -1.815  -1.046  0.00  0.00    +0.131 C 
BRANCH   9  13
ATOM     10  C   UNL     1      -1.536   0.486  -1.830  0.00  0.00    +0.161 A 
ATOM     11  C   UNL     1      -2.760   1.117  -1.674  0.00  0.00    +0.049 A 
ATOM     12  C   UNL     1      -3.895   0.370  -1.421  0.00  0.00    +0.008 A 
ATOM     13  C   UNL     1      -3.813  -1.006  -1.323  0.00  0.00    -0.035 A 
ATOM     14  C   UNL     1      -2.595  -1.642  -1.476  0.00  0.00    +0.053 A 
ATOM     15  C   UNL     1      -1.454  -0.900  -1.736  0.00  0.00    +0.162 A 
BRANCH  10  17
ATOM     16  C   UNL     1      -0.577   2.637  -2.162  0.00  0.00    +0.277 C 
ATOM     17  O   UNL     1      -0.418   1.219  -2.079  0.00  0.00    -0.491 OA
ENDBRANCH  10  17
BRANCH  15  18
ATOM     18  O   UNL     1      -0.256  -1.524  -1.894  0.00  0.00    -0.491 OA
ATOM     19  C   UNL     1      -0.248  -2.949  -1.784  0.00  0.00    +0.277 C 
ENDBRANCH  15  18
ENDBRANCH   9  13
ENDBRANCH   1   9
BRANCH   6  20
ATOM     20  C   UNL     1      -8.687  -6.762  -2.387  0.00  0.00    +0.127 C 
BRANCH  20  21
ATOM     21  N   UNL     1      -9.528  -7.112  -3.535  0.00  0.00    -0.332 N 
ATOM     22  C   UNL     1      -9.111  -7.688  -4.704  0.00  0.00    +0.105 A 
ATOM     23  C   UNL     1     -10.202  -7.836  -5.483  0.00  0.00    +0.102 A 
ATOM     24  N   UNL     1     -11.262  -7.366  -4.816  0.00  0.00    -0.346 N 
ATOM     25  C   UNL     1     -10.876  -6.931  -3.638  0.00  0.00    +0.119 A 
ATOM     26  H   UNL     1     -12.174  -7.353  -5.149  0.00  0.00    +0.167 HD
BRANCH  25  27
ATOM     27  C   UNL     1     -11.752  -6.341  -2.602  0.00  0.00    +0.016 A 
ATOM     28  C   UNL     1     -11.527  -6.619  -1.254  0.00  0.00    +0.011 A 
ATOM     29  C   UNL     1     -12.348  -6.065  -0.292  0.00  0.00    +0.001 A 
ATOM     30  C   UNL     1     -13.392  -5.237  -0.664  0.00  0.00    +0.000 A 
ATOM     31  C   UNL     1     -13.620  -4.957  -1.999  0.00  0.00    +0.001 A 
ATOM     32  C   UNL     1     -12.803  -5.500  -2.970  0.00  0.00    +0.011 A 
ENDBRANCH  25  27
ENDBRANCH  20  21
ENDBRANCH   6  20
TORSDOF 7
