REMARK  Name = ZINC37390851
REMARK  3 active torsions:
REMARK  status: ('A' for Active; 'I' for Inactive)
REMARK    1  A    between atoms: C_4  and  C_7
REMARK    2  A    between atoms: C_7  and  C_8
REMARK    3  A    between atoms: C_17  and  C_19
REMARK                            x       y       z     vdW  Elec       q    Type
REMARK                         _______ _______ _______ _____ _____    ______ ____
ROOT
ATOM      1  C   UNL     1       4.169  -0.970   1.393  0.00  0.00    -0.004 C 
ATOM      2  C   UNL     1       3.184  -1.915   2.086  0.00  0.00    +0.023 C 
ATOM      3  C   UNL     1       3.630  -2.138   3.534  0.00  0.00    +0.109 C 
ATOM      4  N   UNL     1       5.021  -2.611   3.534  0.00  0.00    -0.285 N 
ATOM      5  C   UNL     1       6.034  -1.824   2.818  0.00  0.00    +0.109 C 
ATOM      6  C   UNL     1       5.562  -1.604   1.378  0.00  0.00    +0.023 C 
ATOM      7  C   UNL     1       5.360  -3.745   4.177  0.00  0.00    +0.308 C 
ATOM      8  O   UNL     1       4.533  -4.338   4.841  0.00  0.00    -0.252 OA
ATOM      9  N   UNL     1       6.618  -4.222   4.085  0.00  0.00    -0.239 N 
ATOM     10  C   UNL     1       6.931  -5.409   4.641  0.00  0.00    +0.235 C 
ATOM     11  O   UNL     1       6.082  -6.048   5.226  0.00  0.00    -0.274 OA
ATOM     12  H   UNL     1       7.297  -3.711   3.617  0.00  0.00    +0.159 HD
ENDROOT
BRANCH  10  13
ATOM     13  C   UNL     1       8.337  -5.942   4.537  0.00  0.00    +0.204 C 
ATOM     14 CL   UNL     1       8.439  -7.536   5.375  0.00  0.00    -0.116 Cl
ENDBRANCH  10  13
BRANCH   1  15
ATOM     15  C   UNL     1       3.708  -0.718  -0.044  0.00  0.00    +0.038 C 
BRANCH  15  19
ATOM     16  C   UNL     1      -0.021   1.366   0.000  0.00  0.00    +0.000 A 
ATOM     17  C   UNL     1       1.167   2.074  -0.009  0.00  0.00    +0.000 A 
ATOM     18  C   UNL     1       2.373   1.400  -0.024  0.00  0.00    +0.003 A 
ATOM     19  C   UNL     1       2.393   0.018  -0.027  0.00  0.00    -0.047 A 
ATOM     20  C   UNL     1       1.205  -0.690  -0.017  0.00  0.00    +0.003 A 
ATOM     21  C   UNL     1      -0.001  -0.016  -0.004  0.00  0.00    +0.000 A 
ENDBRANCH  15  19
ENDBRANCH   1  15
TORSDOF 3
