REMARK  Name = ZINC02868954
REMARK  4 active torsions:
REMARK  status: ('A' for Active; 'I' for Inactive)
REMARK    1  A    between atoms: C_1  and  C_2
REMARK    2  A    between atoms: C_5  and  C_8
REMARK    3  A    between atoms: C_11  and  C_19
REMARK    4  A    between atoms: C_22  and  C_25
REMARK                            x       y       z     vdW  Elec       q    Type
REMARK                         _______ _______ _______ _____ _____    ______ ____
ROOT
ATOM      1  C   UNL     1       0.059  -4.275  -0.021  0.00  0.00    +0.106 C 
ATOM      2  C   UNL     1       1.488  -4.773   0.227  0.00  0.00    +0.059 C 
ATOM      3  C   UNL     1       2.009  -4.213   1.557  0.00  0.00    +0.144 C 
ATOM      4  N   UNL     1       1.003  -4.445   2.590  0.00  0.00    -0.206 N 
ATOM      5  C   UNL     1      -0.304  -4.714   2.342  0.00  0.00    +0.236 A 
ATOM      6  N   UNL     1      -0.894  -4.865   3.494  0.00  0.00    -0.092 NA
ATOM      7  N   UNL     1      -0.048  -4.708   4.454  0.00  0.00    -0.021 NA
ATOM      8  N   UNL     1       1.128  -4.449   3.979  0.00  0.00    -0.042 NA
ATOM      9  N   UNL     1      -0.816  -4.788   1.051  0.00  0.00    -0.305 N 
ATOM     10  H   UNL     1      -1.694  -5.155   0.864  0.00  0.00    +0.150 HD
ENDROOT
BRANCH   1  15
ATOM     11  C   UNL     1      -0.018   1.503   0.010  0.00  0.00    +0.044 C 
ATOM     12  C   UNL     1       0.002  -0.004   0.002  0.00  0.00    -0.050 A 
ATOM     13  C   UNL     1       0.006  -0.689  -1.199  0.00  0.00    +0.004 A 
ATOM     14  C   UNL     1       0.025  -2.071  -1.206  0.00  0.00    +0.006 A 
ATOM     15  C   UNL     1       0.040  -2.768  -0.013  0.00  0.00    -0.027 A 
ATOM     16  C   UNL     1       0.037  -2.084   1.188  0.00  0.00    +0.006 A 
ATOM     17  C   UNL     1       0.023  -0.702   1.195  0.00  0.00    +0.004 A 
ENDBRANCH   1  15
BRANCH   3  18
ATOM     18  C   UNL     1       3.292  -4.910   1.931  0.00  0.00    -0.023 A 
ATOM     19  C   UNL     1       3.306  -6.280   2.113  0.00  0.00    +0.006 A 
ATOM     20  C   UNL     1       4.482  -6.920   2.456  0.00  0.00    +0.004 A 
ATOM     21  C   UNL     1       5.645  -6.189   2.616  0.00  0.00    -0.050 A 
ATOM     22  C   UNL     1       5.631  -4.819   2.433  0.00  0.00    +0.004 A 
ATOM     23  C   UNL     1       4.455  -4.180   2.086  0.00  0.00    +0.006 A 
ATOM     24  C   UNL     1       6.927  -6.886   2.991  0.00  0.00    +0.044 C 
ENDBRANCH   3  18
TORSDOF 2
