REMARK  Name = ZINC61118607
REMARK  4 active torsions:
REMARK  status: ('A' for Active; 'I' for Inactive)
REMARK    1  A    between atoms: C_1  and  C_2
REMARK    2  A    between atoms: C_4  and  N_9
REMARK    3  A    between atoms: C_10  and  C_12
REMARK    4  A    between atoms: C_16  and  N_18
REMARK                            x       y       z     vdW  Elec       q    Type
REMARK                         _______ _______ _______ _____ _____    ______ ____
ROOT
ATOM      1  N   UNL     1       0.028  -2.771  -2.420  0.00  0.00    -0.281 N 
ATOM      2  C   UNL     1       0.149  -4.113  -2.429  0.00  0.00    +0.248 C 
ATOM      3  O   UNL     1       0.163  -4.729  -1.381  0.00  0.00    -0.270 OA
ATOM      4  H   UNL     1      -0.060  -2.286  -3.256  0.00  0.00    +0.155 HD
ENDROOT
BRANCH   1   8
ATOM      5  C   UNL     1       1.623  -2.352   2.212  0.00  0.00    +0.047 C 
ATOM      6  C   UNL     1       0.795  -1.850   1.056  0.00  0.00    -0.014 A 
ATOM      7  C   UNL     1       0.794  -2.538  -0.142  0.00  0.00    +0.029 A 
ATOM      8  C   UNL     1       0.031  -2.075  -1.206  0.00  0.00    +0.034 A 
ATOM      9  C   UNL     1      -0.729  -0.922  -1.063  0.00  0.00    +0.026 A 
ATOM     10  C   UNL     1      -0.724  -0.237   0.136  0.00  0.00    +0.040 A 
ATOM     11  C   UNL     1       0.033  -0.703   1.198  0.00  0.00    +0.126 A 
ATOM     12  F   UNL     1       0.032  -0.035   2.372  0.00  0.00    -0.205 F 
ENDBRANCH   1   8
BRANCH   2  13
ATOM     13  C   UNL     1       0.264  -4.836  -3.712  0.00  0.00    +0.039 A 
ATOM     14  C   UNL     1       0.253  -4.131  -4.918  0.00  0.00    +0.014 A 
ATOM     15  C   UNL     1       0.360  -4.812  -6.112  0.00  0.00    +0.023 A 
ATOM     16  C   UNL     1       0.478  -6.192  -6.117  0.00  0.00    +0.071 A 
ATOM     17  C   UNL     1       0.488  -6.897  -4.925  0.00  0.00    +0.145 A 
ATOM     18  C   UNL     1       0.388  -6.227  -3.724  0.00  0.00    +0.047 A 
ATOM     19 CL   UNL     1       0.612  -7.042  -7.625  0.00  0.00    -0.081 Cl
BRANCH  17  20
ATOM     20  N   UNL     1       0.614  -8.372  -4.940  0.00  0.00    +0.058 N 
ATOM     21  O   UNL     1       0.623  -8.988  -3.900  0.00  0.00    -0.126 OA
ATOM     22  O   UNL     1       0.707  -8.960  -5.992  0.00  0.00    -0.126 OA
ENDBRANCH  17  20
ENDBRANCH   2  13
TORSDOF 3
