REMARK  Name = ZINC08568085
REMARK  6 active torsions:
REMARK  status: ('A' for Active; 'I' for Inactive)
REMARK    1  A    between atoms: C_1  and  C_2
REMARK    2  A    between atoms: C_2  and  C_3
REMARK    3  A    between atoms: C_3  and  C_4
REMARK    4  A    between atoms: C_4  and  C_5
REMARK    5  A    between atoms: C_12  and  N_27
REMARK    6  A    between atoms: C_13  and  C_25
REMARK                            x       y       z     vdW  Elec       q    Type
REMARK                         _______ _______ _______ _____ _____    ______ ____
ROOT
ATOM      1  C   UNL     1       1.492  -2.540   2.454  0.00  0.00    +0.045 A 
ATOM      2  C   UNL     1       0.959  -2.734   3.670  0.00  0.00    +0.061 A 
ATOM      3  C   UNL     1       1.980  -3.208   4.525  0.00  0.00    +0.245 A 
ATOM      4  N   UNL     1       3.079  -3.289   3.833  0.00  0.00    -0.135 NA
ATOM      5  N   UNL     1       2.800  -2.879   2.520  0.00  0.00    -0.278 N 
ATOM      6  H   UNL     1       3.435  -2.843   1.788  0.00  0.00    +0.189 HD
ATOM      7  O   UNL     1       1.745  -3.500   5.832  0.00  0.00    -0.421 OA
ATOM      8  C   UNL     1       0.462  -3.579   6.237  0.00  0.00    +0.201 C 
ATOM      9  C   UNL     1      -0.596  -3.149   5.513  0.00  0.00    +0.110 C 
ATOM     10  C   UNL     1      -0.448  -2.521   4.155  0.00  0.00    +0.145 C 
ATOM     11  C   UNL     1      -0.799  -1.069   4.184  0.00  0.00    -0.000 A 
ATOM     12  C   UNL     1      -0.258  -0.010   4.881  0.00  0.00    +0.027 A 
ATOM     13  C   UNL     1      -0.831   1.241   4.675  0.00  0.00    +0.041 A 
ATOM     14  C   UNL     1      -1.894   1.411   3.810  0.00  0.00    +0.022 A 
ATOM     15  C   UNL     1      -2.443   0.350   3.106  0.00  0.00    +0.025 A 
ATOM     16  C   UNL     1      -1.877  -0.910   3.304  0.00  0.00    +0.038 A 
ATOM     17  N   UNL     1      -2.222  -2.127   2.741  0.00  0.00    -0.284 N 
ATOM     18  C   UNL     1      -1.436  -3.130   3.185  0.00  0.00    +0.238 C 
ATOM     19  O   UNL     1      -1.508  -4.298   2.866  0.00  0.00    -0.274 OA
ATOM     20 CL   UNL     1      -0.198   2.617   5.523  0.00  0.00    -0.084 Cl
ATOM     21  H   UNL     1      -2.943  -2.244   2.104  0.00  0.00    +0.155 HD
ENDROOT
BRANCH   8  22
ATOM     22  N   UNL     1       0.211  -4.134   7.467  0.00  0.00    -0.328 N 
ATOM     23  H   UNL     1       0.947  -4.454   8.014  0.00  0.00    +0.145 HD
ATOM     24  H   UNL     1      -0.700  -4.207   7.790  0.00  0.00    +0.145 HD
ENDBRANCH   8  22
BRANCH   9  25
ATOM     25  C   UNL     1      -1.910  -3.296   6.062  0.00  0.00    +0.102 C 
ATOM     26  N   UNL     1      -2.953  -3.413   6.498  0.00  0.00    -0.191 NA
ENDBRANCH   9  25
BRANCH   1  27
ATOM     27  C   UNL     1       0.763  -2.041   1.233  0.00  0.00    +0.055 C 
BRANCH  27  28
ATOM     28  C   UNL     1       0.742  -0.511   1.242  0.00  0.00    +0.006 C 
BRANCH  28  30
ATOM     29  C   UNL     1      -0.019   1.526   0.010  0.00  0.00    +0.004 C 
ATOM     30  C   UNL     1       0.002  -0.004   0.002  0.00  0.00    -0.003 C 
ENDBRANCH  28  30
ENDBRANCH  27  28
ENDBRANCH   1  27
TORSDOF 5
