REMARK  Name = ZINC06908086
REMARK  8 active torsions:
REMARK  status: ('A' for Active; 'I' for Inactive)
REMARK    1  A    between atoms: C_1  and  C_2
REMARK    2  A    between atoms: C_2  and  N_3
REMARK    3  A    between atoms: C_7  and  S_20
REMARK    4  A    between atoms: C_11  and  C_12
REMARK    5  A    between atoms: C_12  and  N_63
REMARK    6  A    between atoms: C_13  and  N_63
REMARK    7  A    between atoms: C_14  and  N_63
REMARK    8  A    between atoms: S_20  and  N_23
REMARK                            x       y       z     vdW  Elec       q    Type
REMARK                         _______ _______ _______ _____ _____    ______ ____
ROOT
ATOM      1  N   UNL     1      -2.564   3.541   0.046  0.00  0.00    -0.329 N 
ATOM      2  C   UNL     1      -1.236   3.164   0.031  0.00  0.00    +0.069 A 
ATOM      3  C   UNL     1      -0.034   3.859   0.024  0.00  0.00    +0.030 A 
ATOM      4  C   UNL     1       1.156   3.164   0.008  0.00  0.00    +0.030 A 
ATOM      5  C   UNL     1       1.160   1.776   0.001  0.00  0.00    +0.108 A 
ATOM      6  C   UNL     1      -0.013   1.076   0.008  0.00  0.00    +0.058 A 
ATOM      7  C   UNL     1      -1.231   1.759   0.017  0.00  0.00    +0.091 A 
ATOM      8  N   UNL     1      -2.529   1.359   0.021  0.00  0.00    -0.234 NA
ATOM      9  C   UNL     1      -3.308   2.402   0.031  0.00  0.00    +0.094 A 
ENDROOT
BRANCH   5  10
ATOM     10  S   UNL     1       2.694   0.908  -0.019  0.00  0.00    +0.061 S 
ATOM     11  O   UNL     1       3.666   1.789   0.527  0.00  0.00    -0.153 OA
ATOM     12  O   UNL     1       2.439  -0.379   0.526  0.00  0.00    -0.153 OA
BRANCH  10  13
ATOM     13  N   UNL     1       3.104   0.676  -1.607  0.00  0.00    -0.177 NA
ATOM     14  C   UNL     1       2.673  -0.532  -2.323  0.00  0.00    +0.109 C 
ATOM     15  C   UNL     1       1.947  -0.105  -3.608  0.00  0.00    +0.017 C 
ATOM     16  C   UNL     1       2.861   0.815  -4.421  0.00  0.00    +0.003 C 
ATOM     17  C   UNL     1       3.178   2.071  -3.608  0.00  0.00    +0.017 C 
ATOM     18  C   UNL     1       3.913   1.672  -2.324  0.00  0.00    +0.109 C 
ENDBRANCH  10  13
ENDBRANCH   5  10
BRANCH   1  20
ATOM     19  C   UNL     1      -3.271   5.399  -1.378  0.00  0.00    +0.027 C 
ATOM     20  C   UNL     1      -3.077   4.913   0.060  0.00  0.00    +0.120 C 
ENDBRANCH   1  20
BRANCH   9  21
ATOM     21  C   UNL     1      -4.814   2.354   0.038  0.00  0.00    -0.003 C 
BRANCH  21  23
ATOM     22  C   UNL     1      -4.983   3.591   2.113  0.00  0.00    -0.095 C 
ATOM     23  N   UNL     1      -5.282   2.310   1.440  0.00  0.00    +0.384 N 
ATOM     24  H   UNL     1      -4.793   1.552   1.931  0.00  0.00    -0.081 HD
BRANCH  23  25
ATOM     25  C   UNL     1      -6.737   2.047   1.478  0.00  0.00    -0.068 C 
ATOM     26  C   UNL     1      -7.507   3.194   0.820  0.00  0.00    -0.015 C 
ATOM     27  C   UNL     1      -9.007   2.898   0.875  0.00  0.00    -0.002 C 
ATOM     28  C   UNL     1      -9.447   2.759   2.333  0.00  0.00    -0.000 C 
ATOM     29  C   UNL     1      -8.677   1.612   2.991  0.00  0.00    -0.002 C 
ATOM     30  C   UNL     1      -7.176   1.907   2.937  0.00  0.00    -0.015 C 
ENDBRANCH  23  25
ENDBRANCH  21  23
ENDBRANCH   9  21
TORSDOF 6
