REMARK  Name = ZINC14456403
REMARK  5 active torsions:
REMARK  status: ('A' for Active; 'I' for Inactive)
REMARK    1  A    between atoms: C_1  and  C_2
REMARK    2  A    between atoms: C_5  and  C_7
REMARK    3  A    between atoms: C_17  and  N_25
REMARK    4  A    between atoms: C_20  and  O_23
REMARK    5  A    between atoms: O_23  and  C_24
REMARK                            x       y       z     vdW  Elec       q    Type
REMARK                         _______ _______ _______ _____ _____    ______ ____
ROOT
ATOM      1  C   UNL     1       1.876   1.815   0.236  0.00  0.00    +0.112 C 
ATOM      2  C   UNL     1       2.302   1.606  -1.202  0.00  0.00    +0.029 C 
ATOM      3  C   UNL     1       1.298   0.961  -2.164  0.00  0.00    +0.033 C 
ATOM      4  C   UNL     1       1.708   1.588  -3.498  0.00  0.00    -0.030 C 
ATOM      5  C   UNL     1       2.290   2.764  -3.287  0.00  0.00    -0.023 C 
ATOM      6  C   UNL     1       2.286   3.036  -1.828  0.00  0.00    +0.051 C 
ATOM      7  C   UNL     1       3.357   3.805  -1.158  0.00  0.00    +0.014 A 
ATOM      8  C   UNL     1       4.070   4.785  -1.820  0.00  0.00    +0.132 A 
ATOM      9  C   UNL     1       5.057   5.498  -1.169  0.00  0.00    +0.037 A 
ATOM     10  C   UNL     1       5.331   5.230   0.161  0.00  0.00    +0.050 A 
ATOM     11  C   UNL     1       4.627   4.249   0.831  0.00  0.00    +0.141 A 
ATOM     12  C   UNL     1       3.629   3.514   0.179  0.00  0.00    +0.076 A 
ATOM     13  N   UNL     1       2.974   2.522   0.915  0.00  0.00    -0.333 N 
ATOM     14  H   UNL     1       2.677   2.873   1.814  0.00  0.00    +0.147 HD
ENDROOT
BRANCH   1  19
ATOM     15  C   UNL     1      -2.226   5.717   0.436  0.00  0.00    +0.051 C 
ATOM     16  C   UNL     1      -1.332   4.505   0.380  0.00  0.00    -0.013 A 
ATOM     17  C   UNL     1      -1.674   3.194   0.331  0.00  0.00    +0.011 A 
ATOM     18  C   UNL     1      -0.673   2.242   0.287  0.00  0.00    +0.013 A 
ATOM     19  C   UNL     1       0.621   2.647   0.285  0.00  0.00    +0.010 A 
ATOM     20  S   UNL     1       0.451   4.423   0.352  0.00  0.00    -0.097 S 
ENDBRANCH   1  19
BRANCH   8  21
ATOM     21  N   UNL     1       3.775   5.071  -3.242  0.00  0.00    +0.057 N 
ATOM     22  O   UNL     1       4.680   5.104  -4.057  0.00  0.00    -0.126 OA
ATOM     23  O   UNL     1       2.628   5.274  -3.597  0.00  0.00    -0.126 OA
ENDBRANCH   8  21
BRANCH  11  24
ATOM     24  O   UNL     1       4.906   3.995   2.137  0.00  0.00    -0.493 OA
ATOM     25  C   UNL     1       5.934   4.779   2.746  0.00  0.00    +0.277 C 
ENDBRANCH  11  24
TORSDOF 3
