REMARK  Name = ZINC50980138
REMARK  7 active torsions:
REMARK  status: ('A' for Active; 'I' for Inactive)
REMARK    1  A    between atoms: C_1  and  O_2
REMARK    2  A    between atoms: O_2  and  N_3
REMARK    3  A    between atoms: C_4  and  C_5
REMARK    4  A    between atoms: C_8  and  C_11
REMARK    5  A    between atoms: C_13  and  C_14
REMARK    6  A    between atoms: C_13  and  C_16
REMARK    7  A    between atoms: N_18  and  C_19
REMARK                            x       y       z     vdW  Elec       q    Type
REMARK                         _______ _______ _______ _____ _____    ______ ____
ROOT
ATOM      1  C   UNL     1      -6.608  -4.325   0.342  0.00  0.00    +0.208 C 
ATOM      2  O   UNL     1      -7.720  -3.578   0.503  0.00  0.00    -0.286 OA
ATOM      3  C   UNL     1      -6.716  -5.665  -0.010  0.00  0.00    +0.161 C 
ENDROOT
BRANCH   1   7
ATOM      4  C   UNL     1      -2.787  -2.585   0.905  0.00  0.00    -0.004 A 
ATOM      5  C   UNL     1      -3.123  -3.147  -0.330  0.00  0.00    +0.010 A 
ATOM      6  C   UNL     1      -4.355  -3.708  -0.512  0.00  0.00    +0.012 A 
ATOM      7  C   UNL     1      -5.280  -3.721   0.537  0.00  0.00    +0.023 A 
ATOM      8  C   UNL     1      -4.943  -3.158   1.774  0.00  0.00    +0.012 A 
ATOM      9  C   UNL     1      -3.708  -2.602   1.956  0.00  0.00    +0.010 A 
BRANCH   4  11
ATOM     10  N   UNL     1      -0.602  -1.963   0.129  0.00  0.00    -0.093 NA
ATOM     11  C   UNL     1      -1.456  -1.979   1.102  0.00  0.00    +0.160 C 
BRANCH  10  13
ATOM     12  C   UNL     1       1.514  -1.434  -0.838  0.00  0.00    +0.313 C 
ATOM     13  O   UNL     1       0.675  -1.382   0.318  0.00  0.00    -0.397 OA
ENDBRANCH  10  13
ENDBRANCH   4  11
ENDBRANCH   1   7
BRANCH   3  14
ATOM     14  C   UNL     1      -5.522  -6.516  -0.033  0.00  0.00    +0.262 C 
ATOM     15  O   UNL     1      -4.424  -6.030   0.170  0.00  0.00    -0.269 OA
ATOM     16  N   UNL     1      -5.639  -7.836  -0.279  0.00  0.00    -0.280 N 
ATOM     17  H   UNL     1      -6.518  -8.235  -0.376  0.00  0.00    +0.155 HD
BRANCH  16  18
ATOM     18  C   UNL     1      -4.494  -8.631  -0.393  0.00  0.00    +0.054 A 
ATOM     19  C   UNL     1      -3.363  -8.334   0.356  0.00  0.00    +0.025 A 
ATOM     20  C   UNL     1      -2.234  -9.121   0.242  0.00  0.00    +0.003 A 
ATOM     21  C   UNL     1      -2.227 -10.204  -0.618  0.00  0.00    +0.021 A 
ATOM     22  C   UNL     1      -3.351 -10.503  -1.367  0.00  0.00    +0.061 A 
ATOM     23  C   UNL     1      -4.487  -9.723  -1.253  0.00  0.00    +0.080 A 
ATOM     24 CL   UNL     1      -5.900 -10.102  -2.188  0.00  0.00    -0.080 Cl
ATOM     25 CL   UNL     1      -3.337 -11.863  -2.447  0.00  0.00    -0.082 Cl
ENDBRANCH  16  18
ENDBRANCH   3  14
BRANCH   3  26
ATOM     26  C   UNL     1      -7.994  -6.215  -0.350  0.00  0.00    +0.108 C 
ATOM     27  N   UNL     1      -9.007  -6.651  -0.619  0.00  0.00    -0.191 NA
ENDBRANCH   3  26
TORSDOF 6
