REMARK  Name = ZINC09418695
REMARK  7 active torsions:
REMARK  status: ('A' for Active; 'I' for Inactive)
REMARK    1  A    between atoms: C_1  and  O_2
REMARK    2  A    between atoms: O_2  and  C_3
REMARK    3  A    between atoms: C_8  and  C_9
REMARK    4  A    between atoms: N_11  and  C_12
REMARK    5  A    between atoms: C_12  and  C_25
REMARK    6  A    between atoms: N_15  and  C_19
REMARK    7  A    between atoms: C_16  and  O_18
REMARK                            x       y       z     vdW  Elec       q    Type
REMARK                         _______ _______ _______ _____ _____    ______ ____
ROOT
ATOM      1  C   UNL     1      -0.367  -4.998   0.972  0.00  0.00    +0.304 C 
ATOM      2  C   UNL     1       0.388  -4.650   2.240  0.00  0.00    +0.279 C 
ATOM      3  O   UNL     1       0.430  -3.577   2.802  0.00  0.00    -0.270 OA
ATOM      4  N   UNL     1       1.001  -5.795   2.607  0.00  0.00    -0.219 N 
ATOM      5  C   UNL     1       0.717  -6.803   1.721  0.00  0.00    +0.288 C 
ATOM      6  N   UNL     1      -0.061  -6.421   0.758  0.00  0.00    -0.192 NA
ENDROOT
BRANCH   4   7
ATOM      7  C   UNL     1       1.855  -5.941   3.789  0.00  0.00    +0.086 C 
ATOM      8  C   UNL     1       3.258  -6.370   3.355  0.00  0.00    +0.023 C 
ATOM      9  C   UNL     1       4.149  -6.523   4.590  0.00  0.00    +0.002 C 
ATOM     10  C   UNL     1       3.556  -7.584   5.519  0.00  0.00    +0.000 C 
ATOM     11  C   UNL     1       2.153  -7.155   5.952  0.00  0.00    +0.002 C 
ATOM     12  C   UNL     1       1.262  -7.003   4.718  0.00  0.00    +0.023 C 
ENDBRANCH   4   7
BRANCH   1  15
ATOM     13  C   UNL     1       0.171  -2.851  -0.047  0.00  0.00    +0.250 C 
ATOM     14  O   UNL     1      -0.270  -2.301   0.943  0.00  0.00    -0.270 OA
ATOM     15  N   UNL     1       0.119  -4.194  -0.152  0.00  0.00    -0.273 N 
ATOM     16  H   UNL     1       0.403  -4.627  -0.972  0.00  0.00    +0.152 HD
BRANCH  13  22
ATOM     17  C   UNL     1       0.819  -0.652  -1.030  0.00  0.00    +0.132 A 
ATOM     18  C   UNL     1       1.383   0.092  -2.055  0.00  0.00    +0.046 A 
ATOM     19  C   UNL     1       1.881  -0.541  -3.177  0.00  0.00    +0.004 A 
ATOM     20  C   UNL     1       1.822  -1.921  -3.287  0.00  0.00    +0.001 A 
ATOM     21  C   UNL     1       1.265  -2.676  -2.277  0.00  0.00    +0.017 A 
ATOM     22  C   UNL     1       0.763  -2.049  -1.135  0.00  0.00    +0.078 A 
BRANCH  17  24
ATOM     23  C   UNL     1       0.421   1.394   0.109  0.00  0.00    +0.277 C 
ATOM     24  O   UNL     1       0.329  -0.032   0.073  0.00  0.00    -0.494 OA
ENDBRANCH  17  24
ENDBRANCH  13  22
ENDBRANCH   1  15
BRANCH   1  25
ATOM     25  C   UNL     1      -1.871  -4.795   1.165  0.00  0.00    +0.440 C 
ATOM     26  F   UNL     1      -2.553  -5.250   0.032  0.00  0.00    -0.166 F 
ATOM     27  F   UNL     1      -2.298  -5.515   2.287  0.00  0.00    -0.166 F 
ATOM     28  F   UNL     1      -2.137  -3.435   1.355  0.00  0.00    -0.166 F 
ENDBRANCH   1  25
BRANCH   5  29
ATOM     29  O   UNL     1       1.196  -8.060   1.840  0.00  0.00    -0.481 OA
ATOM     30  H   UNL     1       0.908  -8.659   1.139  0.00  0.00    +0.295 HD
ENDBRANCH   5  29
TORSDOF 6
