REMARK  Name = ZINC41306236
REMARK  4 active torsions:
REMARK  status: ('A' for Active; 'I' for Inactive)
REMARK    1  A    between atoms: C_3  and  N_14
REMARK    2  A    between atoms: C_4  and  N_11
REMARK    3  A    between atoms: C_6  and  C_7
REMARK    4  A    between atoms: C_15  and  C_17
REMARK                            x       y       z     vdW  Elec       q    Type
REMARK                         _______ _______ _______ _____ _____    ______ ____
ROOT
ATOM      1  N   UNL     1       3.424   2.035  -0.039  0.00  0.00    -0.277 N 
ATOM      2  C   UNL     1       3.348   3.374  -0.174  0.00  0.00    +0.284 C 
ATOM      3  O   UNL     1       2.263   3.924  -0.187  0.00  0.00    -0.266 OA
ATOM      4  H   UNL     1       4.289   1.605   0.053  0.00  0.00    +0.155 HD
ENDROOT
BRANCH   2   5
ATOM      5  C   UNL     1       4.576   4.170  -0.305  0.00  0.00    +0.191 A 
ATOM      6  C   UNL     1       4.621   5.521  -0.441  0.00  0.00    +0.063 A 
ATOM      7  C   UNL     1       6.038   5.871  -0.535  0.00  0.00    +0.022 A 
ATOM      8  C   UNL     1       6.736   7.072  -0.684  0.00  0.00    +0.031 A 
ATOM      9  C   UNL     1       8.102   7.060  -0.740  0.00  0.00    +0.042 A 
ATOM     10  C   UNL     1       8.799   5.861  -0.651  0.00  0.00    +0.023 A 
ATOM     11  C   UNL     1       8.128   4.666  -0.504  0.00  0.00    +0.048 A 
ATOM     12  C   UNL     1       6.739   4.654  -0.444  0.00  0.00    +0.136 A 
ATOM     13  O   UNL     1       5.830   3.670  -0.303  0.00  0.00    -0.450 OA
ATOM     14 CL   UNL     1       8.972   8.551  -0.924  0.00  0.00    -0.084 Cl
ENDBRANCH   2   5
BRANCH   1  17
ATOM     15  C   UNL     1      -0.041   0.972  -0.652  0.00  0.00    +0.014 A 
ATOM     16  C   UNL     1       1.110   1.735  -0.660  0.00  0.00    +0.026 A 
ATOM     17  C   UNL     1       2.257   1.266  -0.032  0.00  0.00    +0.064 A 
ATOM     18  C   UNL     1       2.241   0.030   0.603  0.00  0.00    +0.148 A 
ATOM     19  C   UNL     1       1.086  -0.727   0.608  0.00  0.00    +0.047 A 
ATOM     20  C   UNL     1      -0.054  -0.257  -0.019  0.00  0.00    +0.057 A 
BRANCH  20  21
ATOM     21  C   UNL     1      -1.312  -1.086  -0.012  0.00  0.00    +0.417 C 
ATOM     22  F   UNL     1      -2.321  -0.408  -0.703  0.00  0.00    -0.166 F 
ATOM     23  F   UNL     1      -1.064  -2.314  -0.635  0.00  0.00    -0.166 F 
ATOM     24  F   UNL     1      -1.718  -1.307   1.309  0.00  0.00    -0.166 F 
ENDBRANCH  20  21
BRANCH  18  25
ATOM     25  N   UNL     1       3.460  -0.474   1.274  0.00  0.00    +0.058 N 
ATOM     26  O   UNL     1       3.476  -1.588   1.743  0.00  0.00    -0.126 OA
ATOM     27  O   UNL     1       4.441   0.229   1.353  0.00  0.00    -0.126 OA
ENDBRANCH  18  25
ENDBRANCH   1  17
TORSDOF 4
