REMARK  Name = ZINC41552084
REMARK  9 active torsions:
REMARK  status: ('A' for Active; 'I' for Inactive)
REMARK    1  A    between atoms: C_1  and  C_2
REMARK    2  A    between atoms: C_2  and  C_4
REMARK    3  A    between atoms: C_2  and  N_11
REMARK    4  A    between atoms: C_12  and  N_16
REMARK    5  A    between atoms: C_17  and  C_19
REMARK    6  A    between atoms: C_28  and  O_30
REMARK    7  A    between atoms: O_30  and  C_31
REMARK    8  A    between atoms: C_31  and  C_32
REMARK    9  A    between atoms: C_31  and  C_33
REMARK                            x       y       z     vdW  Elec       q    Type
REMARK                         _______ _______ _______ _____ _____    ______ ____
ROOT
ATOM      1  N   UNL     1      -1.374  -1.605  -2.188  0.00  0.00    -0.267 N 
ATOM      2  C   UNL     1      -2.050  -2.419  -3.023  0.00  0.00    +0.250 C 
ATOM      3  O   UNL     1      -3.175  -2.781  -2.741  0.00  0.00    -0.270 OA
ATOM      4  H   UNL     1      -0.449  -1.381  -2.373  0.00  0.00    +0.157 HD
ENDROOT
BRANCH   2   5
ATOM      5  C   UNL     1      -1.420  -2.874  -4.286  0.00  0.00    +0.054 A 
ATOM      6  C   UNL     1      -0.116  -2.576  -4.569  0.00  0.00    +0.105 A 
ATOM      7  C   UNL     1       0.457  -3.026  -5.783  0.00  0.00    +0.338 A 
ATOM      8  O   UNL     1       1.618  -2.756  -6.027  0.00  0.00    -0.245 OA
ATOM      9  O   UNL     1      -0.248  -3.742  -6.672  0.00  0.00    -0.422 OA
ATOM     10  C   UNL     1      -1.539  -4.071  -6.454  0.00  0.00    +0.143 A 
ATOM     11  C   UNL     1      -2.178  -3.665  -5.268  0.00  0.00    +0.030 A 
ATOM     12  C   UNL     1      -3.513  -4.009  -5.038  0.00  0.00    +0.016 A 
ATOM     13  C   UNL     1      -4.194  -4.743  -5.966  0.00  0.00    +0.046 A 
ATOM     14  C   UNL     1      -3.567  -5.153  -7.141  0.00  0.00    +0.124 A 
ATOM     15  C   UNL     1      -2.247  -4.813  -7.389  0.00  0.00    +0.092 A 
BRANCH  14  16
ATOM     16  O   UNL     1      -4.257  -5.883  -8.053  0.00  0.00    -0.489 OA
BRANCH  16  17
ATOM     17  C   UNL     1      -5.641  -6.114  -7.787  0.00  0.00    +0.167 C 
ATOM     18  C   UNL     1      -6.460  -4.913  -8.263  0.00  0.00    +0.051 C 
ATOM     19  C   UNL     1      -6.101  -7.371  -8.528  0.00  0.00    +0.051 C 
ENDBRANCH  16  17
ENDBRANCH  14  16
ENDBRANCH   2   5
BRANCH   1  21
ATOM     20  N   UNL     1      -1.449  -0.256  -0.139  0.00  0.00    -0.243 N 
ATOM     21  C   UNL     1      -2.006  -1.084  -1.061  0.00  0.00    +0.124 A 
ATOM     22  C   UNL     1      -3.293  -1.312  -0.682  0.00  0.00    +0.065 A 
ATOM     23  C   UNL     1      -3.523  -0.603   0.500  0.00  0.00    +0.136 A 
ATOM     24  N   UNL     1      -2.423   0.023   0.828  0.00  0.00    -0.177 NA
BRANCH  20  26
ATOM     25  C   UNL     1      -0.094   1.779  -0.205  0.00  0.00    +0.038 C 
ATOM     26  C   UNL     1      -0.074   0.250  -0.152  0.00  0.00    +0.136 C 
BRANCH  26  27
ATOM     27  C   UNL     1       0.638  -0.200   1.098  0.00  0.00    -0.023 A 
ATOM     28  C   UNL     1       0.153   0.167   2.339  0.00  0.00    +0.007 A 
ATOM     29  C   UNL     1       0.806  -0.246   3.486  0.00  0.00    +0.020 A 
ATOM     30  C   UNL     1       1.945  -1.026   3.390  0.00  0.00    +0.041 A 
ATOM     31  C   UNL     1       2.429  -1.392   2.147  0.00  0.00    +0.020 A 
ATOM     32  C   UNL     1       1.772  -0.984   1.002  0.00  0.00    +0.007 A 
ATOM     33 CL   UNL     1       2.765  -1.544   4.830  0.00  0.00    -0.084 Cl
ENDBRANCH  26  27
ENDBRANCH  20  26
ENDBRANCH   1  21
TORSDOF 6
