REMARK  Name = ZINC67082354
REMARK  4 active torsions:
REMARK  status: ('A' for Active; 'I' for Inactive)
REMARK    1  A    between atoms: C_1  and  O_2
REMARK    2  A    between atoms: O_2  and  C_3
REMARK    3  A    between atoms: C_8  and  N_11
REMARK    4  A    between atoms: C_18  and  C_22
REMARK                            x       y       z     vdW  Elec       q    Type
REMARK                         _______ _______ _______ _____ _____    ______ ____
ROOT
ATOM      1  N   UNL     1      -2.776  -6.940  -0.911  0.00  0.00    -0.296 N 
ATOM      2  C   UNL     1      -2.105  -6.691  -2.053  0.00  0.00    +0.302 C 
ATOM      3  O   UNL     1      -1.539  -5.625  -2.206  0.00  0.00    -0.253 OA
ATOM      4  N   UNL     1      -2.062  -7.622  -3.026  0.00  0.00    -0.286 N 
ATOM      5  C   UNL     1      -1.219  -7.369  -4.211  0.00  0.00    +0.109 C 
ATOM      6  C   UNL     1      -0.438  -8.622  -4.647  0.00  0.00    +0.020 C 
ATOM      7  C   UNL     1       0.082  -9.355  -3.436  0.00  0.00    +0.010 C 
ATOM      8  C   UNL     1      -0.936 -10.407  -3.006  0.00  0.00    +0.021 C 
ATOM      9  C   UNL     1      -2.000  -9.898  -2.127  0.00  0.00    +0.027 C 
ATOM     10  C   UNL     1      -2.837  -8.831  -2.864  0.00  0.00    +0.110 C 
ATOM     11  H   UNL     1      -3.287  -7.759  -0.818  0.00  0.00    +0.151 HD
ENDROOT
BRANCH   1  17
ATOM     12  C   UNL     1      -2.682  -5.405   4.257  0.00  0.00    +0.403 C 
ATOM     13  O   UNL     1      -1.628  -5.514   4.853  0.00  0.00    -0.226 OA
ATOM     14  N   UNL     1      -2.686  -5.238   2.920  0.00  0.00    -0.267 N 
ATOM     15  C   UNL     1      -3.952  -5.099   2.187  0.00  0.00    +0.113 C 
ATOM     16  C   UNL     1      -3.983  -6.134   1.057  0.00  0.00    +0.041 C 
ATOM     17  C   UNL     1      -2.733  -5.974   0.189  0.00  0.00    +0.077 C 
ATOM     18  C   UNL     1      -1.485  -6.223   1.038  0.00  0.00    +0.041 C 
ATOM     19  C   UNL     1      -1.425  -5.184   2.168  0.00  0.00    +0.113 C 
BRANCH  12  21
ATOM     20  C   UNL     1      -3.766  -5.633   6.349  0.00  0.00    +0.282 C 
ATOM     21  O   UNL     1      -3.845  -5.453   4.933  0.00  0.00    -0.454 OA
ENDBRANCH  12  21
ENDBRANCH   1  17
BRANCH   8  22
ATOM     22  C   UNL     1      -0.208 -11.510  -2.281  0.00  0.00    -0.044 A 
ATOM     23  C   UNL     1       0.502 -11.228  -1.129  0.00  0.00    +0.004 A 
ATOM     24  C   UNL     1       1.170 -12.239  -0.464  0.00  0.00    +0.000 A 
ATOM     25  C   UNL     1       1.128 -13.532  -0.950  0.00  0.00    +0.000 A 
ATOM     26  C   UNL     1       0.417 -13.814  -2.102  0.00  0.00    +0.000 A 
ATOM     27  C   UNL     1      -0.254 -12.804  -2.764  0.00  0.00    +0.004 A 
ENDBRANCH   8  22
TORSDOF 3
