REMARK  Name = ZINC15931776
REMARK  3 active torsions:
REMARK  status: ('A' for Active; 'I' for Inactive)
REMARK    1  A    between atoms: C_4  and  S_8
REMARK    2  A    between atoms: S_8  and  N_11
REMARK    3  A    between atoms: C_17  and  C_19
REMARK                            x       y       z     vdW  Elec       q    Type
REMARK                         _______ _______ _______ _____ _____    ______ ____
ROOT
ATOM      1  N   UNL     1      -3.577   2.556  -1.178  0.00  0.00    -0.174 NA
ATOM      2  C   UNL     1      -3.360   1.106  -1.077  0.00  0.00    +0.128 C 
ATOM      3  C   UNL     1      -2.431   0.831   0.111  0.00  0.00    +0.125 C 
ATOM      4  N   UNL     1      -1.263   1.717   0.010  0.00  0.00    -0.299 N 
ATOM      5  C   UNL     1      -1.480   3.167  -0.085  0.00  0.00    +0.125 C 
ATOM      6  C   UNL     1      -2.409   3.442  -1.280  0.00  0.00    +0.128 C 
ATOM      7  C   UNL     1      -0.014   1.209   0.009  0.00  0.00    +0.219 C 
ATOM      8  O   UNL     1       0.151   0.007  -0.007  0.00  0.00    -0.275 OA
ENDROOT
BRANCH   7   9
ATOM      9  C   UNL     1       1.176   2.133   0.021  0.00  0.00    +0.075 C 
ATOM     10  C   UNL     1       1.650   2.373  -1.413  0.00  0.00    +0.013 C 
ATOM     11  C   UNL     1       2.859   3.312  -1.400  0.00  0.00    +0.001 C 
ATOM     12  C   UNL     1       3.989   2.677  -0.588  0.00  0.00    +0.000 C 
ATOM     13  C   UNL     1       3.514   2.437   0.846  0.00  0.00    +0.001 C 
ATOM     14  C   UNL     1       2.306   1.498   0.833  0.00  0.00    +0.013 C 
ENDBRANCH   7   9
BRANCH   1  15
ATOM     15  S   UNL     1      -5.111   3.181  -1.177  0.00  0.00    +0.062 S 
ATOM     16  O   UNL     1      -5.036   4.443  -1.825  0.00  0.00    -0.153 OA
ATOM     17  O   UNL     1      -5.972   2.143  -1.626  0.00  0.00    -0.153 OA
BRANCH  15  21
ATOM     18  C   UNL     1      -6.218   4.003   3.136  0.00  0.00    +0.021 A 
ATOM     19  C   UNL     1      -6.005   2.704   2.713  0.00  0.00    +0.023 A 
ATOM     20  C   UNL     1      -5.666   2.453   1.396  0.00  0.00    +0.067 A 
ATOM     21  C   UNL     1      -5.542   3.501   0.501  0.00  0.00    +0.125 A 
ATOM     22  C   UNL     1      -5.750   4.800   0.925  0.00  0.00    +0.050 A 
ATOM     23  C   UNL     1      -6.093   5.051   2.242  0.00  0.00    +0.043 A 
ATOM     24 CL   UNL     1      -6.362   6.681   2.773  0.00  0.00    -0.083 Cl
ATOM     25 CL   UNL     1      -5.399   0.822   0.865  0.00  0.00    -0.082 Cl
ENDBRANCH  15  21
ENDBRANCH   1  15
TORSDOF 3
