REMARK  Name = ZINC46583790
REMARK  12 active torsions:
REMARK  status: ('A' for Active; 'I' for Inactive)
REMARK    1  A    between atoms: C_1  and  C_2
REMARK    2  A    between atoms: C_2  and  N_3
REMARK    3  A    between atoms: C_7  and  S_26
REMARK    4  A    between atoms: C_11  and  C_12
REMARK    5  A    between atoms: C_12  and  N_13
REMARK    6  A    between atoms: N_13  and  C_14
REMARK    7  A    between atoms: N_13  and  C_15
REMARK    8  A    between atoms: C_15  and  C_17
REMARK    9  A    between atoms: C_15  and  C_18
REMARK   10  A    between atoms: S_26  and  N_29
REMARK   11  A    between atoms: N_29  and  C_30
REMARK   12  A    between atoms: N_29  and  C_31
REMARK                            x       y       z     vdW  Elec       q    Type
REMARK                         _______ _______ _______ _____ _____    ______ ____
ROOT
ATOM      1  N   UNL     1      -1.372  -0.511   0.012  0.00  0.00    -0.329 N 
ATOM      2  C   UNL     1      -2.131  -0.795   1.130  0.00  0.00    +0.069 A 
ATOM      3  C   UNL     1      -1.906  -0.716   2.498  0.00  0.00    +0.030 A 
ATOM      4  C   UNL     1      -2.901  -1.086   3.377  0.00  0.00    +0.030 A 
ATOM      5  C   UNL     1      -4.125  -1.536   2.903  0.00  0.00    +0.108 A 
ATOM      6  C   UNL     1      -4.365  -1.621   1.561  0.00  0.00    +0.058 A 
ATOM      7  C   UNL     1      -3.371  -1.251   0.651  0.00  0.00    +0.091 A 
ATOM      8  N   UNL     1      -3.306  -1.222  -0.705  0.00  0.00    -0.234 NA
ATOM      9  C   UNL     1      -2.139  -0.784  -1.077  0.00  0.00    +0.094 A 
ENDROOT
BRANCH   5  10
ATOM     10  S   UNL     1      -5.383  -2.005   4.045  0.00  0.00    +0.060 S 
ATOM     11  O   UNL     1      -6.240  -2.906   3.358  0.00  0.00    -0.153 OA
ATOM     12  O   UNL     1      -4.724  -2.352   5.255  0.00  0.00    -0.153 OA
BRANCH  10  13
ATOM     13  N   UNL     1      -6.281  -0.651   4.367  0.00  0.00    -0.183 NA
ATOM     14  C   UNL     1      -7.450  -0.334   3.543  0.00  0.00    +0.131 C 
ATOM     15  C   UNL     1      -5.906   0.230   5.476  0.00  0.00    +0.131 C 
ENDBRANCH  10  13
ENDBRANCH   5  10
BRANCH   1  17
ATOM     16  C   UNL     1      -0.019   1.526   0.010  0.00  0.00    +0.027 C 
ATOM     17  C   UNL     1       0.002  -0.004   0.002  0.00  0.00    +0.120 C 
ENDBRANCH   1  17
BRANCH   9  18
ATOM     18  C   UNL     1      -1.700  -0.609  -2.508  0.00  0.00    -0.003 C 
BRANCH  18  19
ATOM     19  N   UNL     1      -1.077  -1.851  -2.985  0.00  0.00    +0.387 N 
ATOM     20  C   UNL     1      -2.082  -2.922  -3.016  0.00  0.00    -0.095 C 
ATOM     21  H   UNL     1      -0.327  -2.111  -2.363  0.00  0.00    -0.081 HD
BRANCH  19  22
ATOM     22  C   UNL     1      -0.542  -1.642  -4.337  0.00  0.00    -0.039 C 
ATOM     23  C   UNL     1       0.505  -0.527  -4.305  0.00  0.00    -0.008 C 
BRANCH  22  24
ATOM     24  C   UNL     1       0.097  -2.916  -4.827  0.00  0.00    -0.043 A 
ATOM     25  C   UNL     1       0.477  -3.891  -3.922  0.00  0.00    +0.005 A 
ATOM     26  C   UNL     1       1.063  -5.059  -4.370  0.00  0.00    +0.020 A 
ATOM     27  C   UNL     1       1.269  -5.255  -5.725  0.00  0.00    +0.042 A 
ATOM     28  C   UNL     1       0.889  -4.281  -6.630  0.00  0.00    +0.040 A 
ATOM     29  C   UNL     1       0.298  -3.113  -6.181  0.00  0.00    +0.044 A 
ATOM     30 CL   UNL     1      -0.185  -1.893  -7.317  0.00  0.00    -0.083 Cl
ATOM     31 CL   UNL     1       2.006  -6.723  -6.287  0.00  0.00    -0.083 Cl
ENDBRANCH  22  24
ENDBRANCH  19  22
ENDBRANCH  18  19
ENDBRANCH   9  18
TORSDOF 7
