REMARK  Name = ZINC40284293
REMARK  2 active torsions:
REMARK  status: ('A' for Active; 'I' for Inactive)
REMARK    1  A    between atoms: C_3  and  N_7
REMARK    2  A    between atoms: C_16  and  C_18
REMARK                            x       y       z     vdW  Elec       q    Type
REMARK                         _______ _______ _______ _____ _____    ______ ____
ROOT
ATOM      1  N   UNL     1       3.608   1.997  -0.022  0.00  0.00    -0.285 N 
ATOM      2  C   UNL     1       3.988   3.010  -0.857  0.00  0.00    +0.205 A 
ATOM      3  N   UNL     1       5.213   3.362  -0.562  0.00  0.00    -0.238 NA
ATOM      4  C   UNL     1       5.657   2.611   0.444  0.00  0.00    +0.089 A 
ATOM      5  C   UNL     1       4.661   1.752   0.802  0.00  0.00    +0.133 A 
ATOM      6  N   UNL     1       4.812   0.835   1.843  0.00  0.00    -0.270 N 
ATOM      7  C   UNL     1       6.058   0.617   2.319  0.00  0.00    +0.219 C 
ATOM      8  O   UNL     1       6.199  -0.087   3.297  0.00  0.00    -0.275 OA
ATOM      9  C   UNL     1       7.274   1.217   1.674  0.00  0.00    +0.110 C 
ATOM     10  C   UNL     1       6.993   2.621   1.141  0.00  0.00    +0.080 C 
ATOM     11  H   UNL     1       4.047   0.368   2.214  0.00  0.00    +0.156 HD
ENDROOT
BRANCH  10  12
ATOM     12  C   UNL     1       6.956   3.590   2.295  0.00  0.00    -0.038 A 
ATOM     13  C   UNL     1       6.052   3.404   3.324  0.00  0.00    +0.006 A 
ATOM     14  C   UNL     1       6.018   4.292   4.383  0.00  0.00    +0.020 A 
ATOM     15  C   UNL     1       6.888   5.367   4.412  0.00  0.00    +0.041 A 
ATOM     16  C   UNL     1       7.792   5.553   3.381  0.00  0.00    +0.020 A 
ATOM     17  C   UNL     1       7.830   4.661   2.326  0.00  0.00    +0.006 A 
ATOM     18 CL   UNL     1       6.845   6.484   5.741  0.00  0.00    -0.084 Cl
ENDBRANCH  10  12
BRANCH   1  21
ATOM     19  C   UNL     1      -0.017   1.378   0.010  0.00  0.00    +0.022 A 
ATOM     20  C   UNL     1       1.183   2.071   0.002  0.00  0.00    +0.029 A 
ATOM     21  C   UNL     1       2.368   1.341  -0.013  0.00  0.00    +0.067 A 
ATOM     22  C   UNL     1       2.305  -0.046  -0.020  0.00  0.00    +0.136 A 
ATOM     23  N   UNL     1       1.143  -0.666  -0.012  0.00  0.00    -0.261 NA
ATOM     24  C   UNL     1       0.002  -0.004   0.002  0.00  0.00    +0.111 A 
ENDBRANCH   1  21
TORSDOF 2
