REMARK  Name = ZINC06069029
REMARK  5 active torsions:
REMARK  status: ('A' for Active; 'I' for Inactive)
REMARK    1  A    between atoms: C_1  and  C_2
REMARK    2  A    between atoms: C_6  and  N_12
REMARK    3  A    between atoms: C_7  and  S_8
REMARK    4  A    between atoms: N_13  and  C_14
REMARK    5  A    between atoms: C_23  and  O_24
REMARK                            x       y       z     vdW  Elec       q    Type
REMARK                         _______ _______ _______ _____ _____    ______ ____
ROOT
ATOM      1  N   UNL     1       0.052  -2.790   2.360  0.00  0.00    -0.147 NA
ATOM      2  N   UNL     1       0.069  -4.080   2.348  0.00  0.00    -0.145 NA
ENDROOT
BRANCH   2   3
ATOM      3  C   UNL     1       0.084  -4.771   3.518  0.00  0.00    +0.135 A 
ATOM      4  C   UNL     1       0.109  -6.233   3.523  0.00  0.00    +0.013 A 
ATOM      5  C   UNL     1       0.120  -6.967   2.332  0.00  0.00    +0.011 A 
ATOM      6  C   UNL     1       0.144  -8.330   2.380  0.00  0.00    +0.001 A 
ATOM      7  C   UNL     1       0.158  -9.002   3.599  0.00  0.00    +0.001 A 
ATOM      8  C   UNL     1       0.148  -8.318   4.777  0.00  0.00    +0.008 A 
ATOM      9  C   UNL     1       0.124  -6.913   4.765  0.00  0.00    -0.016 A 
ATOM     10  C   UNL     1       0.114  -6.174   5.961  0.00  0.00    +0.012 A 
ATOM     11  C   UNL     1       0.091  -4.815   5.940  0.00  0.00    +0.048 A 
ATOM     12  C   UNL     1       0.081  -4.099   4.744  0.00  0.00    +0.144 A 
BRANCH  12  13
ATOM     13  O   UNL     1       0.063  -2.743   4.769  0.00  0.00    -0.505 OA
ATOM     14  H   UNL     1      -0.825  -2.361   4.781  0.00  0.00    +0.292 HD
ENDBRANCH  12  13
ENDBRANCH   2   3
BRANCH   1  20
ATOM     15  C   UNL     1      -0.018   1.503   0.010  0.00  0.00    +0.047 C 
ATOM     16  C   UNL     1       0.002  -0.004   0.002  0.00  0.00    -0.003 A 
ATOM     17  C   UNL     1       0.006  -0.689  -1.202  0.00  0.00    +0.046 A 
ATOM     18  C   UNL     1       0.025  -2.073  -1.219  0.00  0.00    +0.022 A 
ATOM     19  C   UNL     1       0.040  -2.780  -0.035  0.00  0.00    +0.033 A 
ATOM     20  C   UNL     1       0.037  -2.096   1.183  0.00  0.00    +0.114 A 
ATOM     21  C   UNL     1       0.023  -0.698   1.193  0.00  0.00    +0.151 A 
ATOM     22 CL   UNL     1      -0.014   0.193  -2.698  0.00  0.00    -0.083 Cl
BRANCH  21  23
ATOM     23  S   UNL     1       0.025   0.175   2.724  0.00  0.00    +0.142 S 
ATOM     24  O   UNL     1      -1.367   0.364   3.103  0.00  0.00    -0.140 OA
ATOM     25  O   UNL     1       0.741  -0.654   3.681  0.00  0.00    -0.140 OA
ATOM     26  O   UNL     1       0.701   1.441   2.487  0.00  0.00    -0.043 OA
ENDBRANCH  21  23
ENDBRANCH   1  20
TORSDOF 4
