REMARK  Name = ZINC40555924
REMARK  8 active torsions:
REMARK  status: ('A' for Active; 'I' for Inactive)
REMARK    1  A    between atoms: C_1  and  C_2
REMARK    2  A    between atoms: C_2  and  N_3
REMARK    3  A    between atoms: N_3  and  C_4
REMARK    4  A    between atoms: N_3  and  C_6
REMARK    5  A    between atoms: C_4  and  C_5
REMARK    6  A    between atoms: C_6  and  C_7
REMARK    7  A    between atoms: C_7  and  N_8
REMARK    8  A    between atoms: C_9  and  C_28
REMARK                            x       y       z     vdW  Elec       q    Type
REMARK                         _______ _______ _______ _____ _____    ______ ____
ROOT
ATOM      1  N   UNL     1       2.018  -3.377  -2.848  0.00  0.00    -0.285 N 
ATOM      2  C   UNL     1       3.009  -4.261  -2.212  0.00  0.00    +0.144 C 
ATOM      3  C   UNL     1       2.703  -5.637  -2.704  0.00  0.00    +0.072 A 
ATOM      4  C   UNL     1       3.345  -6.927  -2.435  0.00  0.00    +0.199 A 
ATOM      5  O   UNL     1       4.187  -7.084  -1.568  0.00  0.00    -0.287 OA
ATOM      6  C   UNL     1       2.872  -8.022  -3.316  0.00  0.00    +0.065 A 
ATOM      7  C   UNL     1       3.539  -9.260  -3.318  0.00  0.00    +0.016 A 
ATOM      8  C   UNL     1       3.126 -10.269  -4.123  0.00  0.00    +0.009 A 
ATOM      9  C   UNL     1       2.014 -10.086  -4.972  0.00  0.00    -0.014 A 
ATOM     10  C   UNL     1       1.577 -11.120  -5.815  0.00  0.00    +0.008 A 
ATOM     11  C   UNL     1       0.499 -10.922  -6.625  0.00  0.00    +0.001 A 
ATOM     12  C   UNL     1      -0.179  -9.706  -6.630  0.00  0.00    +0.001 A 
ATOM     13  C   UNL     1       0.219  -8.681  -5.825  0.00  0.00    +0.012 A 
ATOM     14  C   UNL     1       1.326  -8.851  -4.980  0.00  0.00    +0.025 A 
ATOM     15  C   UNL     1       1.763  -7.800  -4.137  0.00  0.00    +0.147 A 
ATOM     16  O   UNL     1       1.095  -6.627  -4.152  0.00  0.00    -0.449 OA
ATOM     17  C   UNL     1       1.627  -5.549  -3.543  0.00  0.00    +0.199 A 
ATOM     18  C   UNL     1       1.213  -4.138  -3.618  0.00  0.00    +0.283 C 
ATOM     19  O   UNL     1       0.284  -3.720  -4.280  0.00  0.00    -0.267 OA
ENDROOT
BRANCH   2  20
ATOM     20  C   UNL     1       2.872  -4.201  -0.712  0.00  0.00    -0.020 A 
ATOM     21  C   UNL     1       1.616  -4.161  -0.134  0.00  0.00    +0.006 A 
ATOM     22  C   UNL     1       1.489  -4.106   1.241  0.00  0.00    +0.003 A 
ATOM     23  C   UNL     1       2.617  -4.090   2.040  0.00  0.00    +0.038 A 
ATOM     24  C   UNL     1       3.874  -4.130   1.462  0.00  0.00    +0.124 A 
ATOM     25  C   UNL     1       4.000  -4.192   0.085  0.00  0.00    +0.044 A 
ATOM     26  F   UNL     1       4.977  -4.115   2.242  0.00  0.00    -0.205 F 
ENDBRANCH   2  20
BRANCH   1  27
ATOM     27  C   UNL     1       1.919  -1.927  -2.671  0.00  0.00    +0.090 C 
BRANCH  27  28
ATOM     28  C   UNL     1       0.997  -1.619  -1.489  0.00  0.00    -0.060 C 
BRANCH  28  29
ATOM     29  N   UNL     1       0.791  -0.168  -1.393  0.00  0.00    +0.380 N 
ATOM     30  H   UNL     1       1.686   0.297  -1.349  0.00  0.00    -0.082 HD
BRANCH  29  32
ATOM     31  C   UNL     1      -0.052   1.827  -2.537  0.00  0.00    -0.017 C 
ATOM     32  C   UNL     1       0.054   0.301  -2.575  0.00  0.00    -0.082 C 
ENDBRANCH  29  32
BRANCH  29  33
ATOM     33  C   UNL     1       0.020   0.139  -0.181  0.00  0.00    -0.082 C 
ATOM     34  C   UNL     1       0.850  -0.213   1.054  0.00  0.00    -0.017 C 
ENDBRANCH  29  33
ENDBRANCH  28  29
ENDBRANCH  27  28
ENDBRANCH   1  27
TORSDOF 6
