REMARK  Name = ZINC16045506
REMARK  6 active torsions:
REMARK  status: ('A' for Active; 'I' for Inactive)
REMARK    1  A    between atoms: C_1  and  O_2
REMARK    2  A    between atoms: O_2  and  C_3
REMARK    3  A    between atoms: C_6  and  O_30
REMARK    4  A    between atoms: C_7  and  N_9
REMARK    5  A    between atoms: C_16  and  C_18
REMARK    6  A    between atoms: O_30  and  C_31
REMARK                            x       y       z     vdW  Elec       q    Type
REMARK                         _______ _______ _______ _____ _____    ______ ____
ROOT
ATOM      1  N   UNL     1       2.965  -0.123  -0.951  0.00  0.00    -0.222 NA
ATOM      2  C   UNL     1       3.820  -0.832  -0.251  0.00  0.00    +0.164 C 
ATOM      3  N   UNL     1       3.722  -2.216  -0.177  0.00  0.00    -0.247 N 
ATOM      4  C   UNL     1       4.912  -3.018  -0.480  0.00  0.00    +0.117 C 
ATOM      5  C   UNL     1       6.069  -2.619   0.425  0.00  0.00    +0.030 C 
ATOM      6  C   UNL     1       6.490  -1.175   0.142  0.00  0.00    +0.079 C 
ATOM      7  S   UNL     1       5.144  -0.063   0.637  0.00  0.00    -0.090 S 
ATOM      8  C   UNL     1       2.562  -2.808   0.172  0.00  0.00    +0.253 C 
ATOM      9  O   UNL     1       2.519  -4.011   0.332  0.00  0.00    -0.270 OA
ENDROOT
BRANCH   8  10
ATOM     10  C   UNL     1       1.340  -1.990   0.360  0.00  0.00    +0.051 A 
ATOM     11  C   UNL     1       1.139  -1.291   1.516  0.00  0.00    +0.083 A 
ATOM     12  C   UNL     1      -0.076  -0.494   1.671  0.00  0.00    +0.250 A 
ATOM     13  O   UNL     1      -0.256   0.130   2.702  0.00  0.00    -0.268 OA
ATOM     14  N   UNL     1      -0.998  -0.440   0.695  0.00  0.00    -0.322 N 
ATOM     15  H   UNL     1      -1.907   0.165   0.829  0.00  0.00    +0.169 HD
ATOM     16  C   UNL     1      -0.832  -1.131  -0.487  0.00  0.00    +0.050 A 
ATOM     17  C   UNL     1       0.317  -1.915  -0.694  0.00  0.00    +0.011 A 
ATOM     18  C   UNL     1       0.476  -2.612  -1.895  0.00  0.00    +0.011 A 
ATOM     19  C   UNL     1      -0.485  -2.529  -2.862  0.00  0.00    +0.001 A 
ATOM     20  C   UNL     1      -1.622  -1.757  -2.662  0.00  0.00    +0.002 A 
ATOM     21  C   UNL     1      -1.800  -1.061  -1.486  0.00  0.00    +0.026 A 
ENDBRANCH   8  10
BRANCH   1  26
ATOM     22  C   UNL     1       3.281   3.354   0.138  0.00  0.00    +0.122 A 
ATOM     23  C   UNL     1       3.314   4.006  -1.087  0.00  0.00    +0.049 A 
ATOM     24  C   UNL     1       3.230   3.283  -2.264  0.00  0.00    +0.051 A 
ATOM     25  C   UNL     1       3.119   1.905  -2.227  0.00  0.00    +0.146 A 
ATOM     26  C   UNL     1       3.080   1.242  -0.994  0.00  0.00    +0.111 A 
ATOM     27  C   UNL     1       3.164   1.975   0.189  0.00  0.00    +0.077 A 
BRANCH  22  29
ATOM     28  C   UNL     1       3.482   5.490   1.165  0.00  0.00    +0.277 C 
ATOM     29  O   UNL     1       3.364   4.071   1.290  0.00  0.00    -0.495 OA
ENDBRANCH  22  29
BRANCH  25  30
ATOM     30  O   UNL     1       3.042   1.196  -3.385  0.00  0.00    -0.493 OA
ATOM     31  C   UNL     1       3.087   1.938  -4.605  0.00  0.00    +0.277 C 
ENDBRANCH  25  30
ENDBRANCH   1  26
TORSDOF 4
