REMARK  Name = ZINC02131001
REMARK  7 active torsions:
REMARK  status: ('A' for Active; 'I' for Inactive)
REMARK    1  A    between atoms: C_1  and  C_2
REMARK    2  A    between atoms: C_13  and  C_30
REMARK    3  A    between atoms: N_19  and  C_22
REMARK    4  A    between atoms: C_27  and  O_28
REMARK    5  A    between atoms: O_28  and  C_29
REMARK    6  A    between atoms: C_35  and  O_36
REMARK    7  A    between atoms: O_36  and  C_37
REMARK                            x       y       z     vdW  Elec       q    Type
REMARK                         _______ _______ _______ _____ _____    ______ ____
ROOT
ATOM      1  C   UNL     1       4.162   0.291  -1.437  0.00  0.00    +0.048 C 
ATOM      2  C   UNL     1       3.628   0.729  -0.072  0.00  0.00    +0.153 C 
ATOM      3  C   UNL     1       2.119   0.712  -0.026  0.00  0.00    +0.054 A 
ATOM      4  C   UNL     1       1.371   1.839  -0.001  0.00  0.00    -0.008 A 
ATOM      5  C   UNL     1      -0.017   1.413   0.010  0.00  0.00    +0.004 A 
ATOM      6  C   UNL     1      -1.221   2.124   0.030  0.00  0.00    +0.010 A 
ATOM      7  C   UNL     1      -2.377   1.384   0.037  0.00  0.00    +0.001 A 
ATOM      8  C   UNL     1      -2.365  -0.001   0.031  0.00  0.00    +0.002 A 
ATOM      9  C   UNL     1      -1.188  -0.729   0.014  0.00  0.00    +0.026 A 
ATOM     10  C   UNL     1       0.002  -0.004   0.002  0.00  0.00    +0.047 A 
ATOM     11  N   UNL     1       1.310  -0.392  -0.018  0.00  0.00    -0.356 N 
ATOM     12  H   UNL     1       1.620  -1.311  -0.025  0.00  0.00    +0.166 HD
ATOM     13  C   UNL     1       1.889   3.254   0.030  0.00  0.00    +0.072 C 
ATOM     14  C   UNL     1       3.377   3.286  -0.349  0.00  0.00    +0.123 C 
ATOM     15  N   UNL     1       4.018   2.120   0.262  0.00  0.00    -0.265 N 
ATOM     16  C   UNL     1       4.936   2.040   1.225  0.00  0.00    +0.317 C 
ATOM     17  O   UNL     1       5.616   2.976   1.598  0.00  0.00    -0.252 OA
ATOM     18  N   UNL     1       5.019   0.800   1.733  0.00  0.00    -0.188 N 
ATOM     19  C   UNL     1       4.227  -0.066   1.063  0.00  0.00    +0.257 C 
ATOM     20  O   UNL     1       4.037  -1.236   1.320  0.00  0.00    -0.272 OA
ENDROOT
BRANCH  18  21
ATOM     21  C   UNL     1       5.829   0.447   2.824  0.00  0.00    +0.087 A 
ATOM     22  C   UNL     1       5.329   0.523   4.115  0.00  0.00    +0.028 A 
ATOM     23  C   UNL     1       6.126   0.170   5.187  0.00  0.00    +0.002 A 
ATOM     24  C   UNL     1       7.426  -0.250   4.977  0.00  0.00    +0.004 A 
ATOM     25  C   UNL     1       7.934  -0.324   3.693  0.00  0.00    +0.047 A 
ATOM     26  C   UNL     1       7.139   0.024   2.612  0.00  0.00    +0.142 A 
BRANCH  26  27
ATOM     27  O   UNL     1       7.637  -0.049   1.349  0.00  0.00    -0.493 OA
ATOM     28  C   UNL     1       8.988  -0.491   1.209  0.00  0.00    +0.277 C 
ENDBRANCH  26  27
ENDBRANCH  18  21
BRANCH  13  29
ATOM     29  C   UNL     1       1.107   4.090  -0.950  0.00  0.00    +0.003 A 
ATOM     30  C   UNL     1       1.122   3.774  -2.295  0.00  0.00    +0.008 A 
ATOM     31  C   UNL     1       0.400   4.537  -3.193  0.00  0.00    +0.001 A 
ATOM     32  C   UNL     1      -0.330   5.625  -2.751  0.00  0.00    +0.004 A 
ATOM     33  C   UNL     1      -0.344   5.948  -1.408  0.00  0.00    +0.046 A 
ATOM     34  C   UNL     1       0.375   5.180  -0.503  0.00  0.00    +0.124 A 
BRANCH  34  35
ATOM     35  O   UNL     1       0.363   5.497   0.819  0.00  0.00    -0.495 OA
ATOM     36  C   UNL     1      -0.412   6.633   1.207  0.00  0.00    +0.277 C 
ENDBRANCH  34  35
ENDBRANCH  13  29
TORSDOF 4
