REMARK  Name = ZINC06471336
REMARK  5 active torsions:
REMARK  status: ('A' for Active; 'I' for Inactive)
REMARK    1  A    between atoms: C_1  and  C_2
REMARK    2  A    between atoms: N_6  and  O_7
REMARK    3  A    between atoms: C_8  and  C_21
REMARK    4  A    between atoms: N_11  and  S_12
REMARK    5  A    between atoms: S_12  and  C_15
REMARK                            x       y       z     vdW  Elec       q    Type
REMARK                         _______ _______ _______ _____ _____    ______ ____
ROOT
ATOM      1  C   UNL     1      -0.332   1.487   0.246  0.00  0.00    +0.026 C 
ATOM      2  C   UNL     1      -0.158  -0.028   0.127  0.00  0.00    +0.082 C 
ATOM      3  C   UNL     1       0.356  -0.378  -1.275  0.00  0.00    +0.075 C 
ATOM      4  C   UNL     1       0.771  -1.833  -1.283  0.00  0.00    +0.063 C 
ATOM      5  N   UNL     1       0.313  -2.641  -2.163  0.00  0.00    -0.096 NA
ATOM      6  C   UNL     1       1.742  -2.310  -0.224  0.00  0.00    +0.049 C 
ATOM      7  C   UNL     1       1.193  -1.911   1.151  0.00  0.00    +0.119 C 
ATOM      8  N   UNL     1       0.819  -0.491   1.121  0.00  0.00    -0.173 NA
ATOM      9  C   UNL     1       3.107  -1.655  -0.445  0.00  0.00    +0.015 C 
ENDROOT
BRANCH   8  10
ATOM     10  S   UNL     1       1.494   0.576   2.192  0.00  0.00    +0.061 S 
ATOM     11  O   UNL     1       2.681  -0.035   2.680  0.00  0.00    -0.153 OA
ATOM     12  O   UNL     1       1.497   1.845   1.554  0.00  0.00    -0.153 OA
BRANCH  10  13
ATOM     13  C   UNL     1       0.394   0.704   3.563  0.00  0.00    +0.105 A 
ATOM     14  C   UNL     1      -0.610   1.655   3.557  0.00  0.00    +0.028 A 
ATOM     15  C   UNL     1      -1.473   1.755   4.632  0.00  0.00    +0.002 A 
ATOM     16  C   UNL     1      -1.333   0.906   5.713  0.00  0.00    +0.000 A 
ATOM     17  C   UNL     1      -0.329  -0.045   5.719  0.00  0.00    +0.002 A 
ATOM     18  C   UNL     1       0.531  -0.149   4.642  0.00  0.00    +0.028 A 
ENDBRANCH  10  13
ENDBRANCH   8  10
BRANCH   5  19
ATOM     19  O   UNL     1      -0.594  -2.176  -3.147  0.00  0.00    -0.409 OA
ATOM     20  H   UNL     1      -0.884  -2.858  -3.767  0.00  0.00    +0.328 HD
ENDBRANCH   5  19
TORSDOF 3
