REMARK  Name = ZINC21166314
REMARK  5 active torsions:
REMARK  status: ('A' for Active; 'I' for Inactive)
REMARK    1  A    between atoms: C_1  and  C_2
REMARK    2  A    between atoms: C_2  and  C_3
REMARK    3  A    between atoms: C_3  and  C_26
REMARK    4  A    between atoms: C_13  and  C_24
REMARK    5  A    between atoms: C_14  and  C_16
REMARK                            x       y       z     vdW  Elec       q    Type
REMARK                         _______ _______ _______ _____ _____    ______ ____
ROOT
ATOM      1  C   UNL     1      10.813   0.160   0.577  0.00  0.00    +0.115 C 
ATOM      2  C   UNL     1      10.093  -1.113   0.109  0.00  0.00    +0.127 C 
ATOM      3  C   UNL     1       8.712  -1.104   0.740  0.00  0.00    +0.171 C 
ATOM      4  O   UNL     1       8.204  -2.116   1.177  0.00  0.00    -0.292 OA
ATOM      5  C   UNL     1       8.023   0.192   0.796  0.00  0.00    +0.070 A 
ATOM      6  C   UNL     1       8.743   1.360   0.516  0.00  0.00    +0.133 A 
ATOM      7  C   UNL     1       8.097   2.593   0.579  0.00  0.00    +0.050 A 
ATOM      8  C   UNL     1       6.762   2.675   0.908  0.00  0.00    +0.050 A 
ATOM      9  C   UNL     1       6.026   1.526   1.185  0.00  0.00    +0.137 A 
ATOM     10  C   UNL     1       6.654   0.271   1.129  0.00  0.00    +0.038 A 
ATOM     11  C   UNL     1       5.663  -0.687   1.452  0.00  0.00    +0.008 A 
ATOM     12  C   UNL     1       4.513  -0.003   1.684  0.00  0.00    +0.194 A 
ATOM     13  O   UNL     1       4.735   1.318   1.518  0.00  0.00    -0.450 OA
ATOM     14  C   UNL     1       5.849  -2.180   1.524  0.00  0.00    +0.048 C 
ATOM     15  O   UNL     1      10.054   1.302   0.184  0.00  0.00    -0.485 OA
ATOM     16  C   UNL     1      10.950   0.137   2.101  0.00  0.00    +0.056 C 
ENDROOT
BRANCH  12  17
ATOM     17  C   UNL     1       3.223  -0.608   2.054  0.00  0.00    +0.282 C 
ATOM     18  O   UNL     1       3.091  -1.817   2.032  0.00  0.00    -0.267 OA
ATOM     19  N   UNL     1       2.190   0.177   2.416  0.00  0.00    -0.295 N 
ATOM     20  C   UNL     1       2.372   1.625   2.583  0.00  0.00    +0.108 C 
ATOM     21  C   UNL     1       1.873   2.028   3.975  0.00  0.00    +0.019 C 
ATOM     22  C   UNL     1       0.429   1.552   4.152  0.00  0.00    +0.003 C 
ATOM     23  C   UNL     1       0.376   0.026   4.042  0.00  0.00    +0.019 C 
ATOM     24  C   UNL     1       0.859  -0.399   2.651  0.00  0.00    +0.108 C 
ENDBRANCH  12  17
BRANCH   1  26
ATOM     25  C   UNL     1      12.964   1.429   0.498  0.00  0.00    +0.008 C 
ATOM     26  C   UNL     1      12.202   0.225  -0.061  0.00  0.00    +0.045 C 
ENDBRANCH   1  26
TORSDOF 2
