REMARK  Name = ZINC00650492
REMARK  10 active torsions:
REMARK  status: ('A' for Active; 'I' for Inactive)
REMARK    1  A    between atoms: C_1  and  C_2
REMARK    2  A    between atoms: C_2  and  N_3
REMARK    3  A    between atoms: C_5  and  C_9
REMARK    4  A    between atoms: C_6  and  C_8
REMARK    5  A    between atoms: C_17  and  N_31
REMARK    6  A    between atoms: C_18  and  C_29
REMARK    7  A    between atoms: C_19  and  C_21
REMARK    8  A    between atoms: N_23  and  C_27
REMARK    9  A    between atoms: C_25  and  C_26
REMARK   10  A    between atoms: C_27  and  C_28
REMARK                            x       y       z     vdW  Elec       q    Type
REMARK                         _______ _______ _______ _____ _____    ______ ____
ROOT
ATOM      1  C   UNL     1      -0.603  -3.307  -1.375  0.00  0.00    +0.018 C 
ATOM      2  C   UNL     1      -1.272  -3.190  -2.535  0.00  0.00    -0.004 C 
ATOM      3  C   UNL     1      -1.582  -1.830  -3.120  0.00  0.00    +0.039 C 
ATOM      4  C   UNL     1      -3.015  -1.887  -3.659  0.00  0.00    +0.009 C 
ATOM      5  C   UNL     1      -3.086  -2.935  -4.764  0.00  0.00    +0.036 C 
ATOM      6  C   UNL     1      -2.574  -4.273  -4.294  0.00  0.00    -0.014 C 
ATOM      7  C   UNL     1      -1.729  -4.387  -3.271  0.00  0.00    +0.133 C 
ATOM      8  O   UNL     1      -1.259  -5.595  -2.867  0.00  0.00    -0.441 OA
ATOM      9  C   UNL     1      -1.279  -6.642  -3.709  0.00  0.00    +0.199 C 
ATOM     10  C   UNL     1      -2.119  -6.658  -4.774  0.00  0.00    +0.098 C 
ATOM     11  C   UNL     1      -3.045  -5.504  -5.034  0.00  0.00    +0.097 C 
ENDROOT
BRANCH   1  14
ATOM     12  N   UNL     1       0.866  -0.113  -0.475  0.00  0.00    -0.271 N 
ATOM     13  C   UNL     1       0.309  -0.929  -1.392  0.00  0.00    +0.116 A 
ATOM     14  C   UNL     1       0.018  -2.120  -0.760  0.00  0.00    +0.016 A 
ATOM     15  C   UNL     1       0.424  -1.990   0.586  0.00  0.00    +0.067 A 
ATOM     16  N   UNL     1       0.931  -0.797   0.744  0.00  0.00    -0.176 NA
ATOM     17  C   UNL     1       0.299  -3.046   1.654  0.00  0.00    +0.068 C 
BRANCH  12  19
ATOM     18  C   UNL     1       0.653   2.205   0.276  0.00  0.00    +0.029 C 
ATOM     19  C   UNL     1       1.330   1.256  -0.715  0.00  0.00    +0.140 C 
ENDBRANCH  12  19
ENDBRANCH   1  14
BRANCH  11  20
ATOM     20  C   UNL     1      -4.431  -5.862  -4.564  0.00  0.00    +0.005 A 
ATOM     21  C   UNL     1      -4.784  -6.190  -3.300  0.00  0.00    +0.113 A 
ATOM     22  N   UNL     1      -6.110  -6.441  -3.295  0.00  0.00    -0.271 N 
ATOM     23  N   UNL     1      -6.588  -6.262  -4.599  0.00  0.00    -0.176 NA
ATOM     24  C   UNL     1      -5.582  -5.910  -5.358  0.00  0.00    +0.064 A 
ATOM     25  C   UNL     1      -5.651  -5.610  -6.833  0.00  0.00    +0.068 C 
BRANCH  22  26
ATOM     26  C   UNL     1      -6.909  -6.831  -2.130  0.00  0.00    +0.140 C 
ATOM     27  C   UNL     1      -8.079  -5.859  -1.965  0.00  0.00    +0.029 C 
ENDBRANCH  22  26
ENDBRANCH  11  20
BRANCH   9  28
ATOM     28  N   UNL     1      -0.439  -7.706  -3.490  0.00  0.00    -0.328 N 
ATOM     29  H   UNL     1       0.164  -7.699  -2.730  0.00  0.00    +0.145 HD
ATOM     30  H   UNL     1      -0.449  -8.464  -4.095  0.00  0.00    +0.145 HD
ENDBRANCH   9  28
BRANCH  10  31
ATOM     31  C   UNL     1      -2.124  -7.785  -5.657  0.00  0.00    +0.101 C 
ATOM     32  N   UNL     1      -2.128  -8.680  -6.358  0.00  0.00    -0.191 NA
ENDBRANCH  10  31
TORSDOF 6
