REMARK  Name = ZINC53993835
REMARK  6 active torsions:
REMARK  status: ('A' for Active; 'I' for Inactive)
REMARK    1  A    between atoms: C_1  and  C_2
REMARK    2  A    between atoms: C_5  and  S_8
REMARK    3  A    between atoms: S_8  and  C_11
REMARK    4  A    between atoms: C_12  and  C_23
REMARK    5  A    between atoms: N_14  and  C_17
REMARK    6  A    between atoms: C_15  and  N_16
REMARK                            x       y       z     vdW  Elec       q    Type
REMARK                         _______ _______ _______ _____ _____    ______ ____
ROOT
ATOM      1  C   UNL     1       1.752  -5.029  -0.035  0.00  0.00    +0.155 A 
ATOM      2  C   UNL     1       2.537  -5.251  -1.171  0.00  0.00    +0.087 A 
ATOM      3  N   UNL     1       3.735  -5.608  -0.784  0.00  0.00    -0.168 NA
ATOM      4  N   UNL     1       3.761  -5.629   0.617  0.00  0.00    -0.217 N 
ATOM      5  C   UNL     1       2.527  -5.263   1.060  0.00  0.00    +0.146 A 
ATOM      6  C   UNL     1       2.080  -5.103  -2.599  0.00  0.00    +0.069 C 
ENDROOT
BRANCH   4   7
ATOM      7  C   UNL     1       4.862  -5.962   1.418  0.00  0.00    +0.067 A 
ATOM      8  C   UNL     1       5.058  -5.318   2.632  0.00  0.00    +0.028 A 
ATOM      9  C   UNL     1       6.144  -5.648   3.420  0.00  0.00    +0.002 A 
ATOM     10  C   UNL     1       7.035  -6.619   2.999  0.00  0.00    +0.000 A 
ATOM     11  C   UNL     1       6.842  -7.262   1.790  0.00  0.00    +0.002 A 
ATOM     12  C   UNL     1       5.755  -6.940   1.001  0.00  0.00    +0.028 A 
ENDBRANCH   4   7
BRANCH   1  13
ATOM     13  S   UNL     1       0.063  -4.530  -0.023  0.00  0.00    +0.030 S 
ATOM     14  O   UNL     1      -0.476  -4.950   1.223  0.00  0.00    -0.164 OA
ATOM     15  O   UNL     1      -0.490  -4.937  -1.267  0.00  0.00    -0.164 OA
BRANCH  13  20
ATOM     16  C   UNL     1      -0.018   1.503   0.010  0.00  0.00    +0.044 C 
ATOM     17  C   UNL     1       0.002  -0.004   0.002  0.00  0.00    -0.050 A 
ATOM     18  C   UNL     1       0.006  -0.689  -1.199  0.00  0.00    +0.005 A 
ATOM     19  C   UNL     1       0.025  -2.071  -1.206  0.00  0.00    +0.027 A 
ATOM     20  C   UNL     1       0.040  -2.768  -0.013  0.00  0.00    +0.094 A 
ATOM     21  C   UNL     1       0.037  -2.084   1.188  0.00  0.00    +0.027 A 
ATOM     22  C   UNL     1       0.023  -0.702   1.195  0.00  0.00    +0.005 A 
ENDBRANCH  13  20
ENDBRANCH   1  13
BRANCH   5  23
ATOM     23  N   UNL     1       2.130  -5.150   2.389  0.00  0.00    -0.342 N 
ATOM     24  H   UNL     1       1.223  -4.883   2.603  0.00  0.00    +0.144 HD
ATOM     25  H   UNL     1       2.761  -5.339   3.102  0.00  0.00    +0.144 HD
ENDBRANCH   5  23
TORSDOF 4
