REMARK  Name = ZINC42336402
REMARK  5 active torsions:
REMARK  status: ('A' for Active; 'I' for Inactive)
REMARK    1  A    between atoms: C_1  and  C_2
REMARK    2  A    between atoms: C_2  and  C_3
REMARK    3  A    between atoms: C_7  and  C_21
REMARK    4  A    between atoms: C_11  and  C_13
REMARK    5  A    between atoms: C_18  and  O_19
REMARK                            x       y       z     vdW  Elec       q    Type
REMARK                         _______ _______ _______ _____ _____    ______ ____
ROOT
ATOM      1  C   UNL     1      -1.020  -0.755   0.301  0.00  0.00    +0.102 C 
ATOM      2  C   UNL     1      -0.417  -2.137   0.575  0.00  0.00    +0.182 C 
ATOM      3  O   UNL     1      -1.442  -3.012   1.052  0.00  0.00    -0.373 OA
ATOM      4  C   UNL     1      -2.027  -2.607   2.292  0.00  0.00    +0.133 C 
ATOM      5  C   UNL     1      -2.712  -1.248   2.107  0.00  0.00    +0.139 C 
ATOM      6  N   UNL     1      -1.744  -0.317   1.506  0.00  0.00    -0.290 N 
ATOM      7  C   UNL     1      -1.526   0.900   2.042  0.00  0.00    +0.251 C 
ATOM      8  O   UNL     1      -0.795   1.691   1.478  0.00  0.00    -0.270 OA
ATOM      9  C   UNL     1      -3.060  -3.646   2.733  0.00  0.00    +0.039 C 
ENDROOT
BRANCH   7  10
ATOM     10  C   UNL     1      -2.174   1.271   3.314  0.00  0.00    +0.078 A 
ATOM     11  C   UNL     1      -3.467   0.825   3.600  0.00  0.00    +0.018 A 
ATOM     12  C   UNL     1      -4.066   1.175   4.790  0.00  0.00    +0.021 A 
ATOM     13  C   UNL     1      -3.393   1.970   5.706  0.00  0.00    +0.044 A 
ATOM     14  C   UNL     1      -2.114   2.417   5.435  0.00  0.00    +0.066 A 
ATOM     15  C   UNL     1      -1.494   2.069   4.244  0.00  0.00    +0.130 A 
ATOM     16 CL   UNL     1      -4.161   2.404   7.201  0.00  0.00    -0.083 Cl
BRANCH  15  17
ATOM     17  O   UNL     1      -0.236   2.503   3.979  0.00  0.00    -0.506 OA
ATOM     18  H   UNL     1      -0.202   3.355   3.522  0.00  0.00    +0.292 HD
ENDBRANCH  15  17
ENDBRANCH   7  10
BRANCH   1  20
ATOM     19  C   UNL     1       0.883  -0.248  -1.237  0.00  0.00    +0.006 C 
ATOM     20  C   UNL     1       0.097   0.241  -0.018  0.00  0.00    +0.021 C 
ENDBRANCH   1  20
TORSDOF 3
