REMARK  Name = ZINC48120677
REMARK  8 active torsions:
REMARK  status: ('A' for Active; 'I' for Inactive)
REMARK    1  A    between atoms: C_1  and  C_2
REMARK    2  A    between atoms: C_4  and  O_21
REMARK    3  A    between atoms: C_7  and  N_8
REMARK    4  A    between atoms: C_13  and  C_20
REMARK    5  A    between atoms: C_16  and  C_19
REMARK    6  A    between atoms: O_21  and  C_22
REMARK    7  A    between atoms: C_22  and  C_23
REMARK    8  A    between atoms: C_22  and  C_24
REMARK                            x       y       z     vdW  Elec       q    Type
REMARK                         _______ _______ _______ _____ _____    ______ ____
ROOT
ATOM      1  N   UNL     1       0.159   0.283   2.064  0.00  0.00    -0.269 N 
ATOM      2  C   UNL     1       0.354  -0.325   3.251  0.00  0.00    +0.307 C 
ATOM      3  O   UNL     1       0.577  -1.520   3.293  0.00  0.00    -0.252 OA
ATOM      4  N   UNL     1       0.303   0.392   4.391  0.00  0.00    -0.280 N 
ATOM      5  C   UNL     1       0.137   1.853   4.361  0.00  0.00    +0.140 C 
ATOM      6  C   UNL     1       1.219   2.482   5.246  0.00  0.00    +0.133 C 
ATOM      7  O   UNL     1       1.188   1.866   6.536  0.00  0.00    -0.371 OA
ATOM      8  C   UNL     1       1.480   0.466   6.524  0.00  0.00    +0.133 C 
ATOM      9  C   UNL     1       0.406  -0.266   5.704  0.00  0.00    +0.140 C 
ATOM     10  C   UNL     1       1.481  -0.068   7.957  0.00  0.00    +0.039 C 
ATOM     11  C   UNL     1       0.956   3.982   5.389  0.00  0.00    +0.039 C 
ATOM     12  H   UNL     1       0.046   1.246   2.025  0.00  0.00    +0.156 HD
ENDROOT
BRANCH   1  19
ATOM     13  C   UNL     1       0.513   1.631  -0.415  0.00  0.00    +0.046 C 
ATOM     14  C   UNL     1       0.287   0.143  -0.345  0.00  0.00    -0.026 A 
ATOM     15  C   UNL     1       0.253  -0.606  -1.504  0.00  0.00    +0.050 A 
ATOM     16  C   UNL     1       0.045  -1.976  -1.440  0.00  0.00    +0.121 A 
ATOM     17  C   UNL     1      -0.130  -2.594  -0.210  0.00  0.00    +0.047 A 
ATOM     18  C   UNL     1      -0.096  -1.846   0.950  0.00  0.00    +0.027 A 
ATOM     19  C   UNL     1       0.118  -0.476   0.886  0.00  0.00    +0.038 A 
BRANCH  16  20
ATOM     20  O   UNL     1       0.011  -2.713  -2.582  0.00  0.00    -0.489 OA
BRANCH  20  21
ATOM     21  C   UNL     1      -0.130  -4.128  -2.437  0.00  0.00    +0.167 C 
ATOM     22  C   UNL     1      -0.715  -4.716  -3.723  0.00  0.00    +0.051 C 
ATOM     23  C   UNL     1       1.240  -4.752  -2.168  0.00  0.00    +0.051 C 
ENDBRANCH  20  21
ENDBRANCH  16  20
ENDBRANCH   1  19
TORSDOF 3
