REMARK  Name = ZINC66962874
REMARK  4 active torsions:
REMARK  status: ('A' for Active; 'I' for Inactive)
REMARK    1  A    between atoms: C_1  and  C_2
REMARK    2  A    between atoms: C_2  and  C_3
REMARK    3  A    between atoms: C_8  and  N_9
REMARK    4  A    between atoms: C_18  and  C_20
REMARK                            x       y       z     vdW  Elec       q    Type
REMARK                         _______ _______ _______ _____ _____    ______ ____
ROOT
ATOM      1  N   UNL     1      -1.889   0.756  -2.746  0.00  0.00    -0.269 N 
ATOM      2  C   UNL     1      -2.458   0.333  -3.892  0.00  0.00    +0.307 C 
ATOM      3  O   UNL     1      -3.610  -0.057  -3.890  0.00  0.00    -0.252 OA
ATOM      4  N   UNL     1      -1.751   0.342  -5.039  0.00  0.00    -0.282 N 
ATOM      5  C   UNL     1      -0.334   0.729  -5.041  0.00  0.00    +0.128 C 
ATOM      6  C   UNL     1       0.482  -0.403  -5.678  0.00  0.00    +0.127 C 
ATOM      7  N   UNL     1      -0.151  -0.780  -6.949  0.00  0.00    -0.298 N 
ATOM      8  C   UNL     1      -1.569  -1.167  -6.948  0.00  0.00    +0.127 C 
ATOM      9  C   UNL     1      -2.383  -0.040  -6.310  0.00  0.00    +0.128 C 
ATOM     10  C   UNL     1       0.556  -0.771  -8.097  0.00  0.00    +0.219 C 
ATOM     11  O   UNL     1       0.053  -1.178  -9.123  0.00  0.00    -0.275 OA
ATOM     12  H   UNL     1      -0.975   1.081  -2.749  0.00  0.00    +0.156 HD
ENDROOT
BRANCH   1  18
ATOM     13  C   UNL     1      -1.953   0.769  -0.331  0.00  0.00    -0.026 A 
ATOM     14  C   UNL     1      -2.673   0.746   0.847  0.00  0.00    +0.005 A 
ATOM     15  C   UNL     1      -4.054   0.673   0.813  0.00  0.00    +0.000 A 
ATOM     16  C   UNL     1      -4.717   0.623  -0.400  0.00  0.00    +0.002 A 
ATOM     17  C   UNL     1      -4.002   0.647  -1.581  0.00  0.00    +0.023 A 
ATOM     18  C   UNL     1      -2.616   0.726  -1.550  0.00  0.00    +0.038 A 
BRANCH  13  20
ATOM     19  C   UNL     1      -0.011   2.310  -0.417  0.00  0.00    +0.009 C 
ATOM     20  C   UNL     1      -0.448   0.849  -0.294  0.00  0.00    +0.033 C 
ENDBRANCH  13  20
ENDBRANCH   1  18
BRANCH  10  21
ATOM     21  C   UNL     1       1.972  -0.255  -8.105  0.00  0.00    +0.075 C 
ATOM     22  C   UNL     1       2.904  -1.313  -7.513  0.00  0.00    +0.013 C 
ATOM     23  C   UNL     1       4.342  -0.789  -7.521  0.00  0.00    +0.001 C 
ATOM     24  C   UNL     1       4.765  -0.485  -8.960  0.00  0.00    +0.000 C 
ATOM     25  C   UNL     1       3.833   0.574  -9.553  0.00  0.00    +0.001 C 
ATOM     26  C   UNL     1       2.395   0.050  -9.544  0.00  0.00    +0.013 C 
ENDBRANCH  10  21
TORSDOF 3
