REMARK  Name = ZINC47155289
REMARK  6 active torsions:
REMARK  status: ('A' for Active; 'I' for Inactive)
REMARK    1  A    between atoms: C_1  and  C_2
REMARK    2  A    between atoms: C_7  and  C_8
REMARK    3  A    between atoms: C_8  and  O_9
REMARK    4  A    between atoms: O_9  and  C_10
REMARK    5  A    between atoms: C_13  and  N_24
REMARK    6  A    between atoms: C_15  and  C_16
REMARK                            x       y       z     vdW  Elec       q    Type
REMARK                         _______ _______ _______ _____ _____    ______ ____
ROOT
ATOM      1  C   UNL     1      -0.516  -0.371   5.091  0.00  0.00    +0.128 A 
ATOM      2  C   UNL     1      -0.752   0.954   5.420  0.00  0.00    +0.048 A 
ATOM      3  C   UNL     1      -0.624   1.377   6.729  0.00  0.00    +0.036 A 
ATOM      4  C   UNL     1      -0.261   0.483   7.723  0.00  0.00    +0.127 A 
ATOM      5  C   UNL     1      -0.022  -0.839   7.418  0.00  0.00    +0.044 A 
ATOM      6  C   UNL     1      -0.153  -1.283   6.096  0.00  0.00    +0.020 A 
ENDROOT
BRANCH   6   7
ATOM      7  C   UNL     1       0.093  -2.691   5.763  0.00  0.00    +0.032 C 
ATOM      8  C   UNL     1       0.790  -3.480   6.620  0.00  0.00    +0.080 C 
ATOM      9  C   UNL     1       1.039  -4.934   6.570  0.00  0.00    +0.258 C 
ATOM     10  O   UNL     1       0.600  -5.627   5.671  0.00  0.00    -0.269 OA
ATOM     11  N   UNL     1       1.763  -5.446   7.551  0.00  0.00    -0.243 N 
ATOM     12  C   UNL     1       2.248  -4.674   8.545  0.00  0.00    +0.283 C 
ATOM     13  O   UNL     1       2.921  -5.008   9.501  0.00  0.00    -0.262 OA
ATOM     14  S   UNL     1       1.668  -3.041   8.114  0.00  0.00    -0.026 S 
ATOM     15  H   UNL     1       1.949  -6.398   7.556  0.00  0.00    +0.159 HD
ENDBRANCH   6   7
BRANCH   4  16
ATOM     16  N   UNL     1      -0.128   0.951   9.121  0.00  0.00    +0.056 N 
ATOM     17  O   UNL     1      -0.336   2.111   9.393  0.00  0.00    -0.126 OA
ATOM     18  O   UNL     1       0.190   0.174   9.991  0.00  0.00    -0.126 OA
ENDBRANCH   4  16
BRANCH   1  19
ATOM     19  O   UNL     1      -0.641  -0.788   3.806  0.00  0.00    -0.487 OA
BRANCH  19  20
ATOM     20  C   UNL     1      -1.013   0.196   2.838  0.00  0.00    +0.264 C 
BRANCH  20  27
ATOM     21  C   UNL     1      -1.737   1.784   0.536  0.00  0.00    +0.044 C 
ATOM     22  C   UNL     1      -1.448   0.313   0.376  0.00  0.00    -0.044 A 
ATOM     23  C   UNL     1      -1.524  -0.274  -0.873  0.00  0.00    +0.004 A 
ATOM     24  C   UNL     1      -1.259  -1.623  -1.019  0.00  0.00    +0.000 A 
ATOM     25  C   UNL     1      -0.917  -2.384   0.083  0.00  0.00    +0.000 A 
ATOM     26  C   UNL     1      -0.841  -1.796   1.332  0.00  0.00    +0.007 A 
ATOM     27  C   UNL     1      -1.101  -0.446   1.478  0.00  0.00    -0.007 A 
ENDBRANCH  20  27
ENDBRANCH  19  20
ENDBRANCH   1  19
TORSDOF 5
