REMARK  Name = ZINC35251760
REMARK  5 active torsions:
REMARK  status: ('A' for Active; 'I' for Inactive)
REMARK    1  A    between atoms: C_1  and  N_2
REMARK    2  A    between atoms: C_6  and  C_7
REMARK    3  A    between atoms: C_12  and  N_15
REMARK    4  A    between atoms: N_15  and  C_16
REMARK    5  A    between atoms: N_15  and  C_17
REMARK                            x       y       z     vdW  Elec       q    Type
REMARK                         _______ _______ _______ _____ _____    ______ ____
ROOT
ATOM      1  C   UNL     1      -0.189  -0.374   2.507  0.00  0.00    +0.263 C 
ATOM      2  O   UNL     1      -0.136  -1.188   3.410  0.00  0.00    -0.268 OA
ATOM      3  N   UNL     1      -0.393   0.929   2.785  0.00  0.00    -0.296 N 
ATOM      4  C   UNL     1      -0.618   1.899   1.704  0.00  0.00    +0.106 C 
ATOM      5  C   UNL     1       0.382   3.049   1.858  0.00  0.00    +0.004 C 
ATOM      6  C   UNL     1       0.263   3.638   3.266  0.00  0.00    -0.066 C 
ATOM      7  C   UNL     1       0.601   2.562   4.301  0.00  0.00    +0.004 C 
ATOM      8  C   UNL     1      -0.402   1.405   4.175  0.00  0.00    +0.106 C 
ENDROOT
BRANCH   1  14
ATOM      9  C   UNL     1      -0.835  -3.191   1.393  0.00  0.00    +0.149 C 
ATOM     10  N   UNL     1      -0.316  -2.061   0.618  0.00  0.00    -0.345 N 
ATOM     11  C   UNL     1      -0.042  -2.073  -0.710  0.00  0.00    +0.101 A 
ATOM     12  C   UNL     1       0.419  -0.851  -1.073  0.00  0.00    +0.036 A 
ATOM     13  C   UNL     1       0.437  -0.043   0.069  0.00  0.00    +0.047 A 
ATOM     14  C   UNL     1      -0.030  -0.810   1.115  0.00  0.00    +0.105 A 
ATOM     15 BR   UNL     1       0.947  -0.332  -2.813  0.00  0.00    -0.049 Br
ENDBRANCH   1  14
BRANCH   6  16
ATOM     16  N   UNL     1       1.197   4.763   3.407  0.00  0.00    +0.378 N 
ATOM     17  C   UNL     1       0.872   5.796   2.415  0.00  0.00    -0.096 C 
ATOM     18  C   UNL     1       1.083   5.328   4.758  0.00  0.00    -0.096 C 
ATOM     19  H   UNL     1       2.140   4.438   3.256  0.00  0.00    -0.082 HD
ENDBRANCH   6  16
TORSDOF 2
