REMARK  Name = ZINC23056880
REMARK  6 active torsions:
REMARK  status: ('A' for Active; 'I' for Inactive)
REMARK    1  A    between atoms: C_1  and  C_2
REMARK    2  A    between atoms: N_11  and  C_15
REMARK    3  A    between atoms: C_15  and  C_16
REMARK    4  A    between atoms: C_24  and  C_26
REMARK    5  A    between atoms: C_29  and  O_32
REMARK    6  A    between atoms: O_32  and  C_33
REMARK                            x       y       z     vdW  Elec       q    Type
REMARK                         _______ _______ _______ _____ _____    ______ ____
ROOT
ATOM      1  C   UNL     1       5.798  -4.756   0.720  0.00  0.00    +0.234 C 
ATOM      2  O   UNL     1       5.811  -5.965   0.622  0.00  0.00    -0.274 OA
ATOM      3  N   UNL     1       4.625  -4.102   0.838  0.00  0.00    -0.297 N 
ATOM      4  C   UNL     1       3.354  -4.841   0.848  0.00  0.00    +0.127 C 
ATOM      5  C   UNL     1       2.451  -4.279  -0.256  0.00  0.00    +0.127 C 
ATOM      6  N   UNL     1       2.420  -2.814  -0.137  0.00  0.00    -0.295 N 
ATOM      7  C   UNL     1       3.690  -2.075  -0.154  0.00  0.00    +0.127 C 
ATOM      8  C   UNL     1       4.593  -2.638   0.957  0.00  0.00    +0.127 C 
ATOM      9  C   UNL     1       1.247  -2.160  -0.021  0.00  0.00    +0.247 C 
ATOM     10  O   UNL     1       0.211  -2.786   0.094  0.00  0.00    -0.270 OA
ENDROOT
BRANCH   9  11
ATOM     11  C   UNL     1       1.221  -0.684  -0.033  0.00  0.00    +0.037 A 
ATOM     12  C   UNL     1       0.408   0.009   0.868  0.00  0.00    +0.016 A 
ATOM     13  C   UNL     1       0.387   1.386   0.854  0.00  0.00    +0.046 A 
ATOM     14  C   UNL     1       1.171   2.086  -0.055  0.00  0.00    +0.120 A 
ATOM     15  C   UNL     1       1.981   1.400  -0.953  0.00  0.00    +0.046 A 
ATOM     16  C   UNL     1       2.008   0.023  -0.945  0.00  0.00    +0.016 A 
BRANCH  14  17
ATOM     17  O   UNL     1       1.147   3.443  -0.065  0.00  0.00    -0.495 OA
ATOM     18  C   UNL     1       1.978   4.099  -1.025  0.00  0.00    +0.277 C 
ENDBRANCH  14  17
ENDBRANCH   9  11
BRANCH   1  19
ATOM     19  C   UNL     1       7.092  -3.985   0.711  0.00  0.00    +0.213 C 
BRANCH  19  29
ATOM     20  C   UNL     1       8.322  -8.265   0.890  0.00  0.00    +0.010 C 
ATOM     21  C   UNL     1       9.705  -7.821   1.371  0.00  0.00    +0.018 C 
ATOM     22  C   UNL     1      10.779  -8.687   0.708  0.00  0.00    +0.006 C 
ATOM     23  C   UNL     1      12.162  -8.228   1.174  0.00  0.00    +0.000 C 
ATOM     24  C   UNL     1      12.379  -6.767   0.774  0.00  0.00    +0.003 C 
ATOM     25  C   UNL     1      11.311  -5.894   1.438  0.00  0.00    +0.035 C 
ATOM     26  C   UNL     1       9.927  -6.359   0.998  0.00  0.00    +0.115 C 
ATOM     27  C   UNL     1       8.860  -5.484   1.614  0.00  0.00    +0.247 C 
ATOM     28  O   UNL     1       8.631  -5.327   2.794  0.00  0.00    -0.273 OA
ATOM     29  N   UNL     1       8.214  -4.917   0.574  0.00  0.00    -0.215 N 
ATOM     30  C   UNL     1       8.730  -5.306  -0.598  0.00  0.00    +0.310 C 
ATOM     31  O   UNL     1       8.319  -4.926  -1.677  0.00  0.00    -0.252 OA
ATOM     32  N   UNL     1       9.756  -6.166  -0.448  0.00  0.00    -0.285 N 
ATOM     33  H   UNL     1      10.415  -6.691  -1.155  0.00  0.00    +0.151 HD
ENDBRANCH  19  29
ENDBRANCH   1  19
TORSDOF 4
