REMARK  Name = ZINC40567963
REMARK  6 active torsions:
REMARK  status: ('A' for Active; 'I' for Inactive)
REMARK    1  A    between atoms: C_1  and  N_2
REMARK    2  A    between atoms: N_2  and  C_3
REMARK    3  A    between atoms: C_4  and  C_6
REMARK    4  A    between atoms: C_12  and  C_14
REMARK    5  A    between atoms: N_16  and  C_17
REMARK    6  A    between atoms: C_23  and  C_28
REMARK                            x       y       z     vdW  Elec       q    Type
REMARK                         _______ _______ _______ _____ _____    ______ ____
ROOT
ATOM      1  C   UNL     1      -2.018  -3.053  -4.629  0.00  0.00    +0.034 A 
ATOM      2  C   UNL     1      -2.467  -1.738  -4.779  0.00  0.00    +0.025 A 
ATOM      3  C   UNL     1      -3.437  -1.411  -5.678  0.00  0.00    +0.030 A 
ATOM      4  C   UNL     1      -4.006  -2.410  -6.479  0.00  0.00    +0.079 A 
ATOM      5  C   UNL     1      -3.540  -3.792  -6.328  0.00  0.00    +0.026 A 
ATOM      6  C   UNL     1      -2.537  -4.078  -5.392  0.00  0.00    +0.035 A 
ATOM      7  C   UNL     1      -4.123  -4.783  -7.141  0.00  0.00    +0.060 A 
ATOM      8  N   UNL     1      -5.088  -4.399  -8.023  0.00  0.00    -0.305 N 
ATOM      9  C   UNL     1      -5.476  -3.118  -8.120  0.00  0.00    +0.347 A 
ATOM     10  O   UNL     1      -6.346  -2.834  -8.929  0.00  0.00    -0.245 OA
ATOM     11  N   UNL     1      -4.962  -2.147  -7.380  0.00  0.00    -0.193 NA
ATOM     12  H   UNL     1      -5.502  -5.065  -8.593  0.00  0.00    +0.170 HD
ENDROOT
BRANCH   7  13
ATOM     13  C   UNL     1      -3.702  -6.190  -7.041  0.00  0.00    -0.001 A 
ATOM     14  C   UNL     1      -3.921  -6.908  -5.861  0.00  0.00    +0.010 A 
ATOM     15  C   UNL     1      -3.525  -8.225  -5.776  0.00  0.00    +0.001 A 
ATOM     16  C   UNL     1      -2.910  -8.838  -6.854  0.00  0.00    +0.000 A 
ATOM     17  C   UNL     1      -2.689  -8.134  -8.026  0.00  0.00    +0.001 A 
ATOM     18  C   UNL     1      -3.085  -6.818  -8.129  0.00  0.00    +0.010 A 
ENDBRANCH   7  13
BRANCH   1  21
ATOM     19  C   UNL     1      -0.996  -2.678  -2.513  0.00  0.00    +0.221 C 
ATOM     20  O   UNL     1      -1.789  -1.785  -2.301  0.00  0.00    -0.275 OA
ATOM     21  N   UNL     1      -1.019  -3.335  -3.690  0.00  0.00    -0.285 N 
ATOM     22  H   UNL     1      -0.343  -4.002  -3.886  0.00  0.00    +0.155 HD
BRANCH  19  28
ATOM     23  C   UNL     1      -0.171  -2.162  -0.226  0.00  0.00    +0.091 C 
ATOM     24  C   UNL     1       0.971  -2.440   0.754  0.00  0.00    +0.040 C 
ATOM     25  C   UNL     1       1.120  -3.918   0.968  0.00  0.00    -0.030 C 
ATOM     26  C   UNL     1       0.618  -4.819   0.185  0.00  0.00    -0.030 C 
ATOM     27  C   UNL     1      -0.191  -4.511  -1.041  0.00  0.00    +0.040 C 
ATOM     28  C   UNL     1       0.015  -3.054  -1.460  0.00  0.00    +0.091 C 
BRANCH  23  32
ATOM     29  C   UNL     1      -0.830   1.607  -0.351  0.00  0.00    +0.131 C 
ATOM     30  N   UNL     1      -0.823   0.205   0.075  0.00  0.00    -0.307 N 
ATOM     31  C   UNL     1      -1.557  -0.199   1.277  0.00  0.00    +0.131 C 
ATOM     32  C   UNL     1      -0.142  -0.713  -0.639  0.00  0.00    +0.219 C 
ATOM     33  O   UNL     1       0.494  -0.373  -1.614  0.00  0.00    -0.275 OA
ENDBRANCH  23  32
ENDBRANCH  19  28
ENDBRANCH   1  21
TORSDOF 4
