REMARK  Name = ZINC00602086
REMARK  7 active torsions:
REMARK  status: ('A' for Active; 'I' for Inactive)
REMARK    1  A    between atoms: C_1  and  C_2
REMARK    2  A    between atoms: C_2  and  C_4
REMARK    3  A    between atoms: C_2  and  N_20
REMARK    4  A    between atoms: C_4  and  C_5
REMARK    5  A    between atoms: C_4  and  C_11
REMARK    6  A    between atoms: C_4  and  O_19
REMARK    7  A    between atoms: C_5  and  N_6
REMARK                            x       y       z     vdW  Elec       q    Type
REMARK                         _______ _______ _______ _____ _____    ______ ____
ROOT
ATOM      1  C   UNL     1      -1.332   2.116   0.020  0.00  0.00    +0.133 C 
ENDROOT
BRANCH   1   2
ATOM      2  C   UNL     1      -0.017   1.380   0.010  0.00  0.00    +0.023 A 
ATOM      3  C   UNL     1       1.171   2.088   0.002  0.00  0.00    +0.012 A 
ATOM      4  C   UNL     1       2.377   1.415  -0.013  0.00  0.00    +0.039 A 
ATOM      5  C   UNL     1       2.399   0.030  -0.021  0.00  0.00    +0.126 A 
ATOM      6  C   UNL     1       1.210  -0.679  -0.013  0.00  0.00    +0.077 A 
ATOM      7  C   UNL     1       0.002  -0.004   0.002  0.00  0.00    +0.132 A 
ATOM      8  F   UNL     1      -1.159  -0.696   0.009  0.00  0.00    -0.205 F 
ATOM      9  F   UNL     1       3.579  -0.627  -0.035  0.00  0.00    -0.205 F 
ENDBRANCH   1   2
BRANCH   1  11
ATOM     10  C   UNL     1      -1.378   2.214   2.516  0.00  0.00    +0.034 C 
ATOM     11  C   UNL     1      -2.123   1.728   1.271  0.00  0.00    +0.126 C 
BRANCH  11  12
ATOM     12  N   UNL     1      -3.449   2.349   1.222  0.00  0.00    -0.293 N 
ATOM     13  C   UNL     1      -3.557   3.703   1.167  0.00  0.00    +0.203 A 
ATOM     14  N   UNL     1      -4.694   4.327   1.121  0.00  0.00    -0.237 NA
ATOM     15  C   UNL     1      -5.874   3.657   1.125  0.00  0.00    +0.079 A 
ATOM     16  C   UNL     1      -7.098   4.326   1.075  0.00  0.00    +0.048 A 
ATOM     17  C   UNL     1      -8.270   3.600   1.081  0.00  0.00    +0.043 A 
ATOM     18  C   UNL     1      -8.246   2.211   1.137  0.00  0.00    +0.021 A 
ATOM     19  C   UNL     1      -7.059   1.535   1.186  0.00  0.00    +0.017 A 
ATOM     20  C   UNL     1      -5.860   2.245   1.181  0.00  0.00    +0.065 A 
ATOM     21  C   UNL     1      -4.555   1.569   1.226  0.00  0.00    +0.262 A 
ATOM     22  O   UNL     1      -4.473   0.356   1.270  0.00  0.00    -0.267 OA
ATOM     23 CL   UNL     1      -9.793   4.430   1.018  0.00  0.00    -0.083 Cl
ENDBRANCH  11  12
ENDBRANCH   1  11
BRANCH   1  24
ATOM     24  O   UNL     1      -1.090   3.524   0.026  0.00  0.00    -0.380 OA
ATOM     25  H   UNL     1      -0.585   3.833   0.791  0.00  0.00    +0.211 HD
ENDBRANCH   1  24
BRANCH   1  26
ATOM     26  C   UNL     1      -2.135   1.742  -1.228  0.00  0.00    +0.187 C 
BRANCH  26  27
ATOM     27  N   UNL     1      -1.329   2.002  -2.423  0.00  0.00    -0.249 N 
ATOM     28  C   UNL     1      -1.028   1.127  -3.398  0.00  0.00    +0.219 A 
ATOM     29  N   UNL     1      -0.292   1.746  -4.285  0.00  0.00    -0.223 NA
ATOM     30  C   UNL     1      -0.103   3.011  -3.913  0.00  0.00    +0.244 A 
ATOM     31  N   UNL     1      -0.724   3.218  -2.782  0.00  0.00    -0.158 NA
ENDBRANCH  26  27
ENDBRANCH   1  26
TORSDOF 6
