REMARK  Name = ZINC56055433
REMARK  6 active torsions:
REMARK  status: ('A' for Active; 'I' for Inactive)
REMARK    1  A    between atoms: C_1  and  C_2
REMARK    2  A    between atoms: C_2  and  O_3
REMARK    3  A    between atoms: O_3  and  C_4
REMARK    4  A    between atoms: C_4  and  C_6
REMARK    5  A    between atoms: C_8  and  C_14
REMARK    6  A    between atoms: C_22  and  C_24
REMARK                            x       y       z     vdW  Elec       q    Type
REMARK                         _______ _______ _______ _____ _____    ______ ____
ROOT
ATOM      1  C   UNL     1      -2.610  -2.768   0.318  0.00  0.00    +0.148 C 
ATOM      2  C   UNL     1      -2.985  -4.072  -0.088  0.00  0.00    +0.049 C 
ATOM      3  C   UNL     1      -4.448  -4.294  -0.423  0.00  0.00    +0.138 C 
ATOM      4  N   UNL     1      -5.333  -3.123  -0.290  0.00  0.00    -0.314 N 
ATOM      5  C   UNL     1      -4.797  -1.954   0.111  0.00  0.00    +0.155 C 
ATOM      6  S   UNL     1      -5.826  -0.595   0.265  0.00  0.00    -0.017 S 
ATOM      7  N   UNL     1      -3.505  -1.809   0.400  0.00  0.00    -0.186 NA
ATOM      8  C   UNL     1      -2.080  -5.074  -0.174  0.00  0.00    +0.160 C 
ATOM      9  O   UNL     1      -0.766  -4.809  -0.035  0.00  0.00    -0.293 OA
ATOM     10  C   UNL     1      -2.541  -6.487  -0.425  0.00  0.00    +0.091 C 
ATOM     11  H   UNL     1      -6.280  -3.192  -0.488  0.00  0.00    +0.149 HD
ENDROOT
BRANCH   3  12
ATOM     12  C   UNL     1      -4.535  -4.783  -1.846  0.00  0.00    -0.021 A 
ATOM     13  C   UNL     1      -5.019  -6.050  -2.113  0.00  0.00    +0.007 A 
ATOM     14  C   UNL     1      -5.098  -6.499  -3.418  0.00  0.00    +0.022 A 
ATOM     15  C   UNL     1      -4.693  -5.681  -4.457  0.00  0.00    +0.059 A 
ATOM     16  C   UNL     1      -4.209  -4.412  -4.190  0.00  0.00    +0.060 A 
ATOM     17  C   UNL     1      -4.135  -3.962  -2.884  0.00  0.00    +0.027 A 
ATOM     18 CL   UNL     1      -3.700  -3.384  -5.493  0.00  0.00    -0.082 Cl
ATOM     19 CL   UNL     1      -4.792  -6.245  -6.096  0.00  0.00    -0.082 Cl
ENDBRANCH   3  12
BRANCH   1  20
ATOM     20  C   UNL     1      -1.191  -2.483   0.660  0.00  0.00    +0.356 C 
ATOM     21  O   UNL     1      -0.769  -2.747   1.767  0.00  0.00    -0.243 OA
BRANCH  20  22
ATOM     22  O   UNL     1      -0.375  -1.931  -0.257  0.00  0.00    -0.461 OA
BRANCH  22  24
ATOM     23  C   UNL     1       1.744  -1.059  -1.025  0.00  0.00    +0.048 C 
ATOM     24  C   UNL     1       0.975  -1.684   0.141  0.00  0.00    +0.229 C 
ENDBRANCH  22  24
ENDBRANCH  20  22
ENDBRANCH   1  20
TORSDOF 4
