REMARK  Name = ZINC66275303
REMARK  6 active torsions:
REMARK  status: ('A' for Active; 'I' for Inactive)
REMARK    1  A    between atoms: C_1  and  C_2
REMARK    2  A    between atoms: C_7  and  N_12
REMARK    3  A    between atoms: C_9  and  C_11
REMARK    4  A    between atoms: C_13  and  C_15
REMARK    5  A    between atoms: C_15  and  C_17
REMARK    6  A    between atoms: C_15  and  N_18
REMARK                            x       y       z     vdW  Elec       q    Type
REMARK                         _______ _______ _______ _____ _____    ______ ____
ROOT
ATOM      1  C   UNL     1       1.363  -0.333   6.074  0.00  0.00    +0.167 C 
ATOM      2  C   UNL     1       2.866  -0.362   5.793  0.00  0.00    +0.038 C 
ENDROOT
BRANCH   1   3
ATOM      3  N   UNL     1       1.094   0.561   7.203  0.00  0.00    -0.222 N 
ATOM      4  C   UNL     1       1.392   1.873   7.223  0.00  0.00    +0.254 C 
ATOM      5  O   UNL     1       1.920   2.494   6.322  0.00  0.00    -0.270 OA
ATOM      6  C   UNL     1       0.971   2.432   8.524  0.00  0.00    +0.049 A 
ATOM      7  C   UNL     1       1.022   3.692   9.099  0.00  0.00    +0.014 A 
ATOM      8  C   UNL     1       0.524   3.885  10.378  0.00  0.00    +0.001 A 
ATOM      9  C   UNL     1      -0.022   2.830  11.084  0.00  0.00    +0.001 A 
ATOM     10  C   UNL     1      -0.080   1.564  10.522  0.00  0.00    +0.014 A 
ATOM     11  C   UNL     1       0.413   1.356   9.244  0.00  0.00    +0.049 A 
ATOM     12  C   UNL     1       0.511   0.180   8.353  0.00  0.00    +0.254 C 
ATOM     13  O   UNL     1       0.130  -0.942   8.617  0.00  0.00    -0.270 OA
ENDBRANCH   1   3
BRANCH   1  15
ATOM     14  N   UNL     1       0.735  -0.503   3.687  0.00  0.00    -0.311 N 
ATOM     15  C   UNL     1       0.634   0.166   4.853  0.00  0.00    +0.234 C 
ATOM     16  O   UNL     1      -0.044   1.170   4.919  0.00  0.00    -0.274 OA
ATOM     17  H   UNL     1       1.276  -1.306   3.634  0.00  0.00    +0.149 HD
BRANCH  14  23
ATOM     18  C   UNL     1      -0.019   1.526   0.010  0.00  0.00    +0.008 C 
ATOM     19  C   UNL     1       0.002  -0.004   0.002  0.00  0.00    -0.009 C 
ATOM     20  C   UNL     1      -1.433  -0.534   0.013  0.00  0.00    +0.003 C 
ATOM     21  C   UNL     1      -2.149  -0.040   1.272  0.00  0.00    +0.002 C 
ATOM     22  C   UNL     1      -1.409  -0.547   2.511  0.00  0.00    +0.022 C 
ATOM     23  C   UNL     1       0.026  -0.018   2.500  0.00  0.00    +0.076 C 
ATOM     24  C   UNL     1       0.742  -0.511   1.242  0.00  0.00    +0.009 C 
ATOM     25  C   UNL     1       2.178   0.019   1.231  0.00  0.00    +0.009 C 
ENDBRANCH  14  23
ENDBRANCH   1  15
TORSDOF 3
