REMARK  Name = ZINC04038160
REMARK  12 active torsions:
REMARK  status: ('A' for Active; 'I' for Inactive)
REMARK    1  A    between atoms: C_1  and  N_59
REMARK    2  A    between atoms: C_8  and  O_27
REMARK    3  A    between atoms: C_10  and  C_12
REMARK    4  A    between atoms: C_12  and  C_13
REMARK    5  A    between atoms: C_13  and  C_15
REMARK    6  A    between atoms: C_13  and  O_26
REMARK    7  A    between atoms: C_15  and  C_16
REMARK    8  A    between atoms: C_16  and  C_17
REMARK    9  A    between atoms: C_20  and  O_25
REMARK   10  A    between atoms: C_21  and  O_23
REMARK   11  A    between atoms: O_23  and  C_24
REMARK   12  A    between atoms: O_27  and  C_28
REMARK                            x       y       z     vdW  Elec       q    Type
REMARK                         _______ _______ _______ _____ _____    ______ ____
ROOT
ATOM      1  C   UNL     1      -0.899   2.295   1.022  0.00  0.00    -0.095 C 
ATOM      2  C   UNL     1      -0.420   0.417  -0.432  0.00  0.00    -0.074 C 
ATOM      3  C   UNL     1      -0.030   0.093  -1.875  0.00  0.00    +0.017 C 
ATOM      4  C   UNL     1       1.331   0.664  -2.181  0.00  0.00    -0.040 A 
ATOM      5  C   UNL     1       2.011   0.190  -3.293  0.00  0.00    +0.053 A 
ATOM      6  C   UNL     1       3.262   0.686  -3.617  0.00  0.00    +0.170 A 
ATOM      7  C   UNL     1       3.840   1.669  -2.821  0.00  0.00    +0.208 A 
ATOM      8  C   UNL     1       3.158   2.142  -1.709  0.00  0.00    +0.167 A 
ATOM      9  C   UNL     1       1.902   1.636  -1.387  0.00  0.00    -0.012 A 
ATOM     10  C   UNL     1       1.205   2.175  -0.166  0.00  0.00    -0.032 C 
ATOM     11  O   UNL     1       5.061   1.992  -3.342  0.00  0.00    -0.449 OA
ATOM     12  C   UNL     1       5.046   1.491  -4.692  0.00  0.00    +0.467 C 
ATOM     13  O   UNL     1       4.119   0.391  -4.638  0.00  0.00    -0.452 OA
ATOM     14  N   UNL     1      -0.233   1.867  -0.229  0.00  0.00    +0.383 N 
ATOM     15  H   UNL     1      -0.650   2.373  -1.019  0.00  0.00    -0.081 HD
ENDROOT
BRANCH   8  16
ATOM     16  O   UNL     1       3.720   3.103  -0.928  0.00  0.00    -0.491 OA
ATOM     17  C   UNL     1       4.626   2.666   0.087  0.00  0.00    +0.277 C 
ENDBRANCH   8  16
BRANCH  10  18
ATOM     18  C   UNL     1       1.384   3.694  -0.111  0.00  0.00    +0.021 C 
BRANCH  18  19
ATOM     19  C   UNL     1       0.703   4.332  -1.323  0.00  0.00    +0.114 C 
BRANCH  19  20
ATOM     20  O   UNL     1       1.393   3.947  -2.514  0.00  0.00    -0.392 OA
ATOM     21  H   UNL     1       2.329   4.188  -2.521  0.00  0.00    +0.210 HD
ENDBRANCH  19  20
BRANCH  19  22
ATOM     22  C   UNL     1       0.736   5.855  -1.184  0.00  0.00    +0.036 C 
BRANCH  22  23
ATOM     23  C   UNL     1      -0.053   6.489  -2.331  0.00  0.00    +0.038 C 
BRANCH  23  24
ATOM     24  C   UNL     1      -0.020   7.990  -2.194  0.00  0.00    -0.044 A 
ATOM     25  C   UNL     1       0.991   8.715  -2.795  0.00  0.00    +0.007 A 
ATOM     26  C   UNL     1       1.026  10.092  -2.672  0.00  0.00    +0.049 A 
ATOM     27  C   UNL     1       0.044  10.747  -1.946  0.00  0.00    +0.158 A 
ATOM     28  C   UNL     1      -0.974  10.017  -1.341  0.00  0.00    +0.162 A 
ATOM     29  C   UNL     1      -1.005   8.638  -1.472  0.00  0.00    +0.053 A 
BRANCH  28  30
ATOM     30  O   UNL     1      -1.939  10.656  -0.627  0.00  0.00    -0.491 OA
ATOM     31  C   UNL     1      -2.953   9.842  -0.034  0.00  0.00    +0.277 C 
ENDBRANCH  28  30
BRANCH  27  32
ATOM     32  O   UNL     1       0.076  12.101  -1.824  0.00  0.00    -0.503 OA
ATOM     33  H   UNL     1      -0.404  12.570  -2.520  0.00  0.00    +0.292 HD
ENDBRANCH  27  32
ENDBRANCH  23  24
ENDBRANCH  22  23
ENDBRANCH  19  22
ENDBRANCH  18  19
ENDBRANCH  10  18
TORSDOF 9
