REMARK  Name = ZINC13660082
REMARK  5 active torsions:
REMARK  status: ('A' for Active; 'I' for Inactive)
REMARK    1  A    between atoms: C_1  and  C_2
REMARK    2  A    between atoms: C_5  and  N_8
REMARK    3  A    between atoms: C_12  and  C_13
REMARK    4  A    between atoms: C_24  and  S_25
REMARK    5  A    between atoms: S_25  and  C_28
REMARK                            x       y       z     vdW  Elec       q    Type
REMARK                         _______ _______ _______ _____ _____    ______ ____
ROOT
ATOM      1  C   UNL     1       2.363  -4.305   1.240  0.00  0.00    +0.042 C 
ATOM      2  C   UNL     1       2.388  -2.950   1.525  0.00  0.00    +0.079 C 
ATOM      3  C   UNL     1       3.468  -2.340   2.348  0.00  0.00    +0.117 C 
ATOM      4  N   UNL     1       4.701  -2.774   2.353  0.00  0.00    -0.386 N 
ATOM      5  N   UNL     1       3.027  -1.247   3.120  0.00  0.00    -0.203 N 
ATOM      6  C   UNL     1       1.899  -0.568   2.712  0.00  0.00    +0.183 C 
ATOM      7  N   UNL     1       1.109  -0.891   1.713  0.00  0.00    -0.152 NA
ATOM      8  C   UNL     1       1.344  -2.027   1.023  0.00  0.00    +0.273 C 
ATOM      9  O   UNL     1       0.710  -2.290   0.013  0.00  0.00    -0.268 OA
ATOM     10  S   UNL     1       1.804   0.699   3.792  0.00  0.00    +0.049 S 
ATOM     11  N   UNL     1       3.094   0.305   4.787  0.00  0.00    -0.174 NA
ATOM     12  C   UNL     1       3.600  -0.760   4.247  0.00  0.00    +0.257 C 
ATOM     13  H   UNL     1       4.932  -3.586   1.875  0.00  0.00    +0.157 HD
ATOM     14  H   UNL     1       5.386  -2.284   2.835  0.00  0.00    +0.157 HD
ENDROOT
BRANCH   1  19
ATOM     15  N   UNL     1      -0.071  -4.711   0.921  0.00  0.00    -0.316 N 
ATOM     16  C   UNL     1      -0.833  -5.397   0.031  0.00  0.00    +0.092 A 
ATOM     17  C   UNL     1      -0.020  -5.993  -0.878  0.00  0.00    +0.020 A 
ATOM     18  C   UNL     1       1.299  -5.674  -0.554  0.00  0.00    +0.027 A 
ATOM     19  C   UNL     1       1.257  -4.864   0.573  0.00  0.00    +0.047 A 
BRANCH  15  24
ATOM     20  C   UNL     1      -2.018  -1.700   5.319  0.00  0.00    +0.044 C 
ATOM     21  C   UNL     1      -1.501  -2.499   4.151  0.00  0.00    -0.050 A 
ATOM     22  C   UNL     1      -2.009  -2.278   2.884  0.00  0.00    +0.005 A 
ATOM     23  C   UNL     1      -1.537  -3.009   1.812  0.00  0.00    +0.026 A 
ATOM     24  C   UNL     1      -0.551  -3.967   2.007  0.00  0.00    +0.047 A 
ATOM     25  C   UNL     1      -0.043  -4.187   3.280  0.00  0.00    +0.026 A 
ATOM     26  C   UNL     1      -0.515  -3.449   4.348  0.00  0.00    +0.005 A 
ENDBRANCH  15  24
ENDBRANCH   1  19
BRANCH  12  27
ATOM     27  S   UNL     1       5.000  -1.556   4.962  0.00  0.00    +0.026 S 
ATOM     28  O   UNL     1       5.000  -1.138   6.320  0.00  0.00    -0.167 OA
ATOM     29  O   UNL     1       4.849  -2.928   4.625  0.00  0.00    -0.167 OA
ATOM     30  C   UNL     1       6.429  -0.854   4.093  0.00  0.00    +0.203 C 
ENDBRANCH  12  27
TORSDOF 3
