REMARK  Name = ZINC39356002
REMARK  10 active torsions:
REMARK  status: ('A' for Active; 'I' for Inactive)
REMARK    1  A    between atoms: C_1  and  C_2
REMARK    2  A    between atoms: C_2  and  O_3
REMARK    3  A    between atoms: O_3  and  C_4
REMARK    4  A    between atoms: C_6  and  C_17
REMARK    5  A    between atoms: C_9  and  O_10
REMARK    6  A    between atoms: O_10  and  C_11
REMARK    7  A    between atoms: C_11  and  C_13
REMARK    8  A    between atoms: C_11  and  C_14
REMARK    9  A    between atoms: C_18  and  C_19
REMARK   10  A    between atoms: C_18  and  C_21
REMARK                            x       y       z     vdW  Elec       q    Type
REMARK                         _______ _______ _______ _____ _____    ______ ____
ROOT
ATOM      1  C   UNL     1      -1.471  -1.832  -0.214  0.00  0.00    +0.162 A 
ATOM      2  C   UNL     1      -0.383  -2.680  -0.158  0.00  0.00    +0.057 A 
ATOM      3  C   UNL     1      -0.581  -4.064  -0.084  0.00  0.00    -0.020 A 
ATOM      4  C   UNL     1      -1.882  -4.579  -0.066  0.00  0.00    +0.012 A 
ATOM      5  C   UNL     1      -2.962  -3.726  -0.122  0.00  0.00    +0.050 A 
ATOM      6  C   UNL     1      -2.764  -2.353  -0.191  0.00  0.00    +0.163 A 
ENDROOT
BRANCH   3   7
ATOM      7  C   UNL     1       0.573  -4.972  -0.025  0.00  0.00    +0.026 C 
ATOM      8  C   UNL     1       0.479  -6.141   0.644  0.00  0.00    +0.072 C 
BRANCH   8   9
ATOM      9  C   UNL     1       1.603  -7.142   0.574  0.00  0.00    +0.216 C 
ATOM     10  N   UNL     1       1.100  -8.430   0.077  0.00  0.00    -0.359 N 
ATOM     11  C   UNL     1       1.311  -9.316   1.006  0.00  0.00    +0.060 A 
ATOM     12  C   UNL     1       1.032 -10.756   1.095  0.00  0.00    +0.027 A 
ATOM     13  C   UNL     1       1.372 -11.432   2.211  0.00  0.00    +0.002 A 
ATOM     14  C   UNL     1       1.992 -10.814   3.312  0.00  0.00    +0.002 A 
ATOM     15  C   UNL     1       2.292  -9.500   3.335  0.00  0.00    +0.027 A 
ATOM     16  C   UNL     1       1.967  -8.662   2.171  0.00  0.00    +0.060 A 
ATOM     17  N   UNL     1       2.136  -7.397   1.918  0.00  0.00    -0.359 N 
ATOM     18  H   UNL     1       0.686  -8.590  -0.785  0.00  0.00    +0.162 HD
ATOM     19  H   UNL     1       2.540  -6.742   2.508  0.00  0.00    +0.162 HD
ENDBRANCH   8   9
BRANCH   8  20
ATOM     20  C   UNL     1      -0.689  -6.429   1.421  0.00  0.00    +0.099 C 
ATOM     21  N   UNL     1      -1.616  -6.657   2.037  0.00  0.00    -0.191 NA
ENDBRANCH   8  20
ENDBRANCH   3   7
BRANCH   1  22
ATOM     22  O   UNL     1      -1.282  -0.487  -0.286  0.00  0.00    -0.489 OA
BRANCH  22  24
ATOM     23  C   UNL     1       0.083   1.505  -0.389  0.00  0.00    +0.048 C 
ATOM     24  C   UNL     1       0.070  -0.022  -0.306  0.00  0.00    +0.226 C 
ENDBRANCH  22  24
ENDBRANCH   1  22
BRANCH   6  25
ATOM     25  O   UNL     1      -3.833  -1.516  -0.240  0.00  0.00    -0.474 OA
BRANCH  25  26
ATOM     26  C   UNL     1      -5.126  -2.106  -0.096  0.00  0.00    +0.283 C 
ATOM     27  C   UNL     1      -5.609  -2.614  -1.457  0.00  0.00    +0.064 C 
BRANCH  26  28
ATOM     28  C   UNL     1      -6.093  -1.076   0.428  0.00  0.00    +0.395 C 
ATOM     29  O   UNL     1      -5.733   0.080   0.571  0.00  0.00    -0.242 OA
ATOM     30  O   UNL     1      -7.234  -1.399   0.710  0.00  0.00    -0.242 OA
ENDBRANCH  26  28
ENDBRANCH  25  26
ENDBRANCH   6  25
TORSDOF 8
