REMARK  Name = ZINC67469678
REMARK  10 active torsions:
REMARK  status: ('A' for Active; 'I' for Inactive)
REMARK    1  A    between atoms: C_1  and  C_2
REMARK    2  A    between atoms: C_2  and  C_4
REMARK    3  A    between atoms: C_2  and  N_15
REMARK    4  A    between atoms: C_8  and  S_10
REMARK    5  A    between atoms: S_10  and  N_13
REMARK    6  A    between atoms: N_13  and  C_14
REMARK    7  A    between atoms: N_18  and  C_19
REMARK    8  A    between atoms: C_19  and  C_20
REMARK    9  A    between atoms: C_20  and  C_22
REMARK   10  A    between atoms: C_20  and  O_29
REMARK                            x       y       z     vdW  Elec       q    Type
REMARK                         _______ _______ _______ _____ _____    ______ ____
ROOT
ATOM      1  N   UNL     1       0.688  -0.476  -1.203  0.00  0.00    -0.293 N 
ATOM      2  C   UNL     1       0.006  -0.608  -2.358  0.00  0.00    +0.300 C 
ATOM      3  O   UNL     1      -1.178  -0.335  -2.400  0.00  0.00    -0.253 OA
ATOM      4  N   UNL     1       0.637  -1.043  -3.467  0.00  0.00    -0.297 N 
ATOM      5  H   UNL     1       1.632  -0.695  -1.170  0.00  0.00    +0.151 HD
ATOM      6  H   UNL     1       1.582  -1.261  -3.434  0.00  0.00    +0.150 HD
ENDROOT
BRANCH   1   8
ATOM      7  C   UNL     1      -0.019   1.526   0.010  0.00  0.00    +0.033 C 
ATOM      8  C   UNL     1       0.002  -0.004   0.002  0.00  0.00    +0.102 C 
BRANCH   8   9
ATOM      9  C   UNL     1       0.731  -0.503   1.223  0.00  0.00    -0.026 A 
ATOM     10  C   UNL     1       2.113  -0.514   1.247  0.00  0.00    +0.005 A 
ATOM     11  C   UNL     1       2.782  -0.972   2.366  0.00  0.00    +0.002 A 
ATOM     12  C   UNL     1       2.068  -1.419   3.463  0.00  0.00    +0.028 A 
ATOM     13  C   UNL     1       0.686  -1.407   3.439  0.00  0.00    +0.106 A 
ATOM     14  C   UNL     1       0.018  -0.945   2.321  0.00  0.00    +0.034 A 
BRANCH  13  15
ATOM     15  S   UNL     1      -0.223  -1.978   4.837  0.00  0.00    +0.058 S 
ATOM     16  O   UNL     1      -1.500  -2.374   4.356  0.00  0.00    -0.153 OA
ATOM     17  O   UNL     1       0.633  -2.864   5.545  0.00  0.00    -0.153 OA
BRANCH  15  18
ATOM     18  N   UNL     1      -0.474  -0.672   5.824  0.00  0.00    -0.193 NA
ATOM     19  C   UNL     1      -1.305   0.444   5.365  0.00  0.00    +0.127 C 
ATOM     20  H   UNL     1      -0.071  -0.646   6.706  0.00  0.00    +0.148 HD
ENDBRANCH  15  18
ENDBRANCH  13  15
ENDBRANCH   8   9
ENDBRANCH   1   8
BRANCH   4  21
ATOM     21  C   UNL     1      -0.104  -1.186  -4.723  0.00  0.00    +0.142 C 
BRANCH  21  22
ATOM     22  C   UNL     1       0.839  -1.692  -5.817  0.00  0.00    +0.164 C 
BRANCH  22  23
ATOM     23  C   UNL     1       0.077  -1.839  -7.109  0.00  0.00    +0.018 A 
ATOM     24  C   UNL     1       0.089  -0.816  -8.039  0.00  0.00    +0.009 A 
ATOM     25  C   UNL     1      -0.610  -0.951  -9.223  0.00  0.00    +0.001 A 
ATOM     26  C   UNL     1      -1.322  -2.108  -9.480  0.00  0.00    +0.003 A 
ATOM     27  C   UNL     1      -1.335  -3.132  -8.552  0.00  0.00    +0.039 A 
ATOM     28  C   UNL     1      -0.631  -3.000  -7.367  0.00  0.00    +0.129 A 
ATOM     29  F   UNL     1      -0.639  -4.002  -6.460  0.00  0.00    -0.205 F 
ENDBRANCH  22  23
BRANCH  22  30
ATOM     30  O   UNL     1       1.905  -0.757  -5.997  0.00  0.00    -0.386 OA
ATOM     31  H   UNL     1       1.613   0.127  -6.258  0.00  0.00    +0.210 HD
ENDBRANCH  22  30
ENDBRANCH  21  22
ENDBRANCH   4  21
TORSDOF 8
