REMARK  Name = ZINC23260234
REMARK  5 active torsions:
REMARK  status: ('A' for Active; 'I' for Inactive)
REMARK    1  A    between atoms: C_1  and  N_2
REMARK    2  A    between atoms: N_7  and  C_8
REMARK    3  A    between atoms: C_8  and  C_10
REMARK    4  A    between atoms: C_10  and  N_11
REMARK    5  A    between atoms: C_20  and  C_22
REMARK                            x       y       z     vdW  Elec       q    Type
REMARK                         _______ _______ _______ _____ _____    ______ ____
ROOT
ATOM      1  N   UNL     1      -1.005  -2.212  -0.000  0.00  0.00    -0.219 N 
ATOM      2  C   UNL     1      -0.869  -2.844   1.183  0.00  0.00    +0.275 A 
ATOM      3  O   UNL     1      -0.981  -2.235   2.232  0.00  0.00    -0.266 OA
ATOM      4  C   UNL     1      -0.581  -4.285   1.178  0.00  0.00    +0.050 A 
ATOM      5  C   UNL     1      -0.422  -5.028   2.344  0.00  0.00    +0.014 A 
ATOM      6  C   UNL     1      -0.153  -6.378   2.253  0.00  0.00    +0.001 A 
ATOM      7  C   UNL     1      -0.040  -6.997   1.016  0.00  0.00    +0.001 A 
ATOM      8  C   UNL     1      -0.195  -6.278  -0.151  0.00  0.00    +0.011 A 
ATOM      9  C   UNL     1      -0.466  -4.916  -0.082  0.00  0.00    +0.020 A 
ATOM     10  C   UNL     1      -0.644  -4.077  -1.278  0.00  0.00    +0.153 A 
ATOM     11  N   UNL     1      -0.903  -2.800  -1.131  0.00  0.00    -0.162 NA
ENDROOT
BRANCH  10  12
ATOM     12  C   UNL     1      -0.538  -4.668  -2.627  0.00  0.00    +0.262 C 
ATOM     13  O   UNL     1      -0.302  -5.854  -2.755  0.00  0.00    -0.269 OA
ATOM     14  N   UNL     1      -0.702  -3.892  -3.717  0.00  0.00    -0.324 N 
ATOM     15  H   UNL     1      -0.623  -4.332  -4.722  0.00  0.00    +0.145 HD
ATOM     16  H   UNL     1      -0.915  -2.819  -3.602  0.00  0.00    +0.145 HD
ENDBRANCH  10  12
BRANCH   1  17
ATOM     17  C   UNL     1      -1.293  -0.775   0.010  0.00  0.00    +0.245 C 
BRANCH  17  18
ATOM     18  C   UNL     1       0.002  -0.004   0.002  0.00  0.00    +0.260 C 
ATOM     19  O   UNL     1       1.064  -0.598  -0.011  0.00  0.00    -0.272 OA
BRANCH  18  26
ATOM     20  C   UNL     1       0.179   4.270   0.022  0.00  0.00    +0.150 C 
ATOM     21  N   UNL     1       1.323   3.355   0.007  0.00  0.00    -0.331 N 
ATOM     22  C   UNL     1       2.593   3.838  -0.001  0.00  0.00    +0.094 A 
ATOM     23  C   UNL     1       3.610   2.970  -0.015  0.00  0.00    +0.066 A 
ATOM     24  S   UNL     1       2.758   1.403  -0.009  0.00  0.00    -0.061 S 
ATOM     25  C   UNL     1       1.131   2.006   0.002  0.00  0.00    +0.165 A 
ATOM     26  N   UNL     1      -0.016   1.323   0.009  0.00  0.00    -0.155 NA
ENDBRANCH  18  26
ENDBRANCH  17  18
ENDBRANCH   1  17
TORSDOF 4
