REMARK  Name = ZINC06986365
REMARK  9 active torsions:
REMARK  status: ('A' for Active; 'I' for Inactive)
REMARK    1  A    between atoms: C_1  and  C_2
REMARK    2  A    between atoms: C_2  and  C_3
REMARK    3  A    between atoms: C_3  and  C_4
REMARK    4  A    between atoms: C_4  and  N_5
REMARK    5  A    between atoms: N_17  and  C_20
REMARK    6  A    between atoms: C_20  and  N_54
REMARK    7  A    between atoms: C_21  and  N_54
REMARK    8  A    between atoms: C_22  and  C_23
REMARK    9  A    between atoms: C_22  and  N_54
REMARK                            x       y       z     vdW  Elec       q    Type
REMARK                         _______ _______ _______ _____ _____    ______ ____
ROOT
ATOM      1  N   UNL     1       1.137   1.912   0.002  0.00  0.00    -0.277 N 
ATOM      2  C   UNL     1      -0.014   1.212   0.009  0.00  0.00    +0.263 A 
ATOM      3  O   UNL     1       0.002  -0.004   0.002  0.00  0.00    -0.267 OA
ATOM      4  C   UNL     1      -1.295   1.943   0.019  0.00  0.00    +0.064 A 
ATOM      5  C   UNL     1      -2.513   1.267   0.020  0.00  0.00    +0.015 A 
ATOM      6  C   UNL     1      -3.691   1.985   0.029  0.00  0.00    +0.001 A 
ATOM      7  C   UNL     1      -3.667   3.370   0.037  0.00  0.00    +0.002 A 
ATOM      8  C   UNL     1      -2.466   4.052   0.048  0.00  0.00    +0.027 A 
ATOM      9  C   UNL     1      -1.272   3.346   0.032  0.00  0.00    +0.064 A 
ATOM     10  N   UNL     1      -0.047   4.011   0.024  0.00  0.00    -0.257 N 
ATOM     11  C   UNL     1       1.132   3.300   0.009  0.00  0.00    +0.238 A 
ATOM     12  N   UNL     1       2.124   4.150   0.003  0.00  0.00    -0.133 NA
ATOM     13  N   UNL     1       1.590   5.444   0.015  0.00  0.00    -0.255 N 
ATOM     14  C   UNL     1       0.247   5.328   0.028  0.00  0.00    +0.182 A 
ATOM     15  S   UNL     1      -0.880   6.616   0.045  0.00  0.00    -0.011 S 
ENDROOT
BRANCH   1  16
ATOM     16  C   UNL     1       2.416   1.197  -0.015  0.00  0.00    +0.128 C 
BRANCH  16  17
ATOM     17  C   UNL     1       2.847   0.955  -1.463  0.00  0.00    +0.021 C 
BRANCH  17  19
ATOM     18  C   UNL     1       4.613  -0.034  -2.928  0.00  0.00    +0.004 C 
ATOM     19  C   UNL     1       4.182   0.208  -1.480  0.00  0.00    -0.002 C 
ENDBRANCH  17  19
ENDBRANCH  16  17
ENDBRANCH   1  16
BRANCH  13  20
ATOM     20  C   UNL     1       2.352   6.696   0.014  0.00  0.00    +0.072 C 
BRANCH  20  22
ATOM     21  C   UNL     1       3.475   6.176  -2.067  0.00  0.00    -0.093 C 
ATOM     22  N   UNL     1       2.567   7.122  -1.384  0.00  0.00    +0.394 N 
ATOM     23  H   UNL     1       1.665   7.130  -1.874  0.00  0.00    -0.079 HD
BRANCH  22  24
ATOM     24  C   UNL     1       3.142   8.484  -1.415  0.00  0.00    -0.041 C 
BRANCH  24  25
ATOM     25  C   UNL     1       3.146   8.978  -2.838  0.00  0.00    -0.064 A 
ATOM     26  C   UNL     1       4.250   8.761  -3.642  0.00  0.00    +0.002 A 
ATOM     27  C   UNL     1       4.251   9.210  -4.950  0.00  0.00    +0.000 A 
ATOM     28  C   UNL     1       3.154   9.885  -5.450  0.00  0.00    +0.000 A 
ATOM     29  C   UNL     1       2.052  10.107  -4.645  0.00  0.00    +0.000 A 
ATOM     30  C   UNL     1       2.048   9.653  -3.339  0.00  0.00    +0.002 A 
ENDBRANCH  24  25
ENDBRANCH  22  24
ENDBRANCH  20  22
ENDBRANCH  13  20
TORSDOF 7
