REMARK  Name = ZINC40312103
REMARK  10 active torsions:
REMARK  status: ('A' for Active; 'I' for Inactive)
REMARK    1  A    between atoms: C_1  and  C_2
REMARK    2  A    between atoms: C_2  and  C_3
REMARK    3  A    between atoms: C_3  and  C_29
REMARK    4  A    between atoms: C_4  and  C_27
REMARK    5  A    between atoms: N_8  and  C_15
REMARK    6  A    between atoms: C_11  and  C_13
REMARK    7  A    between atoms: C_15  and  C_16
REMARK    8  A    between atoms: N_18  and  C_19
REMARK    9  A    between atoms: C_22  and  C_26
REMARK   10  A    between atoms: C_24  and  C_25
REMARK                            x       y       z     vdW  Elec       q    Type
REMARK                         _______ _______ _______ _____ _____    ______ ____
ROOT
ATOM      1  C   UNL     1      -1.438  -0.523   0.005  0.00  0.00    +0.016 C 
ATOM      2  C   UNL     1      -2.168  -0.028  -1.248  0.00  0.00    +0.185 C 
ATOM      3  C   UNL     1      -1.513  -0.620  -2.467  0.00  0.00    +0.240 C 
ATOM      4  O   UNL     1      -1.542  -0.008  -3.514  0.00  0.00    -0.274 OA
ATOM      5  N   UNL     1      -0.897  -1.811  -2.419  0.00  0.00    -0.231 N 
ATOM      6  C   UNL     1      -0.817  -2.537  -1.294  0.00  0.00    +0.240 C 
ATOM      7  O   UNL     1      -0.237  -3.601  -1.314  0.00  0.00    -0.274 OA
ATOM      8  C   UNL     1      -1.432  -2.055  -0.007  0.00  0.00    +0.185 C 
ATOM      9  C   UNL     1      -2.162  -0.022   1.257  0.00  0.00    +0.015 C 
ENDROOT
BRANCH   1  11
ATOM     10  C   UNL     1      -0.010   1.527   0.013  0.00  0.00    +0.004 C 
ATOM     11  C   UNL     1       0.001  -0.003   0.001  0.00  0.00    +0.007 C 
ENDBRANCH   1  11
BRANCH   8  12
ATOM     12  C   UNL     1      -0.643  -2.553   1.132  0.00  0.00    +0.076 C 
ATOM     13  N   UNL     1      -0.035  -2.937   2.011  0.00  0.00    -0.196 NA
ENDBRANCH   8  12
BRANCH   2  14
ATOM     14  C   UNL     1      -3.578  -0.447  -1.194  0.00  0.00    +0.076 C 
ATOM     15  N   UNL     1      -4.667  -0.770  -1.152  0.00  0.00    -0.196 NA
ENDBRANCH   2  14
BRANCH   5  16
ATOM     16  C   UNL     1      -0.289  -2.339  -3.643  0.00  0.00    +0.212 C 
BRANCH  16  17
ATOM     17  C   UNL     1       1.142  -1.874  -3.733  0.00  0.00    +0.235 C 
ATOM     18  O   UNL     1       1.608  -1.171  -2.861  0.00  0.00    -0.274 OA
ATOM     19  N   UNL     1       1.904  -2.240  -4.783  0.00  0.00    -0.284 N 
ATOM     20  H   UNL     1       1.558  -2.866  -5.438  0.00  0.00    +0.155 HD
BRANCH  19  21
ATOM     21  C   UNL     1       3.194  -1.717  -4.928  0.00  0.00    +0.036 A 
ATOM     22  C   UNL     1       3.517  -0.495  -4.352  0.00  0.00    +0.024 A 
ATOM     23  C   UNL     1       4.791   0.019  -4.497  0.00  0.00    +0.005 A 
ATOM     24  C   UNL     1       5.744  -0.682  -5.214  0.00  0.00    -0.050 A 
ATOM     25  C   UNL     1       5.425  -1.899  -5.788  0.00  0.00    +0.008 A 
ATOM     26  C   UNL     1       4.154  -2.421  -5.641  0.00  0.00    -0.029 A 
ATOM     27  C   UNL     1       3.809  -3.751  -6.261  0.00  0.00    +0.045 C 
ATOM     28  C   UNL     1       7.132  -0.118  -5.370  0.00  0.00    +0.044 C 
ENDBRANCH  19  21
ENDBRANCH  16  17
ENDBRANCH   5  16
TORSDOF 6
