REMARK  Name = ZINC07164305
REMARK  6 active torsions:
REMARK  status: ('A' for Active; 'I' for Inactive)
REMARK    1  A    between atoms: C_1  and  C_2
REMARK    2  A    between atoms: C_6  and  N_9
REMARK    3  A    between atoms: C_7  and  C_8
REMARK    4  A    between atoms: C_10  and  C_12
REMARK    5  A    between atoms: C_12  and  C_21
REMARK    6  A    between atoms: C_13  and  C_14
REMARK                            x       y       z     vdW  Elec       q    Type
REMARK                         _______ _______ _______ _____ _____    ______ ____
ROOT
ATOM      1  N   UNL     1       0.067  -2.794   2.404  0.00  0.00    -0.281 N 
ATOM      2  C   UNL     1      -0.058  -4.136   2.392  0.00  0.00    +0.259 C 
ATOM      3  O   UNL     1      -0.145  -4.729   1.333  0.00  0.00    -0.269 OA
ATOM      4  H   UNL     1       0.216  -2.329   3.241  0.00  0.00    +0.155 HD
ENDROOT
BRANCH   1  10
ATOM      5  C   UNL     1       1.160   1.233  -0.195  0.00  0.00    +0.044 C 
ATOM      6  C   UNL     1       0.503  -0.118  -0.079  0.00  0.00    -0.046 A 
ATOM      7  C   UNL     1      -0.186  -0.646  -1.156  0.00  0.00    +0.004 A 
ATOM      8  C   UNL     1      -0.790  -1.886  -1.054  0.00  0.00    +0.002 A 
ATOM      9  C   UNL     1      -0.708  -2.601   0.125  0.00  0.00    +0.023 A 
ATOM     10  C   UNL     1      -0.017  -2.073   1.208  0.00  0.00    +0.037 A 
ATOM     11  C   UNL     1       0.594  -0.830   1.101  0.00  0.00    -0.026 A 
ATOM     12  C   UNL     1       1.350  -0.257   2.271  0.00  0.00    +0.046 C 
ENDBRANCH   1  10
BRANCH   2  13
ATOM     13  C   UNL     1      -0.089  -4.884   3.659  0.00  0.00    +0.114 C 
ATOM     14  C   UNL     1      -0.216  -6.244   3.647  0.00  0.00    +0.032 C 
BRANCH  14  15
ATOM     15  C   UNL     1      -0.422  -6.973   4.904  0.00  0.00    -0.023 A 
ATOM     16  C   UNL     1      -1.042  -6.343   5.990  0.00  0.00    +0.008 A 
ATOM     17  C   UNL     1      -1.231  -7.035   7.167  0.00  0.00    +0.002 A 
ATOM     18  C   UNL     1      -0.811  -8.349   7.278  0.00  0.00    +0.015 A 
ATOM     19  C   UNL     1      -0.196  -8.980   6.209  0.00  0.00    +0.018 A 
ATOM     20  C   UNL     1      -0.004  -8.305   5.022  0.00  0.00    +0.023 A 
ATOM     21 BR   UNL     1       0.374 -10.776   6.375  0.00  0.00    -0.050 Br
ENDBRANCH  14  15
BRANCH  13  22
ATOM     22  C   UNL     1       0.014  -4.186   4.905  0.00  0.00    +0.104 C 
ATOM     23  N   UNL     1       0.095  -3.632   5.894  0.00  0.00    -0.191 NA
ENDBRANCH  13  22
ENDBRANCH   2  13
TORSDOF 4
