REMARK  Name = ZINC37327359
REMARK  3 active torsions:
REMARK  status: ('A' for Active; 'I' for Inactive)
REMARK    1  A    between atoms: C_3  and  S_9
REMARK    2  A    between atoms: S_9  and  N_12
REMARK    3  A    between atoms: C_17  and  N_19
REMARK                            x       y       z     vdW  Elec       q    Type
REMARK                         _______ _______ _______ _____ _____    ______ ____
ROOT
ATOM      1  S   UNL     1       4.269   2.633  -0.080  0.00  0.00    +0.065 S 
ATOM      2  O   UNL     1       3.303   3.598   0.313  0.00  0.00    -0.153 OA
ATOM      3  O   UNL     1       3.940   1.512  -0.888  0.00  0.00    -0.153 OA
ENDROOT
BRANCH   1   6
ATOM      4  C   UNL     1       6.992   3.741  -2.818  0.00  0.00    +0.040 A 
ATOM      5  C   UNL     1       5.995   3.055  -2.152  0.00  0.00    +0.034 A 
ATOM      6  C   UNL     1       5.540   3.510  -0.929  0.00  0.00    +0.141 A 
ATOM      7  C   UNL     1       6.082   4.655  -0.370  0.00  0.00    +0.152 A 
ATOM      8  C   UNL     1       7.081   5.343  -1.037  0.00  0.00    +0.078 A 
ATOM      9  C   UNL     1       7.537   4.886  -2.261  0.00  0.00    +0.126 A 
ATOM     10  F   UNL     1       8.511   5.557  -2.913  0.00  0.00    -0.205 F 
ATOM     11  F   UNL     1       5.637   5.100   0.825  0.00  0.00    -0.203 F 
ENDBRANCH   1   6
BRANCH   1  12
ATOM     12  N   UNL     1       4.933   2.034   1.313  0.00  0.00    -0.152 NA
ATOM     13  C   UNL     1       4.769   2.746   2.587  0.00  0.00    +0.112 C 
ATOM     14  C   UNL     1       6.152   2.976   3.206  0.00  0.00    +0.017 C 
ATOM     15  C   UNL     1       6.882   1.636   3.324  0.00  0.00    +0.005 C 
ATOM     16  C   UNL     1       7.070   1.031   1.931  0.00  0.00    +0.045 C 
ATOM     17  C   UNL     1       5.693   0.776   1.300  0.00  0.00    +0.208 C 
BRANCH  17  18
ATOM     18  N   UNL     1       5.862   0.319  -0.082  0.00  0.00    -0.185 NA
ATOM     19  C   UNL     1       5.504  -0.834  -0.407  0.00  0.00    +0.236 C 
ATOM     20  O   UNL     1       5.158  -1.948  -0.721  0.00  0.00    -0.210 OA
ENDBRANCH  17  18
ENDBRANCH   1  12
TORSDOF 3
