REMARK  Name = ZINC07003169
REMARK  7 active torsions:
REMARK  status: ('A' for Active; 'I' for Inactive)
REMARK    1  A    between atoms: C_1  and  C_2
REMARK    2  A    between atoms: C_7  and  N_8
REMARK    3  A    between atoms: C_9  and  C_11
REMARK    4  A    between atoms: C_11  and  C_12
REMARK    5  A    between atoms: C_12  and  S_13
REMARK    6  A    between atoms: S_13  and  C_16
REMARK    7  A    between atoms: N_25  and  C_26
REMARK                            x       y       z     vdW  Elec       q    Type
REMARK                         _______ _______ _______ _____ _____    ______ ____
ROOT
ATOM      1  C   UNL     1      -0.023   1.073   0.008  0.00  0.00    +0.181 C 
ENDROOT
BRANCH   1   2
ATOM      2  S   UNL     1      -0.908   1.662  -1.461  0.00  0.00    -0.003 S 
ATOM      3  O   UNL     1      -2.178   1.030  -1.554  0.00  0.00    -0.169 OA
ATOM      4  O   UNL     1      -0.792   3.074  -1.569  0.00  0.00    -0.169 OA
BRANCH   2   5
ATOM      5  C   UNL     1       0.009   1.030  -2.827  0.00  0.00    +0.092 A 
ATOM      6  C   UNL     1       1.037   1.779  -3.372  0.00  0.00    +0.029 A 
ATOM      7  C   UNL     1       1.764   1.288  -4.439  0.00  0.00    +0.031 A 
ATOM      8  C   UNL     1       1.454   0.046  -4.971  0.00  0.00    +0.090 A 
ATOM      9  C   UNL     1       0.414  -0.707  -4.426  0.00  0.00    +0.159 A 
ATOM     10  C   UNL     1      -0.306  -0.208  -3.352  0.00  0.00    +0.075 A 
ATOM     11  O   UNL     1       0.338  -1.860  -5.135  0.00  0.00    -0.407 OA
ATOM     12  C   UNL     1       1.280  -1.853  -6.091  0.00  0.00    +0.421 A 
ATOM     13  O   UNL     1       1.472  -2.745  -6.895  0.00  0.00    -0.223 OA
ATOM     14  N   UNL     1       1.982  -0.704  -6.021  0.00  0.00    -0.277 N 
ATOM     15  C   UNL     1       3.095  -0.315  -6.890  0.00  0.00    +0.156 C 
ENDBRANCH   2   5
ENDBRANCH   1   2
BRANCH   1  16
ATOM     16  C   UNL     1      -0.738   1.567   1.267  0.00  0.00    +0.119 C 
BRANCH  16  18
ATOM     17  N   UNL     1      -0.453   1.393   3.718  0.00  0.00    -0.285 N 
ATOM     18  C   UNL     1      -0.002   1.077   2.488  0.00  0.00    +0.219 C 
ATOM     19  O   UNL     1       0.996   0.400   2.363  0.00  0.00    -0.275 OA
ATOM     20  H   UNL     1      -1.203   2.000   3.819  0.00  0.00    +0.155 HD
BRANCH  17  27
ATOM     21  C   UNL     1      -0.644   2.818   6.173  0.00  0.00    +0.046 C 
ATOM     22  C   UNL     1       0.092   1.507   6.068  0.00  0.00    -0.027 A 
ATOM     23  C   UNL     1       0.694   0.962   7.186  0.00  0.00    +0.043 A 
ATOM     24  C   UNL     1       1.375  -0.240   7.089  0.00  0.00    +0.124 A 
ATOM     25  C   UNL     1       1.449  -0.900   5.874  0.00  0.00    +0.040 A 
ATOM     26  C   UNL     1       0.845  -0.361   4.756  0.00  0.00    +0.026 A 
ATOM     27  C   UNL     1       0.161   0.844   4.851  0.00  0.00    +0.036 A 
ATOM     28  F   UNL     1       1.967  -0.769   8.182  0.00  0.00    -0.205 F 
ENDBRANCH  17  27
ENDBRANCH  16  18
ENDBRANCH   1  16
TORSDOF 5
