REMARK  Name = ZINC20290793
REMARK  7 active torsions:
REMARK  status: ('A' for Active; 'I' for Inactive)
REMARK    1  A    between atoms: C_1  and  C_2
REMARK    2  A    between atoms: C_7  and  N_8
REMARK    3  A    between atoms: C_12  and  C_13
REMARK    4  A    between atoms: C_12  and  N_14
REMARK    5  A    between atoms: N_14  and  C_15
REMARK    6  A    between atoms: C_15  and  C_16
REMARK    7  A    between atoms: C_16  and  C_17
REMARK                            x       y       z     vdW  Elec       q    Type
REMARK                         _______ _______ _______ _____ _____    ______ ____
ROOT
ATOM      1  N   UNL     1       0.024  -0.044   2.434  0.00  0.00    -0.189 N 
ATOM      2  C   UNL     1      -1.151   0.262   3.022  0.00  0.00    +0.265 C 
ATOM      3  O   UNL     1      -2.207  -0.076   2.521  0.00  0.00    -0.269 OA
ATOM      4  C   UNL     1      -1.121   1.017   4.287  0.00  0.00    +0.116 C 
ATOM      5  C   UNL     1      -2.285   1.366   4.947  0.00  0.00    +0.018 C 
ATOM      6  C   UNL     1      -3.623   1.104   4.304  0.00  0.00    +0.061 C 
ATOM      7  C   UNL     1       0.204   1.383   4.819  0.00  0.00    +0.258 C 
ATOM      8  O   UNL     1       0.309   2.006   5.859  0.00  0.00    -0.270 OA
ATOM      9  N   UNL     1       1.296   1.009   4.122  0.00  0.00    -0.235 N 
ATOM     10  C   UNL     1       1.195   0.317   2.978  0.00  0.00    +0.320 C 
ATOM     11  O   UNL     1       2.218   0.006   2.401  0.00  0.00    -0.251 OA
ATOM     12  H   UNL     1       2.176   1.242   4.458  0.00  0.00    +0.159 HD
ENDROOT
BRANCH   1  19
ATOM     13  C   UNL     1      -0.048   1.421  -0.005  0.00  0.00    +0.045 C 
ATOM     14  C   UNL     1      -0.013  -0.085   0.018  0.00  0.00    -0.029 A 
ATOM     15  C   UNL     1      -0.010  -0.794  -1.167  0.00  0.00    +0.005 A 
ATOM     16  C   UNL     1       0.021  -2.176  -1.147  0.00  0.00    +0.000 A 
ATOM     17  C   UNL     1       0.050  -2.853   0.059  0.00  0.00    +0.002 A 
ATOM     18  C   UNL     1       0.047  -2.149   1.247  0.00  0.00    +0.024 A 
ATOM     19  C   UNL     1       0.021  -0.761   1.230  0.00  0.00    +0.049 A 
ENDBRANCH   1  19
BRANCH   5  20
ATOM     20  N   UNL     1      -2.223   1.941   6.165  0.00  0.00    -0.346 N 
ATOM     21  H   UNL     1      -1.363   2.178   6.546  0.00  0.00    +0.146 HD
BRANCH  20  22
ATOM     22  C   UNL     1      -3.455   2.207   6.912  0.00  0.00    +0.106 C 
BRANCH  22  23
ATOM     23  C   UNL     1      -3.107   2.858   8.252  0.00  0.00    +0.056 C 
BRANCH  23  24
ATOM     24  C   UNL     1      -4.374   3.132   9.021  0.00  0.00    -0.021 A 
ATOM     25  C   UNL     1      -5.064   4.283   9.040  0.00  0.00    +0.087 A 
ATOM     26  N   UNL     1      -6.159   4.157   9.850  0.00  0.00    -0.360 N 
ATOM     27  H   UNL     1      -6.809   4.857  10.021  0.00  0.00    +0.165 HD
ATOM     28  C   UNL     1      -6.202   2.890  10.386  0.00  0.00    +0.047 A 
ATOM     29  C   UNL     1      -5.089   2.190   9.886  0.00  0.00    +0.003 A 
ATOM     30  C   UNL     1      -4.875   0.862  10.260  0.00  0.00    +0.010 A 
ATOM     31  C   UNL     1      -5.752   0.247  11.109  0.00  0.00    +0.001 A 
ATOM     32  C   UNL     1      -6.854   0.932  11.602  0.00  0.00    +0.002 A 
ATOM     33  C   UNL     1      -7.079   2.246  11.253  0.00  0.00    +0.026 A 
ENDBRANCH  23  24
ENDBRANCH  22  23
ENDBRANCH  20  22
ENDBRANCH   5  20
TORSDOF 5
