REMARK  Name = ZINC13751648
REMARK  6 active torsions:
REMARK  status: ('A' for Active; 'I' for Inactive)
REMARK    1  A    between atoms: C_1  and  C_2
REMARK    2  A    between atoms: C_2  and  C_3
REMARK    3  A    between atoms: C_2  and  C_4
REMARK    4  A    between atoms: C_4  and  C_5
REMARK    5  A    between atoms: N_13  and  C_16
REMARK    6  A    between atoms: N_24  and  C_25
REMARK                            x       y       z     vdW  Elec       q    Type
REMARK                         _______ _______ _______ _____ _____    ______ ____
ROOT
ATOM      1  C   UNL     1      -1.103  -2.246  -0.479  0.00  0.00    +0.127 C 
ATOM      2  C   UNL     1      -2.630  -2.492  -0.433  0.00  0.00    +0.141 C 
ATOM      3  C   UNL     1      -2.839  -3.644  -1.453  0.00  0.00    +0.249 C 
ATOM      4  C   UNL     1      -3.624  -2.988  -2.566  0.00  0.00    +0.258 C 
ATOM      5  O   UNL     1      -3.996  -3.538  -3.580  0.00  0.00    -0.272 OA
ATOM      6  N   UNL     1      -3.845  -1.705  -2.257  0.00  0.00    -0.208 N 
ATOM      7  C   UNL     1      -3.335  -1.311  -1.063  0.00  0.00    +0.234 C 
ATOM      8  O   UNL     1      -3.420  -0.204  -0.576  0.00  0.00    -0.274 OA
ATOM      9  O   UNL     1      -1.524  -3.994  -1.919  0.00  0.00    -0.258 OA
ATOM     10  N   UNL     1      -0.714  -2.815  -1.792  0.00  0.00    -0.248 N 
ENDROOT
BRANCH   6  11
ATOM     11  C   UNL     1      -4.555  -0.833  -3.097  0.00  0.00    +0.044 A 
ATOM     12  C   UNL     1      -5.790  -0.340  -2.701  0.00  0.00    +0.027 A 
ATOM     13  C   UNL     1      -6.487   0.518  -3.529  0.00  0.00    +0.040 A 
ATOM     14  C   UNL     1      -5.955   0.885  -4.754  0.00  0.00    +0.124 A 
ATOM     15  C   UNL     1      -4.722   0.394  -5.150  0.00  0.00    +0.040 A 
ATOM     16  C   UNL     1      -4.020  -0.460  -4.322  0.00  0.00    +0.027 A 
ATOM     17  F   UNL     1      -6.638   1.724  -5.563  0.00  0.00    -0.205 F 
ENDBRANCH   6  11
BRANCH  10  18
ATOM     18  C   UNL     1       0.231  -2.318  -2.692  0.00  0.00    +0.065 A 
ATOM     19  C   UNL     1       1.327  -3.093  -3.050  0.00  0.00    +0.028 A 
ATOM     20  C   UNL     1       2.259  -2.598  -3.941  0.00  0.00    +0.002 A 
ATOM     21  C   UNL     1       2.102  -1.333  -4.477  0.00  0.00    +0.000 A 
ATOM     22  C   UNL     1       1.012  -0.559  -4.124  0.00  0.00    +0.002 A 
ATOM     23  C   UNL     1       0.073  -1.050  -3.237  0.00  0.00    +0.028 A 
ENDBRANCH  10  18
BRANCH   1  24
ATOM     24  C   UNL     1      -0.793  -0.749  -0.424  0.00  0.00    +0.031 C 
BRANCH  24  26
ATOM     25  C   UNL     1       1.033   0.954  -0.529  0.00  0.00    +0.007 C 
ATOM     26  C   UNL     1       0.723  -0.541  -0.430  0.00  0.00    -0.015 C 
ATOM     27  C   UNL     1       1.319  -1.101   0.864  0.00  0.00    +0.007 C 
ENDBRANCH  24  26
ENDBRANCH   1  24
TORSDOF 4
