REMARK  Name = ZINC20798737
REMARK  7 active torsions:
REMARK  status: ('A' for Active; 'I' for Inactive)
REMARK    1  A    between atoms: C_1  and  C_2
REMARK    2  A    between atoms: C_2  and  O_3
REMARK    3  A    between atoms: O_3  and  C_4
REMARK    4  A    between atoms: C_4  and  C_6
REMARK    5  A    between atoms: N_9  and  C_12
REMARK    6  A    between atoms: N_17  and  C_20
REMARK    7  A    between atoms: C_24  and  C_26
REMARK                            x       y       z     vdW  Elec       q    Type
REMARK                         _______ _______ _______ _____ _____    ______ ____
ROOT
ATOM      1  C   UNL     1      -6.128  -4.758   1.461  0.00  0.00    +0.153 C 
ATOM      2  C   UNL     1      -5.993  -6.279   1.679  0.00  0.00    +0.125 C 
ATOM      3  C   UNL     1      -6.742  -6.873   0.506  0.00  0.00    +0.228 C 
ATOM      4  O   UNL     1      -6.883  -8.057   0.291  0.00  0.00    -0.275 OA
ATOM      5  N   UNL     1      -7.225  -5.883  -0.255  0.00  0.00    -0.209 N 
ATOM      6  C   UNL     1      -6.941  -4.649   0.189  0.00  0.00    +0.244 C 
ATOM      7  O   UNL     1      -7.279  -3.613  -0.342  0.00  0.00    -0.273 OA
ENDROOT
BRANCH   5   8
ATOM      8  C   UNL     1      -7.969  -6.116  -1.421  0.00  0.00    +0.045 A 
ATOM      9  C   UNL     1      -7.364  -6.697  -2.527  0.00  0.00    +0.025 A 
ATOM     10  C   UNL     1      -8.099  -6.926  -3.674  0.00  0.00    +0.022 A 
ATOM     11  C   UNL     1      -9.437  -6.576  -3.721  0.00  0.00    +0.053 A 
ATOM     12  C   UNL     1     -10.042  -5.997  -2.620  0.00  0.00    +0.075 A 
ATOM     13  C   UNL     1      -9.313  -5.772  -1.468  0.00  0.00    +0.037 A 
ATOM     14 CL   UNL     1     -10.358  -6.865  -5.164  0.00  0.00    -0.083 Cl
BRANCH  12  15
ATOM     15  C   UNL     1     -11.499  -5.616  -2.675  0.00  0.00    +0.419 C 
ATOM     16  F   UNL     1     -11.880  -5.053  -1.452  0.00  0.00    -0.166 F 
ATOM     17  F   UNL     1     -11.700  -4.686  -3.700  0.00  0.00    -0.166 F 
ATOM     18  F   UNL     1     -12.270  -6.757  -2.923  0.00  0.00    -0.166 F 
ENDBRANCH  12  15
ENDBRANCH   5   8
BRANCH   1  22
ATOM     19  C   UNL     1      -2.771  -2.567  -0.026  0.00  0.00    +0.100 C 
ATOM     20  C   UNL     1      -3.503  -2.068   1.223  0.00  0.00    +0.030 C 
ATOM     21  C   UNL     1      -4.907  -2.677   1.262  0.00  0.00    +0.086 C 
ATOM     22  N   UNL     1      -4.806  -4.142   1.284  0.00  0.00    -0.291 NA
ATOM     23  C   UNL     1      -4.148  -4.647   0.072  0.00  0.00    +0.086 C 
ATOM     24  C   UNL     1      -2.722  -4.097  -0.002  0.00  0.00    +0.030 C 
BRANCH  19  25
ATOM     25  C   UNL     1      -1.367  -2.018  -0.039  0.00  0.00    +0.310 C 
ATOM     26  O   UNL     1      -0.423  -2.773  -0.030  0.00  0.00    -0.251 OA
BRANCH  25  27
ATOM     27  O   UNL     1      -1.165  -0.691  -0.060  0.00  0.00    -0.465 OA
BRANCH  27  29
ATOM     28  C   UNL     1       0.221   1.288  -0.095  0.00  0.00    +0.048 C 
ATOM     29  C   UNL     1       0.191  -0.242  -0.071  0.00  0.00    +0.229 C 
ENDBRANCH  27  29
ENDBRANCH  25  27
ENDBRANCH  19  25
ENDBRANCH   1  22
TORSDOF 6
