REMARK  Name = ZINC09972863
REMARK  6 active torsions:
REMARK  status: ('A' for Active; 'I' for Inactive)
REMARK    1  A    between atoms: C_1  and  C_2
REMARK    2  A    between atoms: C_2  and  C_3
REMARK    3  A    between atoms: N_9  and  N_10
REMARK    4  A    between atoms: C_17  and  C_21
REMARK    5  A    between atoms: C_18  and  C_19
REMARK    6  A    between atoms: C_18  and  C_20
REMARK                            x       y       z     vdW  Elec       q    Type
REMARK                         _______ _______ _______ _____ _____    ______ ____
ROOT
ATOM      1  N   UNL     1      -3.284  -3.753  -3.334  0.00  0.00    -0.156 NA
ATOM      2  C   UNL     1      -3.860  -4.203  -4.402  0.00  0.00    +0.048 C 
ATOM      3  C   UNL     1      -4.440  -3.390  -5.550  0.00  0.00    +0.057 C 
ATOM      4  C   UNL     1      -5.005  -4.450  -6.545  0.00  0.00    +0.001 C 
ATOM      5  C   UNL     1      -3.735  -5.113  -7.164  0.00  0.00    +0.005 C 
ATOM      6  C   UNL     1      -3.114  -5.919  -6.000  0.00  0.00    +0.013 C 
ATOM      7  C   UNL     1      -4.097  -5.671  -4.783  0.00  0.00    +0.013 C 
ATOM      8  C   UNL     1      -5.472  -5.559  -5.537  0.00  0.00    -0.021 C 
ATOM      9  C   UNL     1      -5.846  -6.862  -6.246  0.00  0.00    +0.012 C 
ATOM     10  C   UNL     1      -6.596  -5.067  -4.622  0.00  0.00    +0.012 C 
ATOM     11  C   UNL     1      -4.019  -6.679  -3.634  0.00  0.00    +0.018 C 
ENDROOT
BRANCH   1  17
ATOM     12  C   UNL     1      -1.433  -0.534   0.013  0.00  0.00    +0.140 C 
ATOM     13  C   UNL     1      -1.460  -2.054   0.034  0.00  0.00    +0.232 C 
ATOM     14  O   UNL     1      -0.991  -2.693   0.951  0.00  0.00    -0.274 OA
ATOM     15  N   UNL     1      -2.026  -2.634  -1.010  0.00  0.00    -0.263 N 
ATOM     16  C   UNL     1      -2.563  -1.914  -2.057  0.00  0.00    +0.183 C 
ATOM     17  N   UNL     1      -3.148  -2.372  -3.141  0.00  0.00    -0.127 NA
ATOM     18  S   UNL     1      -2.275  -0.211  -1.592  0.00  0.00    -0.076 S 
ATOM     19  H   UNL     1      -2.067  -3.603  -1.041  0.00  0.00    +0.157 HD
BRANCH  12  21
ATOM     20  C   UNL     1      -0.019   1.526   0.010  0.00  0.00    +0.005 C 
ATOM     21  C   UNL     1       0.002  -0.004   0.002  0.00  0.00    +0.020 C 
ENDBRANCH  12  21
ENDBRANCH   1  17
TORSDOF 2
