REMARK  Name = ZINC37085726
REMARK  4 active torsions:
REMARK  status: ('A' for Active; 'I' for Inactive)
REMARK    1  A    between atoms: C_1  and  C_2
REMARK    2  A    between atoms: C_7  and  N_10
REMARK    3  A    between atoms: N_10  and  C_11
REMARK    4  A    between atoms: C_16  and  N_17
REMARK                            x       y       z     vdW  Elec       q    Type
REMARK                         _______ _______ _______ _____ _____    ______ ____
ROOT
ATOM      1  C   UNL     1       1.182  -3.791   2.941  0.00  0.00    +0.055 A 
ATOM      2  C   UNL     1       0.171  -4.559   2.381  0.00  0.00    +0.025 A 
ATOM      3  C   UNL     1      -0.084  -5.827   2.867  0.00  0.00    +0.003 A 
ATOM      4  C   UNL     1       0.666  -6.335   3.912  0.00  0.00    +0.022 A 
ATOM      5  C   UNL     1       1.675  -5.577   4.476  0.00  0.00    +0.068 A 
ATOM      6  C   UNL     1       1.942  -4.305   3.990  0.00  0.00    +0.106 A 
ATOM      7 CL   UNL     1       2.613  -6.220   5.788  0.00  0.00    -0.081 Cl
ENDROOT
BRANCH   6   8
ATOM      8  N   UNL     1       2.970  -3.536   4.557  0.00  0.00    -0.217 N 
ATOM      9  C   UNL     1       4.236  -3.930   4.795  0.00  0.00    +0.225 A 
ATOM     10  N   UNL     1       4.880  -2.924   5.330  0.00  0.00    -0.222 NA
ATOM     11  C   UNL     1       4.064  -1.877   5.449  0.00  0.00    +0.245 A 
ATOM     12  N   UNL     1       2.885  -2.201   4.984  0.00  0.00    -0.153 NA
ENDBRANCH   6   8
BRANCH   1  13
ATOM     13  N   UNL     1       1.441  -2.508   2.451  0.00  0.00    -0.339 N 
ATOM     14  H   UNL     1       2.110  -1.951   2.879  0.00  0.00    +0.146 HD
BRANCH  13  20
ATOM     15  C   UNL     1      -0.118   1.582   0.151  0.00  0.00    +0.007 C 
ATOM     16  C   UNL     1      -0.095   0.052   0.115  0.00  0.00    -0.012 C 
ATOM     17  C   UNL     1       0.591  -0.417  -1.170  0.00  0.00    +0.003 C 
ATOM     18  C   UNL     1       0.614  -1.947  -1.205  0.00  0.00    +0.002 C 
ATOM     19  C   UNL     1       1.386  -2.473   0.006  0.00  0.00    +0.022 C 
ATOM     20  C   UNL     1       0.701  -2.003   1.291  0.00  0.00    +0.071 C 
ATOM     21  C   UNL     1       0.678  -0.474   1.326  0.00  0.00    +0.025 C 
ENDBRANCH  13  20
ENDBRANCH   1  13
TORSDOF 3
