REMARK  Name = ZINC39358996
REMARK  5 active torsions:
REMARK  status: ('A' for Active; 'I' for Inactive)
REMARK    1  A    between atoms: C_1  and  C_2
REMARK    2  A    between atoms: C_6  and  C_7
REMARK    3  A    between atoms: C_10  and  O_25
REMARK    4  A    between atoms: C_21  and  C_23
REMARK    5  A    between atoms: C_21  and  C_24
REMARK                            x       y       z     vdW  Elec       q    Type
REMARK                         _______ _______ _______ _____ _____    ______ ____
ROOT
ATOM      1  C   UNL     1       0.030  -0.179   2.581  0.00  0.00    +0.096 C 
ATOM      2  C   UNL     1      -1.162  -0.703   3.324  0.00  0.00    +0.049 C 
ATOM      3  C   UNL     1      -2.329  -0.203   3.667  0.00  0.00    +0.235 C 
ATOM      4  N   UNL     1      -3.000  -1.078   4.464  0.00  0.00    -0.114 NA
ATOM      5  N   UNL     1      -2.411  -2.150   4.657  0.00  0.00    -0.157 NA
ATOM      6  C   UNL     1      -1.165  -2.127   3.888  0.00  0.00    +0.245 C 
ATOM      7  N   UNL     1       0.029  -2.175   4.735  0.00  0.00    -0.321 N 
ATOM      8  C   UNL     1       1.198  -1.615   4.284  0.00  0.00    +0.014 C 
ATOM      9  C   UNL     1       1.267  -0.679   3.311  0.00  0.00    +0.024 C 
ATOM     10  C   UNL     1       2.493  -0.114   2.922  0.00  0.00    +0.162 C 
ATOM     11  O   UNL     1       2.507   0.721   2.040  0.00  0.00    -0.292 OA
ATOM     12  C   UNL     1       3.788  -0.518   3.570  0.00  0.00    +0.086 C 
ATOM     13  C   UNL     1       3.499  -0.981   5.003  0.00  0.00    -0.023 C 
ATOM     14  C   UNL     1       2.466  -2.114   4.946  0.00  0.00    +0.057 C 
ATOM     15  C   UNL     1       4.788  -1.489   5.650  0.00  0.00    +0.011 C 
ATOM     16  C   UNL     1       2.937   0.186   5.818  0.00  0.00    +0.011 C 
ATOM     17  H   UNL     1      -0.006  -2.599   5.607  0.00  0.00    +0.148 HD
ENDROOT
BRANCH   1  23
ATOM     18  C   UNL     1      -0.018   1.503   0.010  0.00  0.00    +0.044 C 
ATOM     19  C   UNL     1       0.002  -0.004   0.002  0.00  0.00    -0.039 A 
ATOM     20  C   UNL     1       0.006  -0.699  -1.193  0.00  0.00    +0.011 A 
ATOM     21  C   UNL     1       0.024  -2.054  -1.165  0.00  0.00    +0.046 A 
ATOM     22  S   UNL     1       0.037  -2.387   0.589  0.00  0.00    -0.100 S 
ATOM     23  C   UNL     1       0.023  -0.698   1.166  0.00  0.00    +0.005 A 
ENDBRANCH   1  23
BRANCH   3  24
ATOM     24  O   UNL     1      -2.797   1.013   3.280  0.00  0.00    -0.491 OA
ATOM     25  H   UNL     1      -3.676   1.224   3.624  0.00  0.00    +0.294 HD
ENDBRANCH   3  24
TORSDOF 2
