REMARK  Name = ZINC66178592
REMARK  5 active torsions:
REMARK  status: ('A' for Active; 'I' for Inactive)
REMARK    1  A    between atoms: C_1  and  C_2
REMARK    2  A    between atoms: C_4  and  C_7
REMARK    3  A    between atoms: C_7  and  N_8
REMARK    4  A    between atoms: N_11  and  C_12
REMARK    5  A    between atoms: C_18  and  C_20
REMARK                            x       y       z     vdW  Elec       q    Type
REMARK                         _______ _______ _______ _____ _____    ______ ____
ROOT
ATOM      1  C   UNL     1       4.193  -6.118  -2.683  0.00  0.00    +0.077 C 
ATOM      2  C   UNL     1       3.852  -7.586  -2.417  0.00  0.00    +0.041 C 
ATOM      3  C   UNL     1       3.760  -8.335  -3.750  0.00  0.00    +0.109 C 
ATOM      4  N   UNL     1       5.010  -8.131  -4.494  0.00  0.00    -0.301 N 
ATOM      5  C   UNL     1       5.479  -6.758  -4.726  0.00  0.00    +0.109 C 
ATOM      6  C   UNL     1       5.551  -6.027  -3.382  0.00  0.00    +0.041 C 
ATOM      7  C   UNL     1       5.715  -9.184  -4.953  0.00  0.00    +0.219 C 
ATOM      8  O   UNL     1       5.362 -10.313  -4.686  0.00  0.00    -0.275 OA
ENDROOT
BRANCH   1  12
ATOM      9  N   UNL     1       3.171  -4.229   0.302  0.00  0.00    -0.291 N 
ATOM     10  C   UNL     1       3.120  -4.898  -0.867  0.00  0.00    +0.300 C 
ATOM     11  O   UNL     1       2.054  -5.055  -1.431  0.00  0.00    -0.253 OA
ATOM     12  N   UNL     1       4.249  -5.392  -1.412  0.00  0.00    -0.296 N 
ATOM     13  H   UNL     1       4.021  -4.104   0.752  0.00  0.00    +0.151 HD
ATOM     14  H   UNL     1       5.099  -5.267  -0.962  0.00  0.00    +0.151 HD
BRANCH   9  15
ATOM     15  C   UNL     1       1.943  -3.692   0.894  0.00  0.00    +0.204 C 
BRANCH  15  19
ATOM     16  C   UNL     1       3.201  -0.102   4.152  0.00  0.00    +0.091 C 
ATOM     17  C   UNL     1       2.816  -1.453   3.608  0.00  0.00    +0.169 A 
ATOM     18  N   UNL     1       2.584  -1.736   2.321  0.00  0.00    -0.195 NA
ATOM     19  C   UNL     1       2.273  -2.995   2.189  0.00  0.00    +0.245 A 
ATOM     20  O   UNL     1       2.297  -3.563   3.401  0.00  0.00    -0.336 OA
ATOM     21  N   UNL     1       2.659  -2.537   4.313  0.00  0.00    -0.062 NA
ENDBRANCH  15  19
ENDBRANCH   9  15
ENDBRANCH   1  12
BRANCH   7  22
ATOM     22  C   UNL     1       6.942  -8.959  -5.798  0.00  0.00    +0.075 C 
ATOM     23  C   UNL     1       6.524  -8.713  -7.249  0.00  0.00    +0.013 C 
ATOM     24  C   UNL     1       7.770  -8.484  -8.107  0.00  0.00    +0.001 C 
ATOM     25  C   UNL     1       8.670  -9.719  -8.039  0.00  0.00    +0.000 C 
ATOM     26  C   UNL     1       9.089  -9.965  -6.588  0.00  0.00    +0.001 C 
ATOM     27  C   UNL     1       7.843 -10.194  -5.729  0.00  0.00    +0.013 C 
ENDBRANCH   7  22
TORSDOF 4
