REMARK  Name = ZINC67559346
REMARK  5 active torsions:
REMARK  status: ('A' for Active; 'I' for Inactive)
REMARK    1  A    between atoms: C_1  and  C_2
REMARK    2  A    between atoms: C_2  and  O_3
REMARK    3  A    between atoms: O_3  and  C_4
REMARK    4  A    between atoms: N_13  and  C_14
REMARK    5  A    between atoms: C_19  and  C_20
REMARK                            x       y       z     vdW  Elec       q    Type
REMARK                         _______ _______ _______ _____ _____    ______ ____
ROOT
ATOM      1  C   UNL     1      -1.629  -1.695  -0.615  0.00  0.00    +0.136 C 
ATOM      2  C   UNL     1      -2.722  -2.115   0.370  0.00  0.00    +0.035 C 
ATOM      3  C   UNL     1      -2.615  -3.616   0.644  0.00  0.00    +0.022 C 
ATOM      4  C   UNL     1      -2.822  -4.386  -0.664  0.00  0.00    +0.109 C 
ATOM      5  N   UNL     1      -1.868  -3.886  -1.663  0.00  0.00    -0.283 N 
ATOM      6  C   UNL     1      -1.824  -2.443  -1.938  0.00  0.00    +0.140 C 
ATOM      7  C   UNL     1      -1.048  -4.734  -2.316  0.00  0.00    +0.307 C 
ATOM      8  O   UNL     1      -0.318  -4.318  -3.194  0.00  0.00    -0.252 OA
ATOM      9  N   UNL     1      -1.038  -6.043  -1.994  0.00  0.00    -0.269 N 
ATOM     10  H   UNL     1      -1.671  -6.387  -1.344  0.00  0.00    +0.156 HD
ENDROOT
BRANCH   9  11
ATOM     11  C   UNL     1      -0.116  -6.905  -2.598  0.00  0.00    +0.038 A 
ATOM     12  C   UNL     1       1.021  -6.391  -3.207  0.00  0.00    +0.025 A 
ATOM     13  C   UNL     1       1.930  -7.244  -3.802  0.00  0.00    +0.017 A 
ATOM     14  C   UNL     1       1.707  -8.609  -3.793  0.00  0.00    +0.018 A 
ATOM     15  C   UNL     1       0.575  -9.124  -3.187  0.00  0.00    +0.020 A 
ATOM     16  C   UNL     1      -0.334  -8.276  -2.585  0.00  0.00    -0.028 A 
ATOM     17  C   UNL     1      -1.564  -8.838  -1.919  0.00  0.00    +0.046 C 
ATOM     18 BR   UNL     1       2.953  -9.774  -4.610  0.00  0.00    -0.050 Br
ENDBRANCH   9  11
BRANCH   1  19
ATOM     19  O   UNL     1      -1.710  -0.287  -0.847  0.00  0.00    -0.375 OA
BRANCH  19  21
ATOM     20  C   UNL     1      -0.662   1.824  -1.379  0.00  0.00    +0.034 C 
ATOM     21  C   UNL     1      -0.456   0.325  -1.152  0.00  0.00    +0.157 C 
ENDBRANCH  19  21
ENDBRANCH   1  19
TORSDOF 3
