REMARK  Name = ZINC45971321
REMARK  7 active torsions:
REMARK  status: ('A' for Active; 'I' for Inactive)
REMARK    1  A    between atoms: C_1  and  C_2
REMARK    2  A    between atoms: C_5  and  C_8
REMARK    3  A    between atoms: C_14  and  S_20
REMARK    4  A    between atoms: S_20  and  C_21
REMARK    5  A    between atoms: C_21  and  C_22
REMARK    6  A    between atoms: N_24  and  C_25
REMARK    7  A    between atoms: C_30  and  C_31
REMARK                            x       y       z     vdW  Elec       q    Type
REMARK                         _______ _______ _______ _____ _____    ______ ____
ROOT
ATOM      1  C   UNL     1      -0.011  -4.256  -0.019  0.00  0.00    +0.094 A 
ATOM      2  C   UNL     1       0.003  -5.082   1.115  0.00  0.00    +0.061 A 
ATOM      3  C   UNL     1       0.030  -6.386   0.677  0.00  0.00    +0.112 A 
ATOM      4  C   UNL     1       0.054  -7.683   1.358  0.00  0.00    +0.187 A 
ATOM      5  N   UNL     1       0.058  -8.064   2.613  0.00  0.00    -0.126 NA
ATOM      6  N   UNL     1       0.083  -9.350   2.679  0.00  0.00    -0.122 NA
ATOM      7  C   UNL     1       0.096  -9.866   1.469  0.00  0.00    +0.196 A 
ATOM      8  N   UNL     1       0.078  -8.828   0.587  0.00  0.00    -0.274 N 
ATOM      9  C   UNL     1       0.080  -8.729  -0.792  0.00  0.00    +0.115 A 
ATOM     10  C   UNL     1       0.059  -7.552  -1.404  0.00  0.00    +0.131 A 
ATOM     11  N   UNL     1       0.033  -6.362  -0.695  0.00  0.00    -0.234 N 
ATOM     12  N   UNL     1       0.002  -5.021  -1.095  0.00  0.00    -0.166 NA
ENDROOT
BRANCH   1  17
ATOM     13  C   UNL     1      -0.131   1.502   0.014  0.00  0.00    +0.044 C 
ATOM     14  C   UNL     1      -0.099  -0.005   0.005  0.00  0.00    -0.050 A 
ATOM     15  C   UNL     1      -0.087  -0.687  -1.198  0.00  0.00    +0.004 A 
ATOM     16  C   UNL     1      -0.058  -2.067  -1.212  0.00  0.00    +0.010 A 
ATOM     17  C   UNL     1      -0.041  -2.773  -0.011  0.00  0.00    +0.002 A 
ATOM     18  C   UNL     1      -0.053  -2.080   1.198  0.00  0.00    +0.010 A 
ATOM     19  C   UNL     1      -0.077  -0.701   1.200  0.00  0.00    +0.004 A 
ENDBRANCH   1  17
BRANCH   7  20
ATOM     20  S   UNL     1       0.131 -11.581   1.064  0.00  0.00    -0.076 S 
BRANCH  20  21
ATOM     21  C   UNL     1       0.143 -12.412   2.676  0.00  0.00    +0.173 C 
BRANCH  21  22
ATOM     22  C   UNL     1       0.173 -13.904   2.472  0.00  0.00    +0.227 C 
ATOM     23  O   UNL     1       0.185 -14.363   1.349  0.00  0.00    -0.275 OA
ATOM     24  N   UNL     1       0.186 -14.730   3.537  0.00  0.00    -0.285 N 
ATOM     25  H   UNL     1       0.257 -14.365   4.433  0.00  0.00    +0.155 HD
BRANCH  24  26
ATOM     26  C   UNL     1       0.097 -16.114   3.350  0.00  0.00    +0.038 A 
ATOM     27  C   UNL     1      -0.503 -16.625   2.206  0.00  0.00    +0.023 A 
ATOM     28  C   UNL     1      -0.589 -17.991   2.024  0.00  0.00    +0.003 A 
ATOM     29  C   UNL     1      -0.079 -18.851   2.979  0.00  0.00    +0.020 A 
ATOM     30  C   UNL     1       0.519 -18.346   4.120  0.00  0.00    +0.046 A 
ATOM     31  C   UNL     1       0.613 -16.979   4.305  0.00  0.00    -0.011 A 
ATOM     32  C   UNL     1       1.270 -16.430   5.545  0.00  0.00    +0.047 C 
ATOM     33 CL   UNL     1       1.157 -19.430   5.317  0.00  0.00    -0.083 Cl
ENDBRANCH  24  26
ENDBRANCH  21  22
ENDBRANCH  20  21
ENDBRANCH   7  20
TORSDOF 5
