REMARK  Name = ZINC30986291
REMARK  8 active torsions:
REMARK  status: ('A' for Active; 'I' for Inactive)
REMARK    1  A    between atoms: C_1  and  C_2
REMARK    2  A    between atoms: C_2  and  N_3
REMARK    3  A    between atoms: N_3  and  C_4
REMARK    4  A    between atoms: C_4  and  C_5
REMARK    5  A    between atoms: C_6  and  C_8
REMARK    6  A    between atoms: N_11  and  C_14
REMARK    7  A    between atoms: C_14  and  C_15
REMARK    8  A    between atoms: C_17  and  C_20
REMARK                            x       y       z     vdW  Elec       q    Type
REMARK                         _______ _______ _______ _____ _____    ______ ____
ROOT
ATOM      1  C   UNL     1      -2.502  -0.205   1.043  0.00  0.00    +0.072 C 
ATOM      2  C   UNL     1      -2.604   0.097  -0.455  0.00  0.00    -0.006 C 
ATOM      3  C   UNL     1      -3.256  -1.090  -1.167  0.00  0.00    -0.077 C 
ATOM      4  N   UNL     1      -4.592  -1.326  -0.605  0.00  0.00    +0.386 N 
ATOM      5  C   UNL     1      -4.515  -1.665   0.822  0.00  0.00    -0.077 C 
ATOM      6  C   UNL     1      -3.901  -0.495   1.593  0.00  0.00    -0.006 C 
ATOM      7  H   UNL     1      -5.164  -0.391  -0.697  0.00  0.00    -0.081 HD
ENDROOT
BRANCH   1   9
ATOM      8  N   UNL     1      -0.637   1.346   1.529  0.00  0.00    -0.302 N 
ATOM      9  C   UNL     1      -1.915   0.985   1.758  0.00  0.00    +0.219 C 
ATOM     10  O   UNL     1      -2.593   1.617   2.540  0.00  0.00    -0.275 OA
BRANCH   8  12
ATOM     11  C   UNL     1       0.387   2.255   3.555  0.00  0.00    +0.024 C 
ATOM     12  C   UNL     1      -0.100   2.565   2.138  0.00  0.00    +0.104 C 
ENDBRANCH   8  12
BRANCH   8  13
ATOM     13  C   UNL     1       0.215   0.520   0.670  0.00  0.00    +0.104 C 
ATOM     14  C   UNL     1       1.056  -0.419   1.537  0.00  0.00    +0.024 C 
ENDBRANCH   8  13
ENDBRANCH   1   9
BRANCH   4  15
ATOM     15  C   UNL     1      -5.302  -2.369  -1.356  0.00  0.00    +0.022 C 
BRANCH  15  16
ATOM     16  C   UNL     1      -5.577  -1.882  -2.755  0.00  0.00    +0.211 A 
ATOM     17  N   UNL     1      -4.797  -2.028  -3.797  0.00  0.00    -0.193 NA
ATOM     18  C   UNL     1      -5.449  -1.438  -4.824  0.00  0.00    +0.202 A 
ATOM     19  N   UNL     1      -6.576  -0.973  -4.350  0.00  0.00    -0.056 NA
ATOM     20  O   UNL     1      -6.665  -1.224  -3.167  0.00  0.00    -0.340 OA
BRANCH  18  21
ATOM     21  C   UNL     1      -4.975  -1.336  -6.227  0.00  0.00    +0.023 A 
ATOM     22  C   UNL     1      -3.743  -1.876  -6.589  0.00  0.00    +0.013 A 
ATOM     23  C   UNL     1      -3.308  -1.785  -7.895  0.00  0.00    +0.021 A 
ATOM     24  C   UNL     1      -4.090  -1.147  -8.844  0.00  0.00    +0.041 A 
ATOM     25  C   UNL     1      -5.313  -0.604  -8.488  0.00  0.00    +0.021 A 
ATOM     26  C   UNL     1      -5.758  -0.695  -7.185  0.00  0.00    +0.013 A 
ATOM     27 CL   UNL     1      -3.535  -1.028 -10.484  0.00  0.00    -0.084 Cl
ENDBRANCH  18  21
ENDBRANCH  15  16
ENDBRANCH   4  15
TORSDOF 6
