REMARK  Name = ZINC41665784
REMARK  5 active torsions:
REMARK  status: ('A' for Active; 'I' for Inactive)
REMARK    1  A    between atoms: C_1  and  N_2
REMARK    2  A    between atoms: N_7  and  C_10
REMARK    3  A    between atoms: N_11  and  C_12
REMARK    4  A    between atoms: C_15  and  N_18
REMARK    5  A    between atoms: C_21  and  C_23
REMARK                            x       y       z     vdW  Elec       q    Type
REMARK                         _______ _______ _______ _____ _____    ______ ____
ROOT
ATOM      1  C   UNL     1      -2.298  -4.303  -0.100  0.00  0.00    +0.033 A 
ATOM      2  C   UNL     1      -1.096  -5.001  -0.098  0.00  0.00    +0.025 A 
ATOM      3  C   UNL     1      -1.099  -6.378  -0.194  0.00  0.00    +0.029 A 
ATOM      4  C   UNL     1      -2.301  -7.065  -0.293  0.00  0.00    +0.065 A 
ATOM      5  C   UNL     1      -3.502  -6.368  -0.295  0.00  0.00    +0.029 A 
ATOM      6  C   UNL     1      -3.501  -4.991  -0.193  0.00  0.00    +0.025 A 
ENDROOT
BRANCH   1  17
ATOM      7  C   UNL     1      -0.067   1.420  -0.759  0.00  0.00    +0.157 C 
ATOM      8  N   UNL     1      -0.167  -0.029  -0.947  0.00  0.00    -0.260 N 
ATOM      9  C   UNL     1      -1.179  -0.714  -0.377  0.00  0.00    +0.297 A 
ATOM     10  O   UNL     1      -2.014  -0.137   0.295  0.00  0.00    -0.264 OA
ATOM     11  C   UNL     1      -1.262  -2.170  -0.579  0.00  0.00    +0.209 A 
ATOM     12  N   UNL     1      -0.349  -2.761  -1.307  0.00  0.00    -0.146 NA
ATOM     13  N   UNL     1       0.682  -2.005  -1.877  0.00  0.00    -0.216 N 
ATOM     14  C   UNL     1       0.748  -0.675  -1.694  0.00  0.00    +0.348 A 
ATOM     15  O   UNL     1       1.653  -0.045  -2.207  0.00  0.00    -0.245 OA
ATOM     16  C   UNL     1       1.700  -2.673  -2.692  0.00  0.00    +0.178 C 
ATOM     17  N   UNL     1      -2.296  -2.908  -0.002  0.00  0.00    -0.294 N 
ATOM     18  H   UNL     1      -3.013  -2.454   0.466  0.00  0.00    +0.154 HD
ENDBRANCH   1  17
BRANCH   4  19
ATOM     19  N   UNL     1      -2.303  -8.465  -0.391  0.00  0.00    -0.239 N 
ATOM     20  C   UNL     1      -3.396  -9.253  -0.497  0.00  0.00    +0.115 A 
ATOM     21  C   UNL     1      -2.973 -10.537  -0.568  0.00  0.00    +0.054 A 
ATOM     22  C   UNL     1      -1.575 -10.534  -0.503  0.00  0.00    +0.166 A 
ATOM     23  N   UNL     1      -1.173  -9.292  -0.402  0.00  0.00    -0.162 NA
BRANCH  22  24
ATOM     24  C   UNL     1      -0.686 -11.749  -0.546  0.00  0.00    +0.436 C 
ATOM     25  F   UNL     1      -0.350 -12.034  -1.874  0.00  0.00    -0.164 F 
ATOM     26  F   UNL     1       0.479 -11.502   0.187  0.00  0.00    -0.164 F 
ATOM     27  F   UNL     1      -1.363 -12.842   0.008  0.00  0.00    -0.164 F 
ENDBRANCH  22  24
ENDBRANCH   4  19
TORSDOF 3
