REMARK  Name = ZINC39944406
REMARK  8 active torsions:
REMARK  status: ('A' for Active; 'I' for Inactive)
REMARK    1  A    between atoms: C_1  and  C_2
REMARK    2  A    between atoms: C_7  and  C_9
REMARK    3  A    between atoms: C_7  and  C_10
REMARK    4  A    between atoms: C_13  and  C_15
REMARK    5  A    between atoms: C_15  and  N_16
REMARK    6  A    between atoms: N_19  and  C_22
REMARK    7  A    between atoms: C_25  and  O_28
REMARK    8  A    between atoms: O_28  and  C_29
REMARK                            x       y       z     vdW  Elec       q    Type
REMARK                         _______ _______ _______ _____ _____    ______ ____
ROOT
ATOM      1  C   UNL     1       1.329  -2.367  -3.552  0.00  0.00    +0.180 C 
ENDROOT
BRANCH   1  13
ATOM      2  C   UNL     1       0.048   1.550   0.009  0.00  0.00    +0.013 C 
ATOM      3  C   UNL     1       0.050   0.013   0.000  0.00  0.00    -0.014 C 
ATOM      4  C   UNL     1      -1.386  -0.579  -0.027  0.00  0.00    +0.030 C 
ATOM      5  C   UNL     1      -1.064  -2.013  -0.516  0.00  0.00    +0.077 C 
ATOM      6  C   UNL     1      -0.467  -2.772   0.666  0.00  0.00    +0.029 C 
ATOM      7  C   UNL     1       0.747  -2.097   1.279  0.00  0.00    -0.033 C 
ATOM      8  C   UNL     1       0.766  -0.582   1.212  0.00  0.00    +0.014 C 
ATOM      9  C   UNL     1       0.779  -2.489   2.778  0.00  0.00    +0.011 C 
ATOM     10  C   UNL     1       2.029  -2.669   0.656  0.00  0.00    +0.011 C 
ATOM     11  N   UNL     1      -0.027  -1.836  -1.552  0.00  0.00    -0.297 N 
ATOM     12  C   UNL     1       0.668  -0.566  -1.292  0.00  0.00    +0.114 C 
ATOM     13  C   UNL     1       0.233  -2.684  -2.568  0.00  0.00    +0.230 C 
ATOM     14  O   UNL     1      -0.416  -3.701  -2.689  0.00  0.00    -0.274 OA
ENDBRANCH   1  13
BRANCH   1  15
ATOM     15  N   UNL     1       1.411  -3.438  -4.554  0.00  0.00    -0.291 NA
ATOM     16  C   UNL     1       0.195  -3.484  -5.377  0.00  0.00    +0.104 C 
ATOM     17  C   UNL     1       0.241  -4.720  -6.283  0.00  0.00    +0.120 C 
ATOM     18  N   UNL     1       1.503  -4.698  -7.038  0.00  0.00    -0.327 N 
ATOM     19  C   UNL     1       2.758  -4.516  -6.293  0.00  0.00    +0.120 C 
ATOM     20  C   UNL     1       2.612  -3.289  -5.387  0.00  0.00    +0.104 C 
BRANCH  18  21
ATOM     21  C   UNL     1       1.509  -4.847  -8.430  0.00  0.00    +0.030 A 
ATOM     22  C   UNL     1       2.696  -4.711  -9.138  0.00  0.00    +0.027 A 
ATOM     23  C   UNL     1       2.702  -4.859 -10.511  0.00  0.00    +0.047 A 
ATOM     24  C   UNL     1       1.522  -5.142 -11.183  0.00  0.00    +0.120 A 
ATOM     25  C   UNL     1       0.336  -5.277 -10.477  0.00  0.00    +0.047 A 
ATOM     26  C   UNL     1       0.330  -5.135  -9.103  0.00  0.00    +0.027 A 
BRANCH  24  27
ATOM     27  O   UNL     1       1.528  -5.287 -12.535  0.00  0.00    -0.495 OA
ATOM     28  C   UNL     1       0.278  -5.578 -13.162  0.00  0.00    +0.277 C 
ENDBRANCH  24  27
ENDBRANCH  18  21
ENDBRANCH   1  15
TORSDOF 4
