REMARK  Name = ZINC62321599
REMARK  5 active torsions:
REMARK  status: ('A' for Active; 'I' for Inactive)
REMARK    1  A    between atoms: C_1  and  C_2
REMARK    2  A    between atoms: C_2  and  C_3
REMARK    3  A    between atoms: C_2  and  C_4
REMARK    4  A    between atoms: C_10  and  C_13
REMARK    5  A    between atoms: C_13  and  N_14
REMARK                            x       y       z     vdW  Elec       q    Type
REMARK                         _______ _______ _______ _____ _____    ______ ____
ROOT
ATOM      1  C   UNL     1       0.488  -2.125  -3.758  0.00  0.00    +0.096 C 
ENDROOT
BRANCH   1   2
ATOM      2  N   UNL     1       1.050  -2.687  -4.993  0.00  0.00    -0.293 NA
ATOM      3  C   UNL     1       0.378  -2.132  -6.177  0.00  0.00    +0.106 C 
ATOM      4  C   UNL     1       1.208  -2.437  -7.431  0.00  0.00    +0.138 C 
ATOM      5  N   UNL     1       1.540  -3.864  -7.426  0.00  0.00    -0.334 N 
ATOM      6  C   UNL     1       1.986  -4.636  -8.453  0.00  0.00    +0.105 A 
ATOM      7  C   UNL     1       2.146  -5.881  -7.959  0.00  0.00    +0.101 A 
ATOM      8  N   UNL     1       1.804  -5.862  -6.660  0.00  0.00    -0.349 N 
ATOM      9  C   UNL     1       1.442  -4.658  -6.331  0.00  0.00    +0.101 A 
ATOM     10  C   UNL     1       0.982  -4.158  -4.983  0.00  0.00    +0.156 C 
ATOM     11  H   UNL     1       1.825  -6.625  -6.061  0.00  0.00    +0.166 HD
ENDBRANCH   1   2
BRANCH   1  17
ATOM     12  C   UNL     1       0.718  -0.497  -1.257  0.00  0.00    -0.007 C 
ATOM     13  C   UNL     1       2.152   0.036  -1.268  0.00  0.00    +0.011 C 
ATOM     14  C   UNL     1       2.840  -0.381  -2.572  0.00  0.00    +0.075 C 
ATOM     15  C   UNL     1       2.732  -1.883  -2.714  0.00  0.00    +0.138 C 
ATOM     16  O   UNL     1       3.710  -2.556  -2.936  0.00  0.00    -0.297 OA
ATOM     17  C   UNL     1       1.368  -2.522  -2.571  0.00  0.00    +0.069 C 
ATOM     18  C   UNL     1       0.735  -2.027  -1.266  0.00  0.00    +0.016 C 
BRANCH  12  20
ATOM     19  C   UNL     1      -0.019   1.526   0.010  0.00  0.00    +0.007 C 
ATOM     20  C   UNL     1       0.002  -0.004   0.002  0.00  0.00    -0.014 C 
ATOM     21  C   UNL     1      -1.433  -0.534   0.013  0.00  0.00    +0.007 C 
ENDBRANCH  12  20
ENDBRANCH   1  17
TORSDOF 3
