REMARK  Name = ZINC20813933
REMARK  7 active torsions:
REMARK  status: ('A' for Active; 'I' for Inactive)
REMARK    1  A    between atoms: C_1  and  C_2
REMARK    2  A    between atoms: C_2  and  N_3
REMARK    3  A    between atoms: C_10  and  C_22
REMARK    4  A    between atoms: C_12  and  C_18
REMARK    5  A    between atoms: C_12  and  C_20
REMARK    6  A    between atoms: C_13  and  N_17
REMARK    7  A    between atoms: C_14  and  C_15
REMARK                            x       y       z     vdW  Elec       q    Type
REMARK                         _______ _______ _______ _____ _____    ______ ____
ROOT
ATOM      1  N   UNL     1       3.324   3.748  -0.846  0.00  0.00    -0.298 NA
ATOM      2  C   UNL     1       3.666   2.393  -0.378  0.00  0.00    +0.112 C 
ATOM      3  C   UNL     1       2.385   1.597  -0.312  0.00  0.00    -0.007 C 
ATOM      4  C   UNL     1       1.252   2.197   0.002  0.00  0.00    -0.026 C 
ATOM      5  C   UNL     1       1.170   3.654   0.358  0.00  0.00    +0.045 C 
ATOM      6  C   UNL     1       2.455   4.415   0.128  0.00  0.00    +0.093 C 
ATOM      7  C   UNL     1      -0.006   4.264  -0.407  0.00  0.00    +0.074 C 
ATOM      8  C   UNL     1      -1.300   3.594   0.059  0.00  0.00    +0.189 C 
ATOM      9  C   UNL     1      -1.197   2.099   0.019  0.00  0.00    +0.054 C 
ATOM     10  C   UNL     1      -0.017   1.428   0.010  0.00  0.00    +0.074 C 
ENDROOT
BRANCH   7  11
ATOM     11  C   UNL     1      -0.074   5.744  -0.132  0.00  0.00    -0.004 A 
ATOM     12  C   UNL     1       0.018   6.779  -1.003  0.00  0.00    +0.011 A 
ATOM     13  C   UNL     1      -0.076   8.071  -0.521  0.00  0.00    +0.008 A 
ATOM     14  C   UNL     1      -0.247   8.265   0.810  0.00  0.00    +0.045 A 
ATOM     15  S   UNL     1      -0.287   6.590   1.425  0.00  0.00    -0.101 S 
ENDBRANCH   7  11
BRANCH   9  16
ATOM     16  N   UNL     1      -2.354   1.373  -0.004  0.00  0.00    -0.358 N 
ATOM     17  H   UNL     1      -2.313   0.274  -0.033  0.00  0.00    +0.142 HD
ATOM     18  H   UNL     1      -3.327   1.887   0.007  0.00  0.00    +0.142 HD
ENDBRANCH   9  16
BRANCH   1  20
ATOM     19  C   UNL     1       5.291   3.948  -2.290  0.00  0.00    +0.020 C 
ATOM     20  C   UNL     1       4.535   4.539  -1.099  0.00  0.00    +0.081 C 
ENDBRANCH   1  20
BRANCH  10  21
ATOM     21  C   UNL     1       0.002  -0.004   0.002  0.00  0.00    +0.101 C 
ATOM     22  N   UNL     1       0.018  -1.140  -0.004  0.00  0.00    -0.191 NA
ENDBRANCH  10  21
BRANCH   8  23
ATOM     23  C   UNL     1      -1.593   4.023   1.436  0.00  0.00    +0.091 C 
ATOM     24  N   UNL     1      -1.819   4.354   2.499  0.00  0.00    -0.194 NA
ENDBRANCH   8  23
BRANCH   8  25
ATOM     25  C   UNL     1      -2.402   4.018  -0.820  0.00  0.00    +0.091 C 
ATOM     26  N   UNL     1      -3.253   4.345  -1.498  0.00  0.00    -0.194 NA
ENDBRANCH   8  25
TORSDOF 6
