REMARK  Name = ZINC36128956
REMARK  8 active torsions:
REMARK  status: ('A' for Active; 'I' for Inactive)
REMARK    1  A    between atoms: C_1  and  C_2
REMARK    2  A    between atoms: C_2  and  C_3
REMARK    3  A    between atoms: C_7  and  C_23
REMARK    4  A    between atoms: N_10  and  S_11
REMARK    5  A    between atoms: S_11  and  C_14
REMARK    6  A    between atoms: C_15  and  C_22
REMARK    7  A    between atoms: C_18  and  N_21
REMARK    8  A    between atoms: C_19  and  C_20
REMARK                            x       y       z     vdW  Elec       q    Type
REMARK                         _______ _______ _______ _____ _____    ______ ____
ROOT
ATOM      1  S   UNL     1       1.850   0.811   0.276  0.00  0.00    +0.062 S 
ATOM      2  O   UNL     1       3.084   0.696   0.971  0.00  0.00    -0.153 OA
ATOM      3  O   UNL     1       1.705   0.436  -1.087  0.00  0.00    -0.153 OA
ENDROOT
BRANCH   1   4
ATOM      4  C   UNL     1       1.365   2.502   0.387  0.00  0.00    +0.113 A 
ATOM      5  C   UNL     1       1.383   3.146   1.611  0.00  0.00    -0.024 A 
ATOM      6  C   UNL     1       1.004   4.473   1.703  0.00  0.00    +0.007 A 
ATOM      7  C   UNL     1       0.605   5.158   0.572  0.00  0.00    +0.023 A 
ATOM      8  C   UNL     1       0.587   4.514  -0.658  0.00  0.00    +0.029 A 
ATOM      9  C   UNL     1       0.974   3.183  -0.748  0.00  0.00    -0.003 A 
ATOM     10  C   UNL     1       0.960   2.482  -2.082  0.00  0.00    +0.048 C 
ATOM     11  C   UNL     1       1.818   2.401   2.847  0.00  0.00    +0.046 C 
BRANCH   8  12
ATOM     12  N   UNL     1       0.184   5.205  -1.804  0.00  0.00    -0.358 N 
ATOM     13  H   UNL     1      -0.083   6.136  -1.740  0.00  0.00    +0.142 HD
ATOM     14  H   UNL     1       0.172   4.754  -2.663  0.00  0.00    +0.142 HD
ENDBRANCH   8  12
ENDBRANCH   1   4
BRANCH   1  20
ATOM     15  C   UNL     1      -0.651  -0.192   0.669  0.00  0.00    +0.105 C 
ATOM     16  C   UNL     1      -1.032  -1.677   0.658  0.00  0.00    +0.180 C 
ATOM     17  O   UNL     1      -0.735  -2.249   1.934  0.00  0.00    -0.374 OA
ATOM     18  C   UNL     1       0.652  -2.221   2.279  0.00  0.00    +0.131 C 
ATOM     19  C   UNL     1       1.119  -0.764   2.374  0.00  0.00    +0.141 C 
ATOM     20  N   UNL     1       0.741  -0.073   1.131  0.00  0.00    -0.169 NA
ATOM     21  C   UNL     1       0.857  -2.913   3.628  0.00  0.00    +0.039 C 
BRANCH  15  23
ATOM     22  C   UNL     1      -2.233   0.292  -1.203  0.00  0.00    +0.005 C 
ATOM     23  C   UNL     1      -0.777   0.383  -0.743  0.00  0.00    +0.019 C 
ENDBRANCH  15  23
ENDBRANCH   1  20
TORSDOF 4
