REMARK  Name = ZINC57845643
REMARK  10 active torsions:
REMARK  status: ('A' for Active; 'I' for Inactive)
REMARK    1  A    between atoms: C_1  and  C_2
REMARK    2  A    between atoms: C_2  and  C_4
REMARK    3  A    between atoms: C_2  and  N_6
REMARK    4  A    between atoms: C_4  and  N_5
REMARK    5  A    between atoms: C_9  and  C_13
REMARK    6  A    between atoms: C_9  and  C_14
REMARK    7  A    between atoms: C_17  and  C_20
REMARK    8  A    between atoms: C_20  and  C_21
REMARK    9  A    between atoms: C_20  and  C_22
REMARK   10  A    between atoms: C_20  and  C_23
REMARK                            x       y       z     vdW  Elec       q    Type
REMARK                         _______ _______ _______ _____ _____    ______ ____
ROOT
ATOM      1  N   UNL     1      -1.372  -0.511   0.012  0.00  0.00    -0.223 N 
ATOM      2  C   UNL     1      -1.882  -1.297   0.981  0.00  0.00    +0.251 C 
ATOM      3  O   UNL     1      -1.311  -1.702   1.971  0.00  0.00    -0.272 OA
ATOM      4  C   UNL     1      -3.317  -1.568   0.577  0.00  0.00    +0.135 C 
ATOM      5  N   UNL     1      -3.464  -0.834  -0.693  0.00  0.00    -0.281 N 
ATOM      6  C   UNL     1      -2.278  -0.247  -0.936  0.00  0.00    +0.310 C 
ATOM      7  O   UNL     1      -2.054   0.445  -1.910  0.00  0.00    -0.252 OA
ATOM      8  C   UNL     1      -3.542  -3.066   0.361  0.00  0.00    +0.047 C 
ATOM      9  H   UNL     1      -4.260  -0.783  -1.244  0.00  0.00    +0.152 HD
ENDROOT
BRANCH   4  10
ATOM     10  C   UNL     1      -4.271  -1.030   1.612  0.00  0.00    -0.015 A 
ATOM     11  C   UNL     1      -3.886  -0.966   2.939  0.00  0.00    +0.006 A 
ATOM     12  C   UNL     1      -4.761  -0.473   3.889  0.00  0.00    +0.004 A 
ATOM     13  C   UNL     1      -6.020  -0.044   3.513  0.00  0.00    -0.042 A 
ATOM     14  C   UNL     1      -6.404  -0.108   2.186  0.00  0.00    +0.004 A 
ATOM     15  C   UNL     1      -5.528  -0.597   1.236  0.00  0.00    +0.006 A 
BRANCH  13  16
ATOM     16  C   UNL     1      -6.974   0.492   4.549  0.00  0.00    -0.013 C 
ATOM     17  C   UNL     1      -6.354   1.716   5.228  0.00  0.00    +0.015 C 
ATOM     18  C   UNL     1      -8.287   0.894   3.874  0.00  0.00    +0.015 C 
ATOM     19  C   UNL     1      -7.249  -0.588   5.597  0.00  0.00    +0.015 C 
ENDBRANCH  13  16
ENDBRANCH   4  10
BRANCH   1  21
ATOM     20  C   UNL     1      -0.019   1.526   0.010  0.00  0.00    +0.026 C 
ATOM     21  C   UNL     1       0.002  -0.004   0.002  0.00  0.00    +0.065 C 
BRANCH  21  22
ATOM     22  C   UNL     1       0.718  -0.497  -1.257  0.00  0.00    -0.063 C 
BRANCH  22  23
ATOM     23  N   UNL     1       0.634  -1.962  -1.326  0.00  0.00    +0.379 N 
ATOM     24  H   UNL     1       1.072  -2.363  -0.510  0.00  0.00    -0.090 HD
ATOM     25  H   UNL     1      -0.335  -2.242  -1.358  0.00  0.00    -0.090 HD
ATOM     26  H   UNL     1       1.106  -2.288  -2.156  0.00  0.00    -0.090 HD
ENDBRANCH  22  23
ENDBRANCH  21  22
ENDBRANCH   1  21
TORSDOF 5
