REMARK  Name = ZINC16693233
REMARK  12 active torsions:
REMARK  status: ('A' for Active; 'I' for Inactive)
REMARK    1  A    between atoms: C_1  and  C_2
REMARK    2  A    between atoms: C_2  and  O_3
REMARK    3  A    between atoms: O_3  and  C_4
REMARK    4  A    between atoms: C_8  and  N_10
REMARK    5  A    between atoms: C_14  and  C_15
REMARK    6  A    between atoms: C_17  and  C_32
REMARK    7  A    between atoms: N_18  and  C_21
REMARK    8  A    between atoms: C_19  and  C_20
REMARK    9  A    between atoms: C_24  and  C_27
REMARK   10  A    between atoms: C_27  and  O_29
REMARK   11  A    between atoms: O_29  and  C_30
REMARK   12  A    between atoms: C_30  and  C_31
REMARK                            x       y       z     vdW  Elec       q    Type
REMARK                         _______ _______ _______ _____ _____    ______ ____
ROOT
ATOM      1  N   UNL     1       0.730   4.070   7.524  0.00  0.00    -0.217 N 
ATOM      2  C   UNL     1       0.780   2.928   8.241  0.00  0.00    +0.262 C 
ATOM      3  O   UNL     1       1.837   2.356   8.431  0.00  0.00    -0.269 OA
ATOM      4  C   UNL     1      -0.480   2.393   8.788  0.00  0.00    +0.100 C 
ATOM      5  C   UNL     1      -0.507   1.226   9.534  0.00  0.00    +0.028 C 
ATOM      6  C   UNL     1      -1.711   3.155   8.507  0.00  0.00    +0.255 C 
ATOM      7  O   UNL     1      -2.790   2.776   8.924  0.00  0.00    -0.270 OA
ATOM      8  N   UNL     1      -1.609   4.283   7.774  0.00  0.00    -0.263 N 
ATOM      9  C   UNL     1      -0.427   4.714   7.312  0.00  0.00    +0.150 C 
ATOM     10  S   UNL     1      -0.393   6.160   6.396  0.00  0.00    -0.018 S 
ATOM     11  H   UNL     1      -2.409   4.796   7.579  0.00  0.00    +0.157 HD
ENDROOT
BRANCH   5  12
ATOM     12  C   UNL     1       0.655   0.424   9.634  0.00  0.00    -0.003 A 
ATOM     13  C   UNL     1       1.564   0.039   8.543  0.00  0.00    +0.031 A 
ATOM     14  C   UNL     1       2.522  -0.721   9.098  0.00  0.00    +0.022 A 
ATOM     15  N   UNL     1       2.284  -0.839  10.440  0.00  0.00    -0.317 N 
ATOM     16  C   UNL     1       1.174  -0.156  10.782  0.00  0.00    +0.028 A 
ATOM     17  C   UNL     1       0.596  -0.044  12.169  0.00  0.00    +0.064 C 
ATOM     18  C   UNL     1       3.678  -1.344   8.358  0.00  0.00    +0.064 C 
BRANCH  15  19
ATOM     19  C   UNL     1       3.082  -1.561  11.331  0.00  0.00    +0.047 A 
ATOM     20  C   UNL     1       2.565  -2.680  11.975  0.00  0.00    +0.027 A 
ATOM     21  C   UNL     1       3.351  -3.398  12.849  0.00  0.00    +0.017 A 
ATOM     22  C   UNL     1       4.665  -2.993  13.098  0.00  0.00    +0.059 A 
ATOM     23  C   UNL     1       5.179  -1.865  12.454  0.00  0.00    +0.017 A 
ATOM     24  C   UNL     1       4.390  -1.156  11.576  0.00  0.00    +0.027 A 
BRANCH  22  25
ATOM     25  C   UNL     1       5.508  -3.755  14.040  0.00  0.00    +0.339 C 
ATOM     26  O   UNL     1       6.650  -3.402  14.255  0.00  0.00    -0.245 OA
BRANCH  25  27
ATOM     27  O   UNL     1       5.011  -4.843  14.660  0.00  0.00    -0.461 OA
BRANCH  27  28
ATOM     28  C   UNL     1       5.896  -5.544  15.573  0.00  0.00    +0.229 C 
ATOM     29  C   UNL     1       5.161  -6.742  16.177  0.00  0.00    +0.048 C 
ENDBRANCH  27  28
ENDBRANCH  25  27
ENDBRANCH  22  25
ENDBRANCH  15  19
ENDBRANCH   5  12
BRANCH   1  34
ATOM     30  C   UNL     1       3.277   5.158   5.099  0.00  0.00    +0.122 A 
ATOM     31  C   UNL     1       4.261   5.638   5.953  0.00  0.00    +0.046 A 
ATOM     32  C   UNL     1       4.068   5.605   7.321  0.00  0.00    +0.005 A 
ATOM     33  C   UNL     1       2.899   5.084   7.843  0.00  0.00    +0.024 A 
ATOM     34  C   UNL     1       1.914   4.598   6.994  0.00  0.00    +0.047 A 
ATOM     35  C   UNL     1       2.104   4.635   5.620  0.00  0.00    +0.069 A 
BRANCH  30  36
ATOM     36  O   UNL     1       3.466   5.196   3.754  0.00  0.00    -0.492 OA
BRANCH  36  38
ATOM     37  C   UNL     1       4.730   5.707   1.759  0.00  0.00    +0.048 C 
ATOM     38  C   UNL     1       4.699   5.748   3.288  0.00  0.00    +0.225 C 
ENDBRANCH  36  38
ENDBRANCH  30  36
ENDBRANCH   1  34
TORSDOF 8
