REMARK  Name = ZINC05055857
REMARK  5 active torsions:
REMARK  status: ('A' for Active; 'I' for Inactive)
REMARK    1  A    between atoms: C_1  and  C_2
REMARK    2  A    between atoms: C_7  and  C_8
REMARK    3  A    between atoms: C_8  and  S_9
REMARK    4  A    between atoms: S_9  and  C_10
REMARK    5  A    between atoms: C_16  and  C_19
REMARK                            x       y       z     vdW  Elec       q    Type
REMARK                         _______ _______ _______ _____ _____    ______ ____
ROOT
ATOM      1  C   UNL     1       0.099   1.013   2.823  0.00  0.00    +0.118 A 
ATOM      2  C   UNL     1      -0.279   1.274   4.155  0.00  0.00    +0.040 A 
ATOM      3  C   UNL     1       0.456   0.771   5.183  0.00  0.00    +0.053 A 
ATOM      4  C   UNL     1       1.591  -0.010   4.897  0.00  0.00    +0.178 A 
ATOM      5  N   UNL     1       2.491  -0.626   5.652  0.00  0.00    -0.128 NA
ATOM      6  N   UNL     1       3.352  -1.218   4.901  0.00  0.00    -0.127 NA
ATOM      7  C   UNL     1       3.057  -1.018   3.629  0.00  0.00    +0.185 A 
ATOM      8  N   UNL     1       1.933  -0.246   3.590  0.00  0.00    -0.192 N 
ATOM      9  N   UNL     1       1.156   0.280   2.556  0.00  0.00    -0.157 NA
ENDROOT
BRANCH   7  10
ATOM     10  C   UNL     1       3.805  -1.534   2.465  0.00  0.00    +0.024 A 
ATOM     11  C   UNL     1       3.587  -1.016   1.182  0.00  0.00    +0.031 A 
ATOM     12  C   UNL     1       4.311  -1.524   0.124  0.00  0.00    +0.111 A 
ATOM     13  N   UNL     1       5.191  -2.490   0.308  0.00  0.00    -0.263 NA
ATOM     14  C   UNL     1       5.424  -3.010   1.498  0.00  0.00    +0.111 A 
ATOM     15  C   UNL     1       4.749  -2.558   2.612  0.00  0.00    +0.031 A 
ENDBRANCH   7  10
BRANCH   1  16
ATOM     16  S   UNL     1      -0.862   1.671   1.500  0.00  0.00    -0.100 S 
BRANCH  16  17
ATOM     17  C   UNL     1      -0.013   1.086   0.008  0.00  0.00    +0.111 C 
BRANCH  17  24
ATOM     18  C   UNL     1       0.705   3.627  -1.165  0.00  0.00    +0.044 C 
ATOM     19  C   UNL     1      -0.398   2.801  -1.774  0.00  0.00    -0.046 A 
ATOM     20  C   UNL     1      -1.067   3.258  -2.894  0.00  0.00    +0.003 A 
ATOM     21  C   UNL     1      -2.078   2.501  -3.453  0.00  0.00    +0.000 A 
ATOM     22  C   UNL     1      -2.422   1.285  -2.892  0.00  0.00    +0.000 A 
ATOM     23  C   UNL     1      -1.750   0.825  -1.775  0.00  0.00    +0.005 A 
ATOM     24  C   UNL     1      -0.742   1.585  -1.213  0.00  0.00    -0.034 A 
ENDBRANCH  17  24
ENDBRANCH  16  17
ENDBRANCH   1  16
TORSDOF 4
