REMARK  Name = ZINC36260902
REMARK  4 active torsions:
REMARK  status: ('A' for Active; 'I' for Inactive)
REMARK    1  A    between atoms: C_1  and  C_2
REMARK    2  A    between atoms: N_6  and  C_15
REMARK    3  A    between atoms: C_10  and  O_14
REMARK    4  A    between atoms: C_15  and  C_16
REMARK                            x       y       z     vdW  Elec       q    Type
REMARK                         _______ _______ _______ _____ _____    ______ ____
ROOT
ATOM      1  C   UNL     1      -0.412   1.479  -0.463  0.00  0.00    +0.062 C 
ATOM      2  C   UNL     1      -0.388  -0.051  -0.501  0.00  0.00    +0.256 C 
ATOM      3  C   UNL     1       0.527  -0.511  -1.608  0.00  0.00    +0.261 C 
ATOM      4  O   UNL     1       0.083  -0.715  -2.719  0.00  0.00    -0.271 OA
ATOM      5  N   UNL     1       1.841  -0.694  -1.359  0.00  0.00    -0.261 N 
ATOM      6  C   UNL     1       2.322  -0.484  -0.056  0.00  0.00    +0.079 A 
ATOM      7  C   UNL     1       3.679  -0.345   0.183  0.00  0.00    +0.031 A 
ATOM      8  C   UNL     1       4.134  -0.140   1.472  0.00  0.00    +0.047 A 
ATOM      9  C   UNL     1       3.234  -0.073   2.526  0.00  0.00    +0.120 A 
ATOM     10  C   UNL     1       1.874  -0.212   2.291  0.00  0.00    +0.093 A 
ATOM     11  C   UNL     1       1.416  -0.416   1.002  0.00  0.00    +0.146 A 
ATOM     12  O   UNL     1       0.086  -0.551   0.752  0.00  0.00    -0.478 OA
ENDROOT
BRANCH   9  13
ATOM     13  O   UNL     1       3.686   0.127   3.793  0.00  0.00    -0.507 OA
ATOM     14  H   UNL     1       3.748   1.058   4.045  0.00  0.00    +0.292 HD
ENDBRANCH   9  13
BRANCH   5  15
ATOM     15  C   UNL     1       2.752  -1.105  -2.430  0.00  0.00    +0.149 C 
BRANCH  15  16
ATOM     16  C   UNL     1       2.916  -2.603  -2.402  0.00  0.00    -0.030 A 
ATOM     17  C   UNL     1       3.982  -3.168  -1.727  0.00  0.00    +0.008 A 
ATOM     18  C   UNL     1       4.133  -4.542  -1.701  0.00  0.00    +0.038 A 
ATOM     19  C   UNL     1       3.217  -5.351  -2.351  0.00  0.00    +0.123 A 
ATOM     20  C   UNL     1       2.150  -4.784  -3.027  0.00  0.00    +0.038 A 
ATOM     21  C   UNL     1       1.998  -3.410  -3.047  0.00  0.00    +0.008 A 
ATOM     22  F   UNL     1       3.364  -6.694  -2.326  0.00  0.00    -0.205 F 
ENDBRANCH  15  16
ENDBRANCH   5  15
TORSDOF 3
