REMARK  Name = ZINC39638961
REMARK  5 active torsions:
REMARK  status: ('A' for Active; 'I' for Inactive)
REMARK    1  A    between atoms: C_5  and  C_7
REMARK    2  A    between atoms: C_7  and  C_8
REMARK    3  A    between atoms: C_8  and  N_9
REMARK    4  A    between atoms: C_10  and  C_12
REMARK    5  A    between atoms: C_23  and  C_25
REMARK                            x       y       z     vdW  Elec       q    Type
REMARK                         _______ _______ _______ _____ _____    ______ ____
ROOT
ATOM      1  C   UNL     1       1.436  -6.283   2.603  0.00  0.00    +0.100 C 
ATOM      2  C   UNL     1       0.089  -6.886   2.146  0.00  0.00    +0.121 C 
ATOM      3  N   UNL     1      -0.086  -8.093   2.988  0.00  0.00    -0.297 N 
ATOM      4  C   UNL     1       0.402  -7.682   4.327  0.00  0.00    +0.115 C 
ATOM      5  C   UNL     1       1.637  -6.807   4.035  0.00  0.00    -0.004 C 
ATOM      6  C   UNL     1       2.909  -7.645   4.117  0.00  0.00    -0.010 C 
ATOM      7  C   UNL     1       3.118  -8.108   5.561  0.00  0.00    -0.082 C 
ATOM      8  N   UNL     1       3.222  -6.938   6.441  0.00  0.00    +0.379 N 
ATOM      9  C   UNL     1       1.961  -6.187   6.428  0.00  0.00    -0.082 C 
ATOM     10  C   UNL     1       1.703  -5.644   5.020  0.00  0.00    -0.010 C 
ATOM     11  C   UNL     1      -0.578  -9.293   2.621  0.00  0.00    +0.260 C 
ATOM     12  O   UNL     1      -0.854  -9.505   1.459  0.00  0.00    -0.271 OA
ATOM     13  H   UNL     1       3.421  -7.243   7.383  0.00  0.00    -0.086 HD
ATOM     14  H   UNL     1       3.970  -6.342   6.119  0.00  0.00    -0.086 HD
ENDROOT
BRANCH  11  15
ATOM     15  C   UNL     1      -0.785 -10.370   3.654  0.00  0.00    +0.296 C 
ATOM     16  C   UNL     1      -1.912  -9.960   4.611  0.00  0.00    +0.283 C 
ATOM     17  O   UNL     1      -2.092 -11.009   5.568  0.00  0.00    -0.484 OA
ATOM     18  C   UNL     1      -2.142 -12.279   5.081  0.00  0.00    +0.162 A 
ATOM     19  C   UNL     1      -2.666 -13.291   5.872  0.00  0.00    +0.049 A 
ATOM     20  C   UNL     1      -2.720 -14.586   5.392  0.00  0.00    +0.004 A 
ATOM     21  C   UNL     1      -2.254 -14.876   4.124  0.00  0.00    +0.004 A 
ATOM     22  C   UNL     1      -1.732 -13.872   3.330  0.00  0.00    +0.049 A 
ATOM     23  C   UNL     1      -1.676 -12.570   3.805  0.00  0.00    +0.163 A 
ATOM     24  O   UNL     1      -1.166 -11.591   3.009  0.00  0.00    -0.473 OA
ENDBRANCH  11  15
BRANCH   1  26
ATOM     25  N   UNL     1       2.495  -4.049   2.524  0.00  0.00    -0.315 N 
ATOM     26  C   UNL     1       1.364  -4.777   2.601  0.00  0.00    +0.218 C 
ATOM     27  O   UNL     1       0.288  -4.222   2.668  0.00  0.00    -0.275 OA
ATOM     28  H   UNL     1       3.355  -4.493   2.470  0.00  0.00    +0.149 HD
BRANCH  25  29
ATOM     29  C   UNL     1       2.425  -2.586   2.521  0.00  0.00    +0.109 C 
BRANCH  29  30
ATOM     30  C   UNL     1       3.838  -2.008   2.426  0.00  0.00    +0.056 C 
BRANCH  30  35
ATOM     31  C   UNL     1       3.695   1.568   1.224  0.00  0.00    +0.000 A 
ATOM     32  C   UNL     1       3.635   2.261   2.419  0.00  0.00    +0.003 A 
ATOM     33  C   UNL     1       3.641   1.573   3.617  0.00  0.00    +0.038 A 
ATOM     34  C   UNL     1       3.707   0.190   3.621  0.00  0.00    +0.127 A 
ATOM     35  C   UNL     1       3.766  -0.502   2.424  0.00  0.00    -0.011 A 
ATOM     36  C   UNL     1       3.760   0.188   1.226  0.00  0.00    +0.006 A 
ATOM     37  F   UNL     1       3.713  -0.483   4.792  0.00  0.00    -0.205 F 
ENDBRANCH  30  35
ENDBRANCH  29  30
ENDBRANCH  25  29
ENDBRANCH   1  26
TORSDOF 5
