REMARK  Name = ZINC61695091
REMARK  4 active torsions:
REMARK  status: ('A' for Active; 'I' for Inactive)
REMARK    1  A    between atoms: C_1  and  C_2
REMARK    2  A    between atoms: C_2  and  C_4
REMARK    3  A    between atoms: C_2  and  O_22
REMARK    4  A    between atoms: C_7  and  N_11
REMARK                            x       y       z     vdW  Elec       q    Type
REMARK                         _______ _______ _______ _____ _____    ______ ____
ROOT
ATOM      1  N   UNL     1       2.747  -1.882   4.597  0.00  0.00    -0.289 N 
ATOM      2  C   UNL     1       3.119  -3.298   4.732  0.00  0.00    +0.207 C 
ATOM      3  C   UNL     1       2.847  -3.745   6.146  0.00  0.00    +0.235 C 
ATOM      4  O   UNL     1       2.569  -4.905   6.364  0.00  0.00    -0.274 OA
ATOM      5  N   UNL     1       2.908  -2.872   7.169  0.00  0.00    -0.283 N 
ATOM      6  C   UNL     1       3.177  -1.518   6.938  0.00  0.00    +0.055 A 
ATOM      7  C   UNL     1       3.099  -1.010   5.637  0.00  0.00    +0.056 A 
ATOM      8  C   UNL     1       3.361   0.326   5.391  0.00  0.00    +0.025 A 
ATOM      9  C   UNL     1       3.710   1.161   6.438  0.00  0.00    +0.002 A 
ATOM     10  C   UNL     1       3.797   0.663   7.725  0.00  0.00    +0.002 A 
ATOM     11  C   UNL     1       3.524  -0.676   7.981  0.00  0.00    +0.025 A 
ATOM     12  H   UNL     1       2.765  -3.184   8.076  0.00  0.00    +0.155 HD
ENDROOT
BRANCH   1  16
ATOM     13  C   UNL     1       0.731  -0.503   1.223  0.00  0.00    -0.018 A 
ATOM     14  C   UNL     1       2.114  -0.513   1.245  0.00  0.00    +0.008 A 
ATOM     15  C   UNL     1       2.785  -0.969   2.362  0.00  0.00    +0.025 A 
ATOM     16  C   UNL     1       2.071  -1.419   3.465  0.00  0.00    +0.053 A 
ATOM     17  C   UNL     1       0.681  -1.408   3.440  0.00  0.00    +0.063 A 
ATOM     18  C   UNL     1       0.015  -0.945   2.321  0.00  0.00    +0.028 A 
ATOM     19 CL   UNL     1      -0.218  -1.969   4.815  0.00  0.00    -0.082 Cl
BRANCH  13  21
ATOM     20  C   UNL     1      -0.019   1.526   0.010  0.00  0.00    +0.043 C 
ATOM     21  C   UNL     1       0.002  -0.004   0.002  0.00  0.00    +0.141 C 
BRANCH  21  22
ATOM     22  O   UNL     1       0.671  -0.465  -1.174  0.00  0.00    -0.387 OA
ATOM     23  H   UNL     1       0.256  -0.181  -1.999  0.00  0.00    +0.210 HD
ENDBRANCH  21  22
ENDBRANCH  13  21
ENDBRANCH   1  16
TORSDOF 3
