REMARK  Name = ZINC07164792
REMARK  5 active torsions:
REMARK  status: ('A' for Active; 'I' for Inactive)
REMARK    1  A    between atoms: C_3  and  C_8
REMARK    2  A    between atoms: C_5  and  O_7
REMARK    3  A    between atoms: C_9  and  C_10
REMARK    4  A    between atoms: C_9  and  C_12
REMARK    5  A    between atoms: N_14  and  C_15
REMARK                            x       y       z     vdW  Elec       q    Type
REMARK                         _______ _______ _______ _____ _____    ______ ____
ROOT
ATOM      1  C   UNL     1      -0.096   5.385   0.490  0.00  0.00    +0.032 C 
ATOM      2  C   UNL     1      -1.265   6.015   0.169  0.00  0.00    +0.114 C 
ENDROOT
BRANCH   1   5
ATOM      3  C   UNL     1       1.019   1.809   0.638  0.00  0.00    +0.004 A 
ATOM      4  C   UNL     1       1.015   3.164   0.383  0.00  0.00    +0.008 A 
ATOM      5  C   UNL     1      -0.089   3.941   0.753  0.00  0.00    -0.020 A 
ATOM      6  C   UNL     1      -1.186   3.334   1.377  0.00  0.00    +0.053 A 
ATOM      7  C   UNL     1      -1.169   1.973   1.622  0.00  0.00    +0.117 A 
ATOM      8  C   UNL     1      -0.069   1.212   1.249  0.00  0.00    +0.045 A 
BRANCH   7   9
ATOM      9  O   UNL     1      -2.232   1.380   2.227  0.00  0.00    -0.507 OA
ATOM     10  H   UNL     1      -2.171   1.354   3.192  0.00  0.00    +0.292 HD
ENDBRANCH   7   9
ENDBRANCH   1   5
BRANCH   2  11
ATOM     11  C   UNL     1      -1.306   7.483   0.066  0.00  0.00    +0.259 C 
ATOM     12  O   UNL     1      -0.299   8.135   0.268  0.00  0.00    -0.269 OA
ATOM     13  N   UNL     1      -2.459   8.104  -0.251  0.00  0.00    -0.281 N 
ATOM     14  H   UNL     1      -3.278   7.592  -0.337  0.00  0.00    +0.155 HD
BRANCH  13  15
ATOM     15  C   UNL     1      -2.475   9.489  -0.454  0.00  0.00    +0.035 A 
ATOM     16  C   UNL     1      -3.571  10.239  -0.048  0.00  0.00    +0.026 A 
ATOM     17  C   UNL     1      -3.582  11.606  -0.244  0.00  0.00    +0.041 A 
ATOM     18  C   UNL     1      -2.507  12.228  -0.856  0.00  0.00    +0.142 A 
ATOM     19  C   UNL     1      -1.415  11.481  -1.268  0.00  0.00    +0.078 A 
ATOM     20  C   UNL     1      -1.397  10.113  -1.068  0.00  0.00    +0.046 A 
ATOM     21 CL   UNL     1      -0.069  12.263  -2.035  0.00  0.00    -0.081 Cl
ATOM     22  F   UNL     1      -2.523  13.564  -1.052  0.00  0.00    -0.204 F 
ENDBRANCH  13  15
ENDBRANCH   2  11
BRANCH   2  23
ATOM     23  C   UNL     1      -2.450   5.247  -0.068  0.00  0.00    +0.104 C 
ATOM     24  N   UNL     1      -3.391   4.638  -0.256  0.00  0.00    -0.191 NA
ENDBRANCH   2  23
TORSDOF 5
