REMARK  Name = ZINC07554729
REMARK  8 active torsions:
REMARK  status: ('A' for Active; 'I' for Inactive)
REMARK    1  A    between atoms: C_1  and  C_2
REMARK    2  A    between atoms: C_2  and  O_3
REMARK    3  A    between atoms: O_3  and  C_4
REMARK    4  A    between atoms: C_7  and  N_10
REMARK    5  A    between atoms: C_14  and  C_15
REMARK    6  A    between atoms: C_18  and  C_21
REMARK    7  A    between atoms: C_24  and  C_25
REMARK    8  A    between atoms: C_24  and  C_27
REMARK                            x       y       z     vdW  Elec       q    Type
REMARK                         _______ _______ _______ _____ _____    ______ ____
ROOT
ATOM      1  N   UNL     1      -1.278   1.905  -0.782  0.00  0.00    -0.269 N 
ATOM      2  C   UNL     1      -0.104   1.338  -1.002  0.00  0.00    +0.270 A 
ATOM      3  O   UNL     1      -0.015   0.222  -1.478  0.00  0.00    -0.266 OA
ATOM      4  C   UNL     1       1.094   2.126  -0.649  0.00  0.00    +0.079 A 
ATOM      5  C   UNL     1       2.406   1.800  -0.771  0.00  0.00    +0.028 C 
ATOM      6  S   UNL     1       0.350   3.624  -0.019  0.00  0.00    -0.064 S 
ATOM      7  C   UNL     1      -1.361   3.164  -0.239  0.00  0.00    +0.116 A 
ATOM      8  C   UNL     1      -2.504   3.906   0.063  0.00  0.00    +0.159 C 
ENDROOT
BRANCH   5   9
ATOM      9  C   UNL     1       2.792   0.432  -1.143  0.00  0.00    -0.024 A 
ATOM     10  C   UNL     1       2.066  -0.661  -0.655  0.00  0.00    +0.008 A 
ATOM     11  C   UNL     1       2.432  -1.941  -1.013  0.00  0.00    +0.004 A 
ATOM     12  C   UNL     1       3.521  -2.148  -1.842  0.00  0.00    -0.050 A 
ATOM     13  C   UNL     1       4.247  -1.073  -2.324  0.00  0.00    +0.004 A 
ATOM     14  C   UNL     1       3.892   0.214  -1.981  0.00  0.00    +0.008 A 
ATOM     15  C   UNL     1       3.917  -3.551  -2.223  0.00  0.00    +0.044 C 
ENDBRANCH   5   9
BRANCH   1  19
ATOM     16  C   UNL     1      -4.774  -0.162  -1.733  0.00  0.00    +0.121 A 
ATOM     17  C   UNL     1      -4.330   0.864  -2.554  0.00  0.00    +0.047 A 
ATOM     18  C   UNL     1      -3.173   1.549  -2.240  0.00  0.00    +0.030 A 
ATOM     19  C   UNL     1      -2.454   1.210  -1.102  0.00  0.00    +0.051 A 
ATOM     20  C   UNL     1      -2.895   0.178  -0.283  0.00  0.00    +0.030 A 
ATOM     21  C   UNL     1      -4.056  -0.501  -0.596  0.00  0.00    +0.047 A 
BRANCH  16  22
ATOM     22  O   UNL     1      -5.914  -0.836  -2.043  0.00  0.00    -0.492 OA
BRANCH  22  24
ATOM     23  C   UNL     1      -7.606  -2.518  -1.663  0.00  0.00    +0.048 C 
ATOM     24  C   UNL     1      -6.312  -1.880  -1.153  0.00  0.00    +0.225 C 
ENDBRANCH  22  24
ENDBRANCH  16  22
ENDBRANCH   1  19
BRANCH   8  25
ATOM     25  C   UNL     1      -2.381   5.251   0.537  0.00  0.00    +0.113 C 
ATOM     26  N   UNL     1      -2.282   6.319   0.913  0.00  0.00    -0.190 NA
ENDBRANCH   8  25
BRANCH   8  27
ATOM     27  C   UNL     1      -3.801   3.321  -0.103  0.00  0.00    +0.113 C 
ATOM     28  N   UNL     1      -4.830   2.858  -0.234  0.00  0.00    -0.190 NA
ENDBRANCH   8  27
TORSDOF 6
