REMARK  Name = ZINC43554408
REMARK  3 active torsions:
REMARK  status: ('A' for Active; 'I' for Inactive)
REMARK    1  A    between atoms: C_1  and  C_2
REMARK    2  A    between atoms: C_2  and  C_3
REMARK    3  A    between atoms: C_3  and  C_5
REMARK                            x       y       z     vdW  Elec       q    Type
REMARK                         _______ _______ _______ _____ _____    ______ ____
ROOT
ATOM      1  C   UNL     1       0.870  -2.011   1.172  0.00  0.00    +0.129 A 
ATOM      2  N   UNL     1      -0.053  -2.789   1.793  0.00  0.00    -0.309 N 
ATOM      3  H   UNL     1      -0.784  -2.368   2.273  0.00  0.00    +0.170 HD
ATOM      4  C   UNL     1       0.023  -4.132   1.756  0.00  0.00    +0.260 A 
ATOM      5  O   UNL     1      -0.815  -4.816   2.319  0.00  0.00    -0.267 OA
ATOM      6  C   UNL     1       1.105  -4.746   1.044  0.00  0.00    +0.075 A 
ATOM      7  C   UNL     1       1.391  -6.166   0.870  0.00  0.00    -0.018 A 
ATOM      8  C   UNL     1       2.486  -6.489   0.146  0.00  0.00    +0.021 A 
ATOM      9  S   UNL     1       3.189  -4.939  -0.339  0.00  0.00    -0.071 S 
ATOM     10  C   UNL     1       2.009  -3.860   0.434  0.00  0.00    +0.116 A 
ATOM     11  N   UNL     1       1.864  -2.540   0.510  0.00  0.00    -0.225 NA
ATOM     12  C   UNL     1       2.971  -7.873  -0.158  0.00  0.00    +0.202 C 
ATOM     13  O   UNL     1       2.271  -8.785   0.704  0.00  0.00    -0.374 OA
ATOM     14  C   UNL     1       0.856  -8.578   0.724  0.00  0.00    +0.165 C 
ATOM     15  C   UNL     1       0.523  -7.276   1.458  0.00  0.00    +0.065 C 
ENDROOT
BRANCH   1  16
ATOM     16  C   UNL     1       0.742  -0.511   1.242  0.00  0.00    +0.146 C 
ATOM     17 CL   UNL     1      -0.181  -0.054   2.721  0.00  0.00    -0.114 Cl
BRANCH  16  19
ATOM     18  C   UNL     1      -0.019   1.526   0.010  0.00  0.00    +0.006 C 
ATOM     19  C   UNL     1       0.002  -0.004   0.002  0.00  0.00    +0.024 C 
ENDBRANCH  16  19
ENDBRANCH   1  16
TORSDOF 2
