REMARK  Name = ZINC00080815
REMARK  2 active torsions:
REMARK  status: ('A' for Active; 'I' for Inactive)
REMARK    1  A    between atoms: C_3  and  C_6
REMARK    2  A    between atoms: C_9  and  C_17
REMARK                            x       y       z     vdW  Elec       q    Type
REMARK                         _______ _______ _______ _____ _____    ______ ____
ROOT
ATOM      1  C   UNL     1       3.599   0.625  -0.029  0.00  0.00    +0.178 C 
ATOM      2  C   UNL     1       4.083  -0.109  -1.286  0.00  0.00    +0.062 C 
ATOM      3  C   UNL     1       5.586  -0.390  -1.175  0.00  0.00    +0.112 C 
ATOM      4  N   UNL     1       5.815  -1.278  -0.019  0.00  0.00    -0.306 N 
ATOM      5  C   UNL     1       5.113  -0.972   1.140  0.00  0.00    +0.215 A 
ATOM      6  N   UNL     1       4.084  -0.087   1.152  0.00  0.00    -0.223 N 
ATOM      7  N   UNL     1       3.628  -0.024   2.469  0.00  0.00    -0.156 NA
ATOM      8  C   UNL     1       4.374  -0.843   3.168  0.00  0.00    +0.247 A 
ATOM      9  N   UNL     1       5.274  -1.421   2.355  0.00  0.00    -0.202 NA
ATOM     10  H   UNL     1       6.421  -2.034  -0.066  0.00  0.00    +0.150 HD
ENDROOT
BRANCH   1  13
ATOM     11  C   UNL     1      -0.016   1.341   0.009  0.00  0.00    +0.041 A 
ATOM     12  C   UNL     1       1.331   1.769  -0.001  0.00  0.00    +0.047 A 
ATOM     13  C   UNL     1       2.092   0.660  -0.014  0.00  0.00    +0.129 A 
ATOM     14  O   UNL     1       1.282  -0.411  -0.012  0.00  0.00    -0.466 OA
ATOM     15  C   UNL     1       0.002  -0.004   0.002  0.00  0.00    +0.195 A 
ENDBRANCH   1  13
BRANCH   3  16
ATOM     16  C   UNL     1       6.071  -1.058  -2.435  0.00  0.00    +0.010 A 
ATOM     17  C   UNL     1       6.724  -0.516  -3.492  0.00  0.00    +0.013 A 
ATOM     18  C   UNL     1       7.076  -1.331  -4.552  0.00  0.00    +0.008 A 
ATOM     19  C   UNL     1       6.758  -2.647  -4.503  0.00  0.00    +0.045 A 
ATOM     20  S   UNL     1       5.941  -2.771  -2.920  0.00  0.00    -0.100 S 
ENDBRANCH   3  16
TORSDOF 2
