REMARK  Name = ZINC20210382
REMARK  5 active torsions:
REMARK  status: ('A' for Active; 'I' for Inactive)
REMARK    1  A    between atoms: C_1  and  C_2
REMARK    2  A    between atoms: C_2  and  C_3
REMARK    3  A    between atoms: C_9  and  C_10
REMARK    4  A    between atoms: N_14  and  C_15
REMARK    5  A    between atoms: C_18  and  N_21
REMARK                            x       y       z     vdW  Elec       q    Type
REMARK                         _______ _______ _______ _____ _____    ______ ____
ROOT
ATOM      1  C   UNL     1      -0.395   0.222   2.612  0.00  0.00    +0.100 C 
ATOM      2  N   UNL     1       0.500   0.828   3.339  0.00  0.00    -0.169 NA
ATOM      3  N   UNL     1       1.422   0.117   4.077  0.00  0.00    -0.154 N 
ATOM      4  C   UNL     1       2.372   0.669   4.963  0.00  0.00    +0.132 C 
ATOM      5  N   UNL     1       2.241   1.847   5.515  0.00  0.00    -0.385 N 
ATOM      6  C   UNL     1       3.538  -0.222   5.207  0.00  0.00    +0.080 C 
ATOM      7  C   UNL     1       4.808   0.283   5.436  0.00  0.00    +0.042 C 
ATOM      8  C   UNL     1       3.271  -1.679   5.194  0.00  0.00    +0.273 C 
ATOM      9  O   UNL     1       3.989  -2.455   5.804  0.00  0.00    -0.268 OA
ATOM     10  N   UNL     1       2.210  -2.123   4.490  0.00  0.00    -0.152 NA
ATOM     11  C   UNL     1       1.389  -1.256   3.956  0.00  0.00    +0.181 C 
ATOM     12  S   UNL     1      -0.017  -1.501   2.902  0.00  0.00    -0.038 S 
ATOM     13  H   UNL     1       1.438   2.369   5.359  0.00  0.00    +0.157 HD
ATOM     14  H   UNL     1       2.946   2.200   6.080  0.00  0.00    +0.157 HD
ENDROOT
BRANCH   7  15
ATOM     15  C   UNL     1       5.046   1.665   5.318  0.00  0.00    +0.047 A 
ATOM     16  C   UNL     1       5.609   2.488   6.284  0.00  0.00    +0.027 A 
ATOM     17  C   UNL     1       5.658   3.776   5.748  0.00  0.00    +0.020 A 
ATOM     18  C   UNL     1       5.139   3.729   4.495  0.00  0.00    +0.092 A 
ATOM     19  N   UNL     1       4.768   2.453   4.217  0.00  0.00    -0.316 N 
BRANCH  19  20
ATOM     20  C   UNL     1       4.197   2.009   3.018  0.00  0.00    +0.047 A 
ATOM     21  C   UNL     1       4.761   0.941   2.332  0.00  0.00    +0.028 A 
ATOM     22  C   UNL     1       4.195   0.506   1.149  0.00  0.00    +0.035 A 
ATOM     23  C   UNL     1       3.069   1.133   0.648  0.00  0.00    +0.126 A 
ATOM     24  C   UNL     1       2.506   2.197   1.328  0.00  0.00    +0.035 A 
ATOM     25  C   UNL     1       3.063   2.633   2.515  0.00  0.00    +0.028 A 
BRANCH  23  26
ATOM     26  N   UNL     1       2.466   0.665  -0.620  0.00  0.00    +0.056 N 
ATOM     27  O   UNL     1       2.909  -0.313  -1.175  0.00  0.00    -0.126 OA
ATOM     28  O   UNL     1       1.530   1.261  -1.101  0.00  0.00    -0.126 OA
ENDBRANCH  23  26
ENDBRANCH  19  20
ENDBRANCH   7  15
BRANCH   1  30
ATOM     29  C   UNL     1      -1.371   2.347   1.786  0.00  0.00    +0.011 C 
ATOM     30  C   UNL     1      -1.477   0.821   1.752  0.00  0.00    +0.061 C 
ENDBRANCH   1  30
TORSDOF 4
