REMARK  Name = ZINC49544765
REMARK  5 active torsions:
REMARK  status: ('A' for Active; 'I' for Inactive)
REMARK    1  A    between atoms: C_1  and  C_2
REMARK    2  A    between atoms: C_2  and  C_3
REMARK    3  A    between atoms: C_2  and  C_4
REMARK    4  A    between atoms: C_2  and  N_5
REMARK    5  A    between atoms: C_10  and  C_16
REMARK                            x       y       z     vdW  Elec       q    Type
REMARK                         _______ _______ _______ _____ _____    ______ ____
ROOT
ATOM      1  N   UNL     1       0.688  -0.476  -1.203  0.00  0.00    -0.245 N 
ATOM      2  C   UNL     1       0.889  -1.756  -1.547  0.00  0.00    +0.128 A 
ATOM      3  C   UNL     1       1.567  -1.766  -2.738  0.00  0.00    +0.020 A 
ATOM      4  C   UNL     1       1.776  -0.450  -3.122  0.00  0.00    +0.140 A 
ATOM      5  N   UNL     1       1.246   0.331  -2.208  0.00  0.00    -0.177 NA
ATOM      6  C   UNL     1       1.969  -3.046  -3.424  0.00  0.00    +0.063 C 
ATOM      7  C   UNL     1       2.178  -4.122  -2.354  0.00  0.00    +0.109 C 
ATOM      8  C   UNL     1       1.085  -4.091  -1.325  0.00  0.00    +0.219 C 
ATOM      9  O   UNL     1       0.692  -5.139  -0.857  0.00  0.00    -0.275 OA
ATOM     10  N   UNL     1       0.524  -2.938  -0.902  0.00  0.00    -0.270 N 
ATOM     11  H   UNL     1      -0.113  -2.931  -0.171  0.00  0.00    +0.156 HD
ENDROOT
BRANCH   6  12
ATOM     12  C   UNL     1       0.881  -3.477  -4.373  0.00  0.00    -0.039 A 
ATOM     13  C   UNL     1      -0.390  -3.738  -3.895  0.00  0.00    +0.004 A 
ATOM     14  C   UNL     1      -1.388  -4.133  -4.766  0.00  0.00    +0.000 A 
ATOM     15  C   UNL     1      -1.116  -4.268  -6.115  0.00  0.00    +0.000 A 
ATOM     16  C   UNL     1       0.155  -4.006  -6.593  0.00  0.00    +0.000 A 
ATOM     17  C   UNL     1       1.152  -3.607  -5.723  0.00  0.00    +0.004 A 
ENDBRANCH   6  12
BRANCH   1  19
ATOM     18  C   UNL     1      -0.019   1.526   0.010  0.00  0.00    +0.036 C 
ATOM     19  C   UNL     1       0.002  -0.004   0.002  0.00  0.00    +0.057 C 
ATOM     20  C   UNL     1       0.742  -0.511   1.242  0.00  0.00    +0.036 C 
ATOM     21  C   UNL     1      -1.433  -0.534   0.013  0.00  0.00    +0.036 C 
ENDBRANCH   1  19
TORSDOF 2
