REMARK  Name = ZINC67066948
REMARK  4 active torsions:
REMARK  status: ('A' for Active; 'I' for Inactive)
REMARK    1  A    between atoms: C_3  and  C_11
REMARK    2  A    between atoms: N_19  and  C_20
REMARK    3  A    between atoms: C_20  and  C_21
REMARK    4  A    between atoms: C_21  and  N_22
REMARK                            x       y       z     vdW  Elec       q    Type
REMARK                         _______ _______ _______ _____ _____    ______ ____
ROOT
ATOM      1  C   UNL     1       3.670   2.195  -0.023  0.00  0.00    +0.111 C 
ATOM      2  C   UNL     1       4.260   2.248   1.401  0.00  0.00    +0.029 C 
ATOM      3  C   UNL     1       4.833   3.687   1.486  0.00  0.00    +0.021 C 
ATOM      4  C   UNL     1       3.795   4.485   0.658  0.00  0.00    +0.110 C 
ATOM      5  N   UNL     1       3.417   3.580  -0.447  0.00  0.00    -0.278 N 
ATOM      6  C   UNL     1       2.922   3.958  -1.642  0.00  0.00    +0.303 C 
ATOM      7  O   UNL     1       2.645   3.120  -2.478  0.00  0.00    -0.253 OA
ATOM      8  N   UNL     1       2.735   5.266  -1.911  0.00  0.00    -0.298 N 
ATOM      9  H   UNL     1       2.956   5.934  -1.244  0.00  0.00    +0.150 HD
ENDROOT
BRANCH   1  12
ATOM     10  C   UNL     1      -0.017   1.378   0.010  0.00  0.00    +0.004 A 
ATOM     11  C   UNL     1       1.170   2.088   0.002  0.00  0.00    +0.009 A 
ATOM     12  C   UNL     1       2.378   1.418  -0.014  0.00  0.00    +0.018 A 
ATOM     13  C   UNL     1       2.404   0.031  -0.023  0.00  0.00    +0.167 A 
ATOM     14  C   UNL     1       1.212  -0.683  -0.013  0.00  0.00    +0.162 A 
ATOM     15  C   UNL     1       0.002  -0.004   0.002  0.00  0.00    +0.049 A 
ATOM     16  O   UNL     1       1.214  -2.044  -0.013  0.00  0.00    -0.485 OA
ATOM     17  C   UNL     1       2.434  -2.685  -0.404  0.00  0.00    +0.270 C 
ATOM     18  C   UNL     1       3.594  -1.997   0.328  0.00  0.00    +0.270 C 
ATOM     19  O   UNL     1       3.602  -0.615  -0.043  0.00  0.00    -0.485 OA
ENDBRANCH   1  12
BRANCH   8  20
ATOM     20  C   UNL     1       2.198   5.677  -3.210  0.00  0.00    +0.125 C 
BRANCH  20  21
ATOM     21  C   UNL     1       2.085   7.202  -3.256  0.00  0.00    +0.136 C 
BRANCH  21  22
ATOM     22  N   UNL     1       1.548   7.613  -4.555  0.00  0.00    -0.231 N 
ATOM     23  C   UNL     1       2.399   7.851  -5.538  0.00  0.00    +0.233 C 
ATOM     24  O   UNL     1       3.598   7.741  -5.397  0.00  0.00    -0.274 OA
ATOM     25  C   UNL     1       1.770   8.273  -6.859  0.00  0.00    +0.175 C 
ATOM     26  S   UNL     1      -0.009   8.237  -6.384  0.00  0.00    -0.058 S 
ATOM     27  C   UNL     1       0.212   7.723  -4.687  0.00  0.00    +0.281 C 
ATOM     28  O   UNL     1      -0.643   7.521  -3.847  0.00  0.00    -0.262 OA
ENDBRANCH  21  22
ENDBRANCH  20  21
ENDBRANCH   8  20
TORSDOF 4
