REMARK  Name = ZINC01049021
REMARK  4 active torsions:
REMARK  status: ('A' for Active; 'I' for Inactive)
REMARK    1  A    between atoms: C_1  and  N_2
REMARK    2  A    between atoms: N_2  and  N_3
REMARK    3  A    between atoms: N_2  and  S_14
REMARK    4  A    between atoms: S_14  and  C_17
REMARK                            x       y       z     vdW  Elec       q    Type
REMARK                         _______ _______ _______ _____ _____    ______ ____
ROOT
ATOM      1  C   UNL     1      -1.105  -0.748  -0.604  0.00  0.00    +0.179 C 
ATOM      2  N   UNL     1       0.002  -0.004   0.002  0.00  0.00    -0.138 N 
ENDROOT
BRANCH   2   3
ATOM      3  N   UNL     1       1.080  -0.693   0.574  0.00  0.00    -0.197 N 
ATOM      4  C   UNL     1       2.155  -1.016  -0.192  0.00  0.00    +0.224 A 
ATOM      5  N   UNL     1       3.193  -1.648   0.265  0.00  0.00    -0.235 NA
ATOM      6  C   UNL     1       3.270  -2.046   1.559  0.00  0.00    +0.078 A 
ATOM      7  C   UNL     1       4.383  -2.732   2.050  0.00  0.00    +0.028 A 
ATOM      8  C   UNL     1       4.419  -3.117   3.371  0.00  0.00    +0.002 A 
ATOM      9  C   UNL     1       3.361  -2.833   4.224  0.00  0.00    +0.001 A 
ATOM     10  C   UNL     1       2.252  -2.158   3.764  0.00  0.00    +0.015 A 
ATOM     11  C   UNL     1       2.196  -1.759   2.430  0.00  0.00    +0.066 A 
ATOM     12  C   UNL     1       1.038  -1.036   1.882  0.00  0.00    +0.280 A 
ATOM     13  O   UNL     1       0.079  -0.758   2.579  0.00  0.00    -0.265 OA
ENDBRANCH   2   3
BRANCH   2  14
ATOM     14  S   UNL     1      -0.020   1.652   0.011  0.00  0.00    +0.090 S 
ATOM     15  O   UNL     1       1.336   2.076   0.001  0.00  0.00    -0.149 OA
ATOM     16  O   UNL     1      -0.952   2.051  -0.985  0.00  0.00    -0.149 OA
BRANCH  14  17
ATOM     17  C   UNL     1      -0.694   2.155   1.560  0.00  0.00    +0.137 A 
ATOM     18  C   UNL     1       0.084   2.845   2.473  0.00  0.00    +0.058 A 
ATOM     19  C   UNL     1      -0.468   3.222   3.653  0.00  0.00    +0.081 A 
ATOM     20  S   UNL     1      -2.129   2.587   3.505  0.00  0.00    -0.063 S 
ATOM     21  C   UNL     1      -1.980   1.867   1.877  0.00  0.00    +0.106 A 
ATOM     22 CL   UNL     1      -3.173   1.020   0.943  0.00  0.00    -0.074 Cl
ATOM     23 CL   UNL     1       0.257   4.092   4.969  0.00  0.00    -0.076 Cl
ENDBRANCH  14  17
ENDBRANCH   2  14
TORSDOF 3
