REMARK  Name = ZINC51114127
REMARK  3 active torsions:
REMARK  status: ('A' for Active; 'I' for Inactive)
REMARK    1  A    between atoms: C_3  and  N_21
REMARK    2  A    between atoms: C_4  and  C_8
REMARK    3  A    between atoms: N_21  and  N_22
REMARK                            x       y       z     vdW  Elec       q    Type
REMARK                         _______ _______ _______ _____ _____    ______ ____
ROOT
ATOM      1  C   UNL     1      -0.028   1.314  -0.005  0.00  0.00    +0.022 A 
ATOM      2  C   UNL     1       0.855   1.564   1.025  0.00  0.00    +0.026 A 
ATOM      3  C   UNL     1       2.089   0.926   1.054  0.00  0.00    +0.053 A 
ATOM      4  C   UNL     1       2.431   0.027   0.033  0.00  0.00    +0.060 A 
ATOM      5  C   UNL     1       1.526  -0.216  -1.004  0.00  0.00    +0.035 A 
ATOM      6  C   UNL     1       0.306   0.426  -1.017  0.00  0.00    +0.042 A 
ATOM      7 CL   UNL     1      -0.817   0.122  -2.305  0.00  0.00    -0.084 Cl
ENDROOT
BRANCH   4   8
ATOM      8  C   UNL     1       3.737  -0.656   0.052  0.00  0.00    +0.249 C 
ATOM      9  O   UNL     1       4.762  -0.007   0.134  0.00  0.00    -0.270 OA
ATOM     10  N   UNL     1       3.795  -2.001  -0.020  0.00  0.00    -0.290 N 
ATOM     11  C   UNL     1       2.597  -2.842  -0.246  0.00  0.00    +0.136 C 
ATOM     12  C   UNL     1       2.546  -3.992   0.758  0.00  0.00    +0.179 C 
ATOM     13  O   UNL     1       3.825  -4.637   0.901  0.00  0.00    -0.373 OA
ATOM     14  C   UNL     1       4.816  -3.719   1.307  0.00  0.00    +0.139 C 
ATOM     15  C   UNL     1       5.042  -2.742   0.111  0.00  0.00    +0.105 C 
ATOM     16  C   UNL     1       6.284  -1.966   0.530  0.00  0.00    +0.025 C 
ATOM     17  C   UNL     1       7.104  -2.951   1.404  0.00  0.00    +0.004 C 
ATOM     18  C   UNL     1       6.232  -4.238   1.552  0.00  0.00    +0.033 C 
ENDBRANCH   4   8
BRANCH   3  19
ATOM     19  N   UNL     1       2.980   1.177   2.091  0.00  0.00    -0.282 N 
ATOM     20  H   UNL     1       3.808   0.676   2.150  0.00  0.00    +0.166 HD
BRANCH  19  21
ATOM     21  N   UNL     1       2.689   2.130   3.026  0.00  0.00    -0.256 NA
ATOM     22  H   UNL     1       3.425   2.199   3.712  0.00  0.00    +0.140 HD
ATOM     23  H   UNL     1       2.516   3.023   2.590  0.00  0.00    +0.140 HD
ENDBRANCH  19  21
ENDBRANCH   3  19
TORSDOF 3
