REMARK  Name = ZINC60489555
REMARK  2 active torsions:
REMARK  status: ('A' for Active; 'I' for Inactive)
REMARK    1  A    between atoms: C_11  and  C_14
REMARK    2  A    between atoms: C_19  and  C_22
REMARK                            x       y       z     vdW  Elec       q    Type
REMARK                         _______ _______ _______ _____ _____    ______ ____
ROOT
ATOM      1  C   UNL     1      -0.013   1.531   0.390  0.00  0.00    +0.020 C 
ATOM      2  C   UNL     1       1.492   1.907   0.331  0.00  0.00    +0.020 C 
ATOM      3  C   UNL     1       2.140   0.711   1.071  0.00  0.00    +0.109 C 
ATOM      4  N   UNL     1       1.346  -0.462   0.663  0.00  0.00    -0.285 N 
ATOM      5  C   UNL     1       0.010  -0.006   0.252  0.00  0.00    +0.109 C 
ATOM      6  C   UNL     1       1.774  -1.740   0.665  0.00  0.00    +0.305 C 
ATOM      7  O   UNL     1       2.938  -1.990   0.909  0.00  0.00    -0.252 OA
ATOM      8  N   UNL     1       0.911  -2.740   0.396  0.00  0.00    -0.285 N 
ATOM      9  C   UNL     1      -0.434  -2.450  -0.119  0.00  0.00    +0.110 C 
ATOM     10  C   UNL     1      -1.465  -3.138   0.780  0.00  0.00    +0.032 C 
ATOM     11  C   UNL     1      -1.137  -4.630   0.876  0.00  0.00    +0.078 C 
ATOM     12  C   UNL     1       0.247  -4.810   1.503  0.00  0.00    +0.032 C 
ATOM     13  C   UNL     1       1.300  -4.141   0.607  0.00  0.00    +0.110 C 
ENDROOT
BRANCH  11  14
ATOM     14  C   UNL     1      -2.170  -5.317   1.732  0.00  0.00    +0.219 C 
ATOM     15  O   UNL     1      -2.804  -4.680   2.546  0.00  0.00    -0.275 OA
ATOM     16  N   UNL     1      -2.387  -6.640   1.594  0.00  0.00    -0.301 N 
ATOM     17  C   UNL     1      -1.701  -7.406   0.545  0.00  0.00    +0.108 C 
ATOM     18  C   UNL     1      -0.992  -8.601   1.190  0.00  0.00    +0.032 C 
ATOM     19  C   UNL     1      -2.004  -9.413   2.001  0.00  0.00    +0.078 C 
ATOM     20  C   UNL     1      -2.587  -8.539   3.114  0.00  0.00    +0.032 C 
ATOM     21  C   UNL     1      -3.310  -7.345   2.494  0.00  0.00    +0.108 C 
BRANCH  19  22
ATOM     22  C   UNL     1      -1.317 -10.608   2.610  0.00  0.00    +0.214 C 
ATOM     23  O   UNL     1      -0.134 -10.792   2.414  0.00  0.00    -0.276 OA
ATOM     24  N   UNL     1      -2.016 -11.472   3.372  0.00  0.00    -0.329 N 
ATOM     25  H   UNL     1      -2.962 -11.325   3.528  0.00  0.00    +0.145 HD
ATOM     26  H   UNL     1      -1.574 -12.241   3.763  0.00  0.00    +0.145 HD
ENDBRANCH  19  22
ENDBRANCH  11  14
TORSDOF 2
