REMARK  Name = ZINC66240793
REMARK  8 active torsions:
REMARK  status: ('A' for Active; 'I' for Inactive)
REMARK    1  A    between atoms: C_1  and  C_2
REMARK    2  A    between atoms: C_5  and  C_7
REMARK    3  A    between atoms: C_10  and  C_12
REMARK    4  A    between atoms: C_12  and  N_13
REMARK    5  A    between atoms: C_14  and  C_16
REMARK    6  A    between atoms: C_19  and  N_22
REMARK    7  A    between atoms: C_23  and  N_29
REMARK    8  A    between atoms: C_24  and  C_27
REMARK                            x       y       z     vdW  Elec       q    Type
REMARK                         _______ _______ _______ _____ _____    ______ ____
ROOT
ATOM      1  C   UNL     1       7.305   2.274   4.234  0.00  0.00    +0.037 A 
ATOM      2  C   UNL     1       7.425   0.882   4.280  0.00  0.00    +0.015 A 
ATOM      3  C   UNL     1       8.645   0.307   4.557  0.00  0.00    +0.028 A 
ATOM      4  C   UNL     1       9.757   1.109   4.791  0.00  0.00    +0.067 A 
ATOM      5  C   UNL     1       9.641   2.494   4.746  0.00  0.00    +0.028 A 
ATOM      6  C   UNL     1       8.425   3.076   4.464  0.00  0.00    +0.015 A 
ENDROOT
BRANCH   4   7
ATOM      7  N   UNL     1      10.993   0.522   5.073  0.00  0.00    -0.218 N 
ATOM      8  C   UNL     1      12.206   1.001   4.692  0.00  0.00    +0.137 A 
ATOM      9  C   UNL     1      13.164   0.115   5.179  0.00  0.00    +0.111 A 
ATOM     10  C   UNL     1      12.471  -0.909   5.865  0.00  0.00    +0.155 A 
ATOM     11  N   UNL     1      11.194  -0.656   5.801  0.00  0.00    -0.172 NA
BRANCH   8  12
ATOM     12  N   UNL     1      12.444   2.147   3.959  0.00  0.00    -0.342 N 
ATOM     13  H   UNL     1      11.701   2.698   3.666  0.00  0.00    +0.144 HD
ATOM     14  H   UNL     1      13.354   2.401   3.739  0.00  0.00    +0.144 HD
ENDBRANCH   8  12
BRANCH   9  15
ATOM     15  C   UNL     1      14.583   0.222   5.016  0.00  0.00    +0.104 C 
ATOM     16  N   UNL     1      15.708   0.306   4.886  0.00  0.00    -0.191 NA
ENDBRANCH   9  15
ENDBRANCH   4   7
BRANCH   1  18
ATOM     17  N   UNL     1       4.919   2.118   3.714  0.00  0.00    -0.304 N 
ATOM     18  C   UNL     1       5.998   2.894   3.936  0.00  0.00    +0.244 C 
ATOM     19  O   UNL     1       5.896   4.105   3.891  0.00  0.00    -0.270 OA
ATOM     20  H   UNL     1       5.000   1.152   3.750  0.00  0.00    +0.149 HD
BRANCH  17  21
ATOM     21  C   UNL     1       3.623   2.734   3.419  0.00  0.00    +0.179 C 
BRANCH  21  25
ATOM     22  C   UNL     1       1.320   0.160   2.233  0.00  0.00    +0.109 A 
ATOM     23  C   UNL     1       0.999   0.148   3.539  0.00  0.00    +0.045 A 
ATOM     24  C   UNL     1       1.817   1.113   4.170  0.00  0.00    +0.046 A 
ATOM     25  C   UNL     1       2.590   1.656   3.212  0.00  0.00    +0.122 A 
ATOM     26  O   UNL     1       2.289   1.070   2.042  0.00  0.00    -0.463 OA
BRANCH  22  30
ATOM     27  C   UNL     1      -0.019   1.526   0.010  0.00  0.00    +0.008 C 
ATOM     28  C   UNL     1       0.002  -0.004   0.002  0.00  0.00    -0.003 C 
ATOM     29  C   UNL     1       1.351  -0.691  -0.221  0.00  0.00    +0.015 C 
ATOM     30  C   UNL     1       0.703  -0.708   1.166  0.00  0.00    +0.058 C 
ENDBRANCH  22  30
ENDBRANCH  21  25
ENDBRANCH  17  21
ENDBRANCH   1  18
TORSDOF 7
