REMARK  Name = ZINC09029113
REMARK  10 active torsions:
REMARK  status: ('A' for Active; 'I' for Inactive)
REMARK    1  A    between atoms: C_1  and  C_2
REMARK    2  A    between atoms: C_2  and  C_3
REMARK    3  A    between atoms: C_2  and  C_4
REMARK    4  A    between atoms: C_2  and  C_5
REMARK    5  A    between atoms: C_16  and  N_19
REMARK    6  A    between atoms: C_20  and  C_22
REMARK    7  A    between atoms: C_25  and  O_30
REMARK    8  A    between atoms: C_26  and  O_28
REMARK    9  A    between atoms: O_28  and  C_29
REMARK   10  A    between atoms: O_30  and  C_31
REMARK                            x       y       z     vdW  Elec       q    Type
REMARK                         _______ _______ _______ _____ _____    ______ ____
ROOT
ATOM      1  C   UNL     1       0.737  -0.498  -1.238  0.00  0.00    -0.000 C 
ATOM      2  C   UNL     1       2.170   0.042  -1.265  0.00  0.00    +0.010 C 
ATOM      3  C   UNL     1       2.960  -0.633  -2.386  0.00  0.00    +0.055 C 
ATOM      4  C   UNL     1       2.187  -0.488  -3.695  0.00  0.00    +0.039 A 
ATOM      5  C   UNL     1       0.875  -0.199  -3.675  0.00  0.00    +0.013 A 
ATOM      6  S   UNL     1       0.424  -0.134  -5.392  0.00  0.00    -0.054 S 
ATOM      7  C   UNL     1       2.026  -0.501  -6.052  0.00  0.00    +0.181 A 
ATOM      8  N   UNL     1       2.795  -0.647  -4.922  0.00  0.00    -0.257 N 
ATOM      9  C   UNL     1       4.122  -0.944  -5.089  0.00  0.00    +0.280 A 
ATOM     10  O   UNL     1       4.871  -1.088  -4.135  0.00  0.00    -0.265 OA
ATOM     11  C   UNL     1       4.582  -1.073  -6.412  0.00  0.00    +0.118 A 
ATOM     12  C   UNL     1       3.732  -0.908  -7.486  0.00  0.00    +0.142 A 
ATOM     13  N   UNL     1       2.439  -0.618  -7.288  0.00  0.00    -0.229 NA
ATOM     14  C   UNL     1      -0.003   0.013  -2.484  0.00  0.00    +0.048 C 
ENDROOT
BRANCH   1  16
ATOM     15  C   UNL     1       0.000   1.526   0.027  0.00  0.00    +0.011 C 
ATOM     16  C   UNL     1       0.025  -0.003   0.022  0.00  0.00    -0.035 C 
ATOM     17  C   UNL     1       0.771  -0.506   1.260  0.00  0.00    +0.011 C 
ATOM     18  C   UNL     1      -1.409  -0.536   0.040  0.00  0.00    +0.011 C 
ENDBRANCH   1  16
BRANCH  11  19
ATOM     19  N   UNL     1       5.935  -1.376  -6.645  0.00  0.00    -0.276 N 
ATOM     20  C   UNL     1       6.898  -0.547  -6.196  0.00  0.00    +0.249 C 
ATOM     21  O   UNL     1       6.602   0.417  -5.516  0.00  0.00    -0.270 OA
ATOM     22  H   UNL     1       6.175  -2.182  -7.128  0.00  0.00    +0.155 HD
BRANCH  20  23
ATOM     23  C   UNL     1       8.312  -0.809  -6.530  0.00  0.00    +0.041 A 
ATOM     24  C   UNL     1       8.653  -1.919  -7.306  0.00  0.00    +0.017 A 
ATOM     25  C   UNL     1       9.973  -2.160  -7.621  0.00  0.00    +0.050 A 
ATOM     26  C   UNL     1      10.967  -1.306  -7.160  0.00  0.00    +0.162 A 
ATOM     27  C   UNL     1      10.633  -0.200  -6.380  0.00  0.00    +0.162 A 
ATOM     28  C   UNL     1       9.311   0.050  -6.065  0.00  0.00    +0.062 A 
BRANCH  27  29
ATOM     29  O   UNL     1      11.609   0.634  -5.930  0.00  0.00    -0.491 OA
ATOM     30  C   UNL     1      11.195   1.748  -5.137  0.00  0.00    +0.277 C 
ENDBRANCH  27  29
BRANCH  26  31
ATOM     31  O   UNL     1      12.267  -1.551  -7.468  0.00  0.00    -0.491 OA
ATOM     32  C   UNL     1      12.537  -2.702  -8.271  0.00  0.00    +0.277 C 
ENDBRANCH  26  31
ENDBRANCH  20  23
ENDBRANCH  11  19
TORSDOF 5
