REMARK  Name = ZINC06884620
REMARK  4 active torsions:
REMARK  status: ('A' for Active; 'I' for Inactive)
REMARK    1  A    between atoms: C_5  and  N_7
REMARK    2  A    between atoms: C_8  and  C_10
REMARK    3  A    between atoms: C_13  and  C_15
REMARK    4  A    between atoms: C_18  and  N_21
REMARK                            x       y       z     vdW  Elec       q    Type
REMARK                         _______ _______ _______ _____ _____    ______ ____
ROOT
ATOM      1  C   UNL     1       4.817   1.891  -0.247  0.00  0.00    +0.190 A 
ATOM      2  C   UNL     1       6.061   2.469  -0.371  0.00  0.00    +0.055 A 
ATOM      3  C   UNL     1       6.985   1.422  -0.460  0.00  0.00    +0.050 A 
ATOM      4  C   UNL     1       6.277   0.256  -0.397  0.00  0.00    +0.136 A 
ATOM      5  O   UNL     1       4.973   0.551  -0.269  0.00  0.00    -0.450 OA
ENDROOT
BRANCH   4   6
ATOM      6  C   UNL     1       6.851  -1.103  -0.459  0.00  0.00    +0.017 A 
ATOM      7  C   UNL     1       8.229  -1.277  -0.600  0.00  0.00    +0.014 A 
ATOM      8  C   UNL     1       8.758  -2.550  -0.653  0.00  0.00    +0.033 A 
ATOM      9  C   UNL     1       7.926  -3.653  -0.577  0.00  0.00    +0.126 A 
ATOM     10  C   UNL     1       6.559  -3.487  -0.443  0.00  0.00    +0.033 A 
ATOM     11  C   UNL     1       6.016  -2.221  -0.384  0.00  0.00    +0.014 A 
BRANCH   9  12
ATOM     12  N   UNL     1       8.501  -5.015  -0.640  0.00  0.00    +0.056 N 
ATOM     13  O   UNL     1       7.771  -5.988  -0.574  0.00  0.00    -0.126 OA
ATOM     14  O   UNL     1       9.704  -5.164  -0.757  0.00  0.00    -0.126 OA
ENDBRANCH   9  12
ENDBRANCH   4   6
BRANCH   1  16
ATOM     15  N   UNL     1       2.392   1.919  -0.011  0.00  0.00    -0.278 N 
ATOM     16  C   UNL     1       3.545   2.607  -0.120  0.00  0.00    +0.284 C 
ATOM     17  O   UNL     1       3.530   3.825  -0.113  0.00  0.00    -0.266 OA
ATOM     18  H   UNL     1       2.409   0.952   0.064  0.00  0.00    +0.155 HD
BRANCH  15  23
ATOM     19  C   UNL     1      -0.145   4.514  -0.600  0.00  0.00    +0.002 A 
ATOM     20  C   UNL     1      -1.250   3.942   0.003  0.00  0.00    +0.001 A 
ATOM     21  C   UNL     1      -1.151   2.697   0.596  0.00  0.00    +0.017 A 
ATOM     22  C   UNL     1       0.057   2.026   0.599  0.00  0.00    +0.039 A 
ATOM     23  C   UNL     1       1.169   2.598  -0.006  0.00  0.00    +0.048 A 
ATOM     24  C   UNL     1       1.064   3.846  -0.606  0.00  0.00    +0.024 A 
ATOM     25 BR   UNL     1       0.194   0.327   1.418  0.00  0.00    -0.048 Br
ENDBRANCH  15  23
ENDBRANCH   1  16
TORSDOF 4
