REMARK  Name = ZINC40131238
REMARK  6 active torsions:
REMARK  status: ('A' for Active; 'I' for Inactive)
REMARK    1  A    between atoms: C_1  and  N_2
REMARK    2  A    between atoms: N_2  and  C_3
REMARK    3  A    between atoms: C_10  and  C_13
REMARK    4  A    between atoms: C_18  and  C_21
REMARK    5  A    between atoms: C_24  and  O_28
REMARK    6  A    between atoms: O_28  and  C_29
REMARK                            x       y       z     vdW  Elec       q    Type
REMARK                         _______ _______ _______ _____ _____    ______ ____
ROOT
ATOM      1  C   UNL     1      -3.636  -4.655   1.117  0.00  0.00    +0.223 C 
ATOM      2  O   UNL     1      -3.478  -5.857   1.122  0.00  0.00    -0.275 OA
ATOM      3  N   UNL     1      -4.874  -4.138   0.985  0.00  0.00    -0.264 N 
ATOM      4  C   UNL     1      -5.969  -4.983   0.856  0.00  0.00    +0.165 A 
ATOM      5  N   UNL     1      -7.246  -4.680   0.712  0.00  0.00    -0.225 NA
ATOM      6  C   UNL     1      -8.168  -5.623   0.601  0.00  0.00    +0.080 A 
ATOM      7  C   UNL     1      -7.792  -6.937   0.635  0.00  0.00    +0.076 A 
ATOM      8  S   UNL     1      -6.022  -6.770   0.831  0.00  0.00    -0.060 S 
ATOM      9  H   UNL     1      -5.000  -3.176   0.981  0.00  0.00    +0.157 HD
ENDROOT
BRANCH   1  19
ATOM     10  C   UNL     1       0.004   1.435  -0.153  0.00  0.00    +0.133 C 
ATOM     11  N   UNL     1      -0.020  -0.024  -0.284  0.00  0.00    -0.292 N 
ATOM     12  C   UNL     1       1.181  -0.739  -0.723  0.00  0.00    +0.133 C 
ATOM     13  C   UNL     1      -1.146  -0.708  -0.000  0.00  0.00    +0.304 C 
ATOM     14  O   UNL     1      -2.196  -0.113   0.154  0.00  0.00    -0.252 OA
ATOM     15  N   UNL     1      -1.109  -2.050   0.113  0.00  0.00    -0.285 N 
ATOM     16  C   UNL     1       0.166  -2.748   0.332  0.00  0.00    +0.109 C 
ATOM     17  C   UNL     1       0.031  -3.643   1.567  0.00  0.00    +0.020 C 
ATOM     18  C   UNL     1      -1.172  -4.573   1.390  0.00  0.00    +0.016 C 
ATOM     19  C   UNL     1      -2.448  -3.738   1.258  0.00  0.00    +0.093 C 
ATOM     20  C   UNL     1      -2.342  -2.843   0.025  0.00  0.00    +0.122 C 
ENDBRANCH   1  19
BRANCH   6  21
ATOM     21  C   UNL     1      -9.597  -5.258   0.441  0.00  0.00    +0.003 A 
ATOM     22  C   UNL     1     -10.565  -6.255   0.330  0.00  0.00    +0.014 A 
ATOM     23  C   UNL     1     -11.893  -5.913   0.181  0.00  0.00    +0.048 A 
ATOM     24  C   UNL     1     -12.266  -4.577   0.141  0.00  0.00    +0.138 A 
ATOM     25  C   UNL     1     -11.305  -3.581   0.251  0.00  0.00    +0.083 A 
ATOM     26  C   UNL     1      -9.975  -3.917   0.406  0.00  0.00    +0.033 A 
ATOM     27 CL   UNL     1     -11.777  -1.911   0.199  0.00  0.00    -0.080 Cl
BRANCH  24  28
ATOM     28  O   UNL     1     -13.576  -4.243  -0.006  0.00  0.00    -0.494 OA
ATOM     29  C   UNL     1     -14.511  -5.318  -0.113  0.00  0.00    +0.277 C 
ENDBRANCH  24  28
ENDBRANCH   6  21
TORSDOF 3
