REMARK  Name = ZINC36704480
REMARK  6 active torsions:
REMARK  status: ('A' for Active; 'I' for Inactive)
REMARK    1  A    between atoms: C_1  and  C_2
REMARK    2  A    between atoms: C_3  and  C_19
REMARK    3  A    between atoms: C_4  and  C_15
REMARK    4  A    between atoms: N_6  and  C_7
REMARK    5  A    between atoms: N_12  and  C_14
REMARK    6  A    between atoms: N_21  and  C_22
REMARK                            x       y       z     vdW  Elec       q    Type
REMARK                         _______ _______ _______ _____ _____    ______ ____
ROOT
ATOM      1  C   UNL     1      -0.018   1.503   0.010  0.00  0.00    +0.066 C 
ATOM      2  C   UNL     1       0.002  -0.004   0.002  0.00  0.00    +0.049 A 
ATOM      3  C   UNL     1       0.009  -0.815  -1.115  0.00  0.00    +0.089 A 
ATOM      4  C   UNL     1       0.029  -2.152  -0.660  0.00  0.00    +0.178 A 
ATOM      5  N   UNL     1       0.034  -2.134   0.645  0.00  0.00    -0.166 NA
ATOM      6  N   UNL     1       0.023  -0.804   1.080  0.00  0.00    -0.266 N 
ENDROOT
BRANCH   6   7
ATOM      7  C   UNL     1       0.030  -0.360   2.476  0.00  0.00    +0.091 C 
ATOM      8  C   UNL     1      -1.205  -0.912   3.194  0.00  0.00    +0.023 C 
ATOM      9  C   UNL     1      -1.148  -0.508   4.670  0.00  0.00    -0.017 C 
ATOM     10  C   UNL     1       0.157  -1.020   5.284  0.00  0.00    -0.079 C 
ATOM     11  N   UNL     1       1.299  -0.437   4.570  0.00  0.00    +0.379 N 
ATOM     12  C   UNL     1       1.292  -0.877   3.170  0.00  0.00    -0.052 C 
ATOM     13  C   UNL     1       2.548  -0.870   5.212  0.00  0.00    -0.096 C 
ATOM     14  H   UNL     1       1.237   0.570   4.605  0.00  0.00    -0.082 HD
ENDBRANCH   6   7
BRANCH   4  15
ATOM     15  C   UNL     1       0.043  -3.384  -1.528  0.00  0.00    +0.437 C 
ATOM     16  F   UNL     1       1.365  -3.746  -1.803  0.00  0.00    -0.164 F 
ATOM     17  F   UNL     1      -0.600  -4.432  -0.861  0.00  0.00    -0.164 F 
ATOM     18  F   UNL     1      -0.626  -3.115  -2.728  0.00  0.00    -0.164 F 
ENDBRANCH   4  15
BRANCH   3  19
ATOM     19  C   UNL     1      -0.004  -0.369  -2.520  0.00  0.00    +0.248 C 
ATOM     20  O   UNL     1       1.044  -0.170  -3.104  0.00  0.00    -0.270 OA
ATOM     21  N   UNL     1      -1.177  -0.182  -3.157  0.00  0.00    -0.308 N 
ATOM     22  H   UNL     1      -2.013  -0.341  -2.691  0.00  0.00    +0.149 HD
BRANCH  21  23
ATOM     23  C   UNL     1      -1.189   0.261  -4.554  0.00  0.00    +0.073 C 
ATOM     24  C   UNL     1      -1.085   1.787  -4.606  0.00  0.00    +0.022 C 
ATOM     25  C   UNL     1      -1.099   2.249  -6.064  0.00  0.00    +0.002 C 
ATOM     26  C   UNL     1      -2.403   1.804  -6.729  0.00  0.00    +0.000 C 
ATOM     27  C   UNL     1      -2.507   0.279  -6.677  0.00  0.00    +0.002 C 
ATOM     28  C   UNL     1      -2.494  -0.184  -5.218  0.00  0.00    +0.022 C 
ENDBRANCH  21  23
ENDBRANCH   3  19
TORSDOF 4
