REMARK  Name = ZINC12878551
REMARK  7 active torsions:
REMARK  status: ('A' for Active; 'I' for Inactive)
REMARK    1  A    between atoms: C_1  and  C_2
REMARK    2  A    between atoms: N_4  and  C_5
REMARK    3  A    between atoms: C_14  and  C_17
REMARK    4  A    between atoms: N_19  and  C_20
REMARK    5  A    between atoms: N_19  and  C_21
REMARK    6  A    between atoms: C_21  and  C_22
REMARK    7  A    between atoms: N_24  and  C_25
REMARK                            x       y       z     vdW  Elec       q    Type
REMARK                         _______ _______ _______ _____ _____    ______ ____
ROOT
ATOM      1  C   UNL     1      -3.918  -4.798  -0.042  0.00  0.00    +0.222 C 
ATOM      2  O   UNL     1      -4.840  -4.041   0.182  0.00  0.00    -0.275 OA
ATOM      3  N   UNL     1      -4.157  -6.108  -0.247  0.00  0.00    -0.295 N 
ATOM      4  C   UNL     1      -3.038  -7.042  -0.393  0.00  0.00    +0.132 C 
ENDROOT
BRANCH   1  12
ATOM      5  C   UNL     1      -1.071  -2.250   0.213  0.00  0.00    +0.036 C 
ATOM      6  C   UNL     1      -0.506  -2.439  -1.196  0.00  0.00    +0.029 C 
ATOM      7  C   UNL     1      -0.509  -3.927  -1.552  0.00  0.00    -0.008 C 
ATOM      8  C   UNL     1       0.356  -4.693  -0.548  0.00  0.00    +0.007 C 
ATOM      9  C   UNL     1      -0.209  -4.504   0.861  0.00  0.00    -0.008 C 
ATOM     10  C   UNL     1      -0.206  -3.015   1.216  0.00  0.00    +0.029 C 
ATOM     11  C   UNL     1      -1.642  -5.037   0.911  0.00  0.00    +0.020 C 
ATOM     12  C   UNL     1      -2.507  -4.272  -0.092  0.00  0.00    +0.050 C 
ATOM     13  C   UNL     1      -1.942  -4.461  -1.501  0.00  0.00    +0.020 C 
ATOM     14  C   UNL     1      -2.504  -2.784   0.263  0.00  0.00    +0.042 C 
BRANCH   5  18
ATOM     15  C   UNL     1       0.094   1.327   0.923  0.00  0.00    +0.109 C 
ATOM     16  C   UNL     1       0.091  -0.139   0.573  0.00  0.00    +0.210 C 
ATOM     17  O   UNL     1       1.133  -0.702   0.309  0.00  0.00    -0.276 OA
ATOM     18  N   UNL     1      -1.069  -0.825   0.553  0.00  0.00    -0.310 N 
ATOM     19  H   UNL     1      -1.902  -0.375   0.764  0.00  0.00    +0.149 HD
ENDBRANCH   5  18
ENDBRANCH   1  12
BRANCH   3  20
ATOM     20  C   UNL     1      -5.535  -6.599  -0.324  0.00  0.00    +0.203 C 
BRANCH  20  21
ATOM     21  C   UNL     1      -6.008  -6.547  -1.754  0.00  0.00    +0.235 C 
ATOM     22  O   UNL     1      -5.267  -6.141  -2.623  0.00  0.00    -0.274 OA
ATOM     23  N   UNL     1      -7.255  -6.953  -2.066  0.00  0.00    -0.283 N 
ATOM     24  H   UNL     1      -7.827  -7.333  -1.382  0.00  0.00    +0.155 HD
BRANCH  23  25
ATOM     25  C   UNL     1      -7.724  -6.825  -3.379  0.00  0.00    +0.052 A 
ATOM     26  C   UNL     1      -6.849  -6.968  -4.448  0.00  0.00    +0.025 A 
ATOM     27  C   UNL     1      -7.315  -6.842  -5.742  0.00  0.00    +0.002 A 
ATOM     28  C   UNL     1      -8.651  -6.572  -5.974  0.00  0.00    +0.002 A 
ATOM     29  C   UNL     1      -9.526  -6.429  -4.913  0.00  0.00    +0.022 A 
ATOM     30  C   UNL     1      -9.067  -6.560  -3.616  0.00  0.00    +0.062 A 
ATOM     31 CL   UNL     1     -10.167  -6.387  -2.284  0.00  0.00    -0.082 Cl
ENDBRANCH  23  25
ENDBRANCH  20  21
ENDBRANCH   3  20
TORSDOF 5
