REMARK  Name = ZINC09056668
REMARK  7 active torsions:
REMARK  status: ('A' for Active; 'I' for Inactive)
REMARK    1  A    between atoms: C_1  and  C_2
REMARK    2  A    between atoms: C_3  and  C_28
REMARK    3  A    between atoms: C_7  and  S_16
REMARK    4  A    between atoms: C_9  and  C_11
REMARK    5  A    between atoms: C_11  and  N_56
REMARK    6  A    between atoms: S_16  and  C_17
REMARK    7  A    between atoms: C_20  and  C_22
REMARK                            x       y       z     vdW  Elec       q    Type
REMARK                         _______ _______ _______ _____ _____    ______ ____
ROOT
ATOM      1  C   UNL     1       0.947  -5.086   0.469  0.00  0.00    +0.045 C 
ATOM      2  C   UNL     1      -0.099  -4.167  -0.110  0.00  0.00    -0.029 A 
ATOM      3  C   UNL     1      -1.279  -4.656  -0.520  0.00  0.00    -0.008 A 
ATOM      4  S   UNL     1      -2.145  -3.212  -1.107  0.00  0.00    -0.074 S 
ATOM      5  C   UNL     1      -0.899  -1.992  -0.786  0.00  0.00    +0.113 A 
ATOM      6  C   UNL     1       0.160  -2.744  -0.229  0.00  0.00    +0.043 A 
ATOM      7  C   UNL     1       1.315  -1.995   0.130  0.00  0.00    +0.118 A 
ATOM      8  N   UNL     1       1.327  -0.688  -0.080  0.00  0.00    -0.227 NA
ATOM      9  C   UNL     1       0.296  -0.049  -0.602  0.00  0.00    +0.115 A 
ATOM     10  N   UNL     1      -0.803  -0.689  -0.954  0.00  0.00    -0.227 NA
ATOM     11  C   UNL     1      -1.758  -6.084  -0.490  0.00  0.00    +0.052 C 
ENDROOT
BRANCH   9  12
ATOM     12  C   UNL     1       0.379   1.442  -0.805  0.00  0.00    -0.001 C 
BRANCH  12  17
ATOM     13  C   UNL     1       0.571   1.632   1.615  0.00  0.00    -0.078 C 
ATOM     14  C   UNL     1       0.338   2.770   2.640  0.00  0.00    -0.020 C 
ATOM     15  C   UNL     1       0.449   4.045   1.773  0.00  0.00    -0.020 C 
ATOM     16  C   UNL     1       0.166   3.578   0.333  0.00  0.00    -0.078 C 
ATOM     17  N   UNL     1      -0.115   2.144   0.418  0.00  0.00    +0.384 N 
ATOM     18  H   UNL     1      -1.127   1.994   0.507  0.00  0.00    -0.081 HD
ENDBRANCH  12  17
ENDBRANCH   9  12
BRANCH   7  19
ATOM     19  S   UNL     1       2.715  -2.799   0.836  0.00  0.00    -0.009 S 
BRANCH  19  20
ATOM     20  C   UNL     1       3.782  -1.415   1.058  0.00  0.00    +0.283 A 
ATOM     21  N   UNL     1       3.515  -0.169   0.750  0.00  0.00    -0.101 NA
ATOM     22  N   UNL     1       4.524   0.570   1.050  0.00  0.00    -0.111 NA
ATOM     23  C   UNL     1       5.468  -0.168   1.558  0.00  0.00    +0.221 A 
ATOM     24  O   UNL     1       5.023  -1.439   1.581  0.00  0.00    -0.415 OA
BRANCH  23  25
ATOM     25  C   UNL     1       6.813   0.313   2.038  0.00  0.00    +0.077 C 
ATOM     26  C   UNL     1       6.618   1.332   3.162  0.00  0.00    +0.013 C 
ATOM     27  C   UNL     1       7.984   1.821   3.650  0.00  0.00    +0.001 C 
ATOM     28  C   UNL     1       8.735   2.478   2.490  0.00  0.00    +0.000 C 
ATOM     29  C   UNL     1       8.929   1.458   1.366  0.00  0.00    +0.001 C 
ATOM     30  C   UNL     1       7.564   0.970   0.878  0.00  0.00    +0.013 C 
ENDBRANCH  23  25
ENDBRANCH  19  20
ENDBRANCH   7  19
TORSDOF 5
