REMARK  Name = ZINC63753163
REMARK  7 active torsions:
REMARK  status: ('A' for Active; 'I' for Inactive)
REMARK    1  A    between atoms: C_1  and  C_2
REMARK    2  A    between atoms: C_9  and  C_12
REMARK    3  A    between atoms: C_15  and  N_18
REMARK    4  A    between atoms: N_18  and  S_19
REMARK    5  A    between atoms: S_19  and  C_22
REMARK    6  A    between atoms: C_23  and  C_29
REMARK    7  A    between atoms: C_26  and  C_28
REMARK                            x       y       z     vdW  Elec       q    Type
REMARK                         _______ _______ _______ _____ _____    ______ ____
ROOT
ATOM      1  C   UNL     1       1.325  -5.619   1.625  0.00  0.00    -0.017 A 
ATOM      2  C   UNL     1       2.461  -5.347   0.884  0.00  0.00    +0.008 A 
ATOM      3  C   UNL     1       3.611  -6.085   1.085  0.00  0.00    +0.027 A 
ATOM      4  C   UNL     1       3.627  -7.100   2.032  0.00  0.00    +0.074 A 
ATOM      5  C   UNL     1       2.484  -7.370   2.775  0.00  0.00    +0.027 A 
ATOM      6  C   UNL     1       1.339  -6.625   2.573  0.00  0.00    +0.008 A 
ENDROOT
BRANCH   1  15
ATOM      7  C   UNL     1      -0.018   1.503   0.010  0.00  0.00    +0.044 C 
ATOM      8  C   UNL     1       0.002  -0.004   0.002  0.00  0.00    -0.049 A 
ATOM      9  C   UNL     1       0.006  -0.700  -1.193  0.00  0.00    +0.005 A 
ATOM     10  C   UNL     1       0.025  -2.075  -1.215  0.00  0.00    +0.024 A 
ATOM     11  C   UNL     1       0.040  -2.822  -0.023  0.00  0.00    +0.042 A 
ATOM     12  C   UNL     1       0.035  -2.090   1.168  0.00  0.00    +0.031 A 
ATOM     13  C   UNL     1       0.023  -0.714   1.191  0.00  0.00    +0.020 A 
ATOM     14  S   UNL     1       0.057  -3.310   2.462  0.00  0.00    -0.096 S 
ATOM     15  C   UNL     1       0.072  -4.811   1.404  0.00  0.00    +0.164 C 
ATOM     16  N   UNL     1       0.059  -4.213   0.062  0.00  0.00    -0.327 N 
ATOM     17  H   UNL     1       0.062  -4.766  -0.735  0.00  0.00    +0.147 HD
ENDBRANCH   1  15
BRANCH   4  18
ATOM     18  N   UNL     1       4.788  -7.849   2.237  0.00  0.00    -0.098 NA
BRANCH  18  19
ATOM     19  S   UNL     1       4.804  -9.059   3.368  0.00  0.00    +0.092 S 
ATOM     20  O   UNL     1       4.654  -8.434   4.635  0.00  0.00    -0.149 OA
ATOM     21  O   UNL     1       3.911 -10.062   2.902  0.00  0.00    -0.149 OA
BRANCH  19  22
ATOM     22  C   UNL     1       6.416  -9.771   3.345  0.00  0.00    +0.136 C 
ATOM     23  C   UNL     1       6.792 -10.938   2.819  0.00  0.00    +0.085 C 
ATOM     24  N   UNL     1       8.116 -11.142   2.999  0.00  0.00    -0.157 NA
ATOM     25  N   UNL     1       8.697 -10.233   3.598  0.00  0.00    -0.178 NA
ATOM     26  C   UNL     1       7.700  -9.196   3.915  0.00  0.00    +0.176 C 
ATOM     27  C   UNL     1       7.584  -9.006   5.429  0.00  0.00    +0.041 C 
ATOM     28  C   UNL     1       5.866 -11.899   2.118  0.00  0.00    +0.069 C 
ENDBRANCH  19  22
ENDBRANCH  18  19
ENDBRANCH   4  18
TORSDOF 4
