REMARK  Name = ZINC01562946
REMARK  3 active torsions:
REMARK  status: ('A' for Active; 'I' for Inactive)
REMARK    1  A    between atoms: C_1  and  C_2
REMARK    2  A    between atoms: C_2  and  C_3
REMARK    3  A    between atoms: C_3  and  N_4
REMARK                            x       y       z     vdW  Elec       q    Type
REMARK                         _______ _______ _______ _____ _____    ______ ____
ROOT
ATOM      1  N   UNL     1      -2.504   3.774   0.046  0.00  0.00    -0.325 N 
ATOM      2  C   UNL     1      -2.574   5.151   0.053  0.00  0.00    +0.051 A 
ATOM      3  C   UNL     1      -3.817   5.782   0.068  0.00  0.00    +0.026 A 
ATOM      4  C   UNL     1      -3.889   7.157   0.075  0.00  0.00    +0.002 A 
ATOM      5  C   UNL     1      -2.733   7.928   0.069  0.00  0.00    +0.001 A 
ATOM      6  C   UNL     1      -1.504   7.337   0.054  0.00  0.00    +0.010 A 
ATOM      7  C   UNL     1      -1.403   5.935   0.046  0.00  0.00    -0.001 A 
ATOM      8  C   UNL     1      -0.130   5.316   0.032  0.00  0.00    +0.027 A 
ATOM      9  C   UNL     1      -0.063   3.938   0.024  0.00  0.00    +0.083 A 
ATOM     10  C   UNL     1       1.217   3.212   0.008  0.00  0.00    +0.263 A 
ATOM     11  O   UNL     1       2.281   3.803   0.000  0.00  0.00    -0.267 OA
ATOM     12  N   UNL     1       1.161   1.860   0.001  0.00  0.00    -0.273 N 
ATOM     13  H   UNL     1       2.011   1.332  -0.010  0.00  0.00    +0.174 HD
ATOM     14  C   UNL     1      -0.015   1.215   0.009  0.00  0.00    +0.350 A 
ATOM     15  O   UNL     1       0.002  -0.004   0.002  0.00  0.00    -0.245 OA
ATOM     16  N   UNL     1      -1.197   1.822   0.018  0.00  0.00    -0.175 NA
ATOM     17  C   UNL     1      -1.297   3.144   0.031  0.00  0.00    +0.152 A 
ENDROOT
BRANCH   1  18
ATOM     18  C   UNL     1      -3.737   2.983   0.054  0.00  0.00    +0.123 C 
BRANCH  18  20
ATOM     19  C   UNL     1      -5.441   1.875   1.507  0.00  0.00    +0.005 C 
ATOM     20  C   UNL     1      -4.153   2.701   1.499  0.00  0.00    +0.018 C 
ENDBRANCH  18  20
ENDBRANCH   1  18
TORSDOF 2
