REMARK  Name = ZINC04814484
REMARK  3 active torsions:
REMARK  status: ('A' for Active; 'I' for Inactive)
REMARK    1  A    between atoms: C_3  and  C_11
REMARK    2  A    between atoms: C_6  and  N_7
REMARK    3  A    between atoms: N_13  and  C_14
REMARK                            x       y       z     vdW  Elec       q    Type
REMARK                         _______ _______ _______ _____ _____    ______ ____
ROOT
ATOM      1  C   UNL     1      -1.242   5.902  -0.058  0.00  0.00    +0.250 C 
ATOM      2  O   UNL     1      -2.288   5.284  -0.050  0.00  0.00    -0.270 OA
ATOM      3  N   UNL     1      -0.069   5.244   0.029  0.00  0.00    -0.281 N 
ATOM      4  H   UNL     1       0.761   5.740   0.101  0.00  0.00    +0.155 HD
ENDROOT
BRANCH   3   5
ATOM      5  C   UNL     1      -0.050   3.846   0.017  0.00  0.00    +0.039 A 
ATOM      6  C   UNL     1      -0.988   3.144  -0.728  0.00  0.00    +0.061 A 
ATOM      7  C   UNL     1      -0.968   1.761  -0.739  0.00  0.00    +0.128 A 
ATOM      8  C   UNL     1      -0.012   1.076  -0.007  0.00  0.00    +0.076 A 
ATOM      9  C   UNL     1       0.921   1.774   0.741  0.00  0.00    +0.128 A 
ATOM     10  C   UNL     1       0.908   3.157   0.749  0.00  0.00    +0.061 A 
ATOM     11  F   UNL     1       1.849   1.103   1.458  0.00  0.00    -0.205 F 
ATOM     12  F   UNL     1      -1.880   1.078  -1.464  0.00  0.00    -0.205 F 
ENDBRANCH   3   5
BRANCH   1  15
ATOM     13  C   UNL     1      -0.076   9.465  -0.269  0.00  0.00    +0.033 A 
ATOM     14  C   UNL     1      -0.056   8.090  -0.170  0.00  0.00    +0.017 A 
ATOM     15  C   UNL     1      -1.256   7.376  -0.162  0.00  0.00    +0.055 A 
ATOM     16  C   UNL     1      -2.470   8.062  -0.258  0.00  0.00    +0.055 A 
ATOM     17  C   UNL     1      -2.474   9.440  -0.350  0.00  0.00    +0.053 A 
ATOM     18  C   UNL     1      -1.281  10.139  -0.358  0.00  0.00    +0.128 A 
ATOM     19 CL   UNL     1      -3.967   7.184  -0.255  0.00  0.00    -0.083 Cl
BRANCH  18  20
ATOM     20  N   UNL     1      -1.294  11.616  -0.464  0.00  0.00    +0.056 N 
ATOM     21  O   UNL     1      -0.245  12.234  -0.471  0.00  0.00    -0.126 OA
ATOM     22  O   UNL     1      -2.353  12.211  -0.543  0.00  0.00    -0.126 OA
ENDBRANCH  18  20
ENDBRANCH   1  15
TORSDOF 3
