REMARK  Name = ZINC06696241
REMARK  9 active torsions:
REMARK  status: ('A' for Active; 'I' for Inactive)
REMARK    1  A    between atoms: C_1  and  C_2
REMARK    2  A    between atoms: C_2  and  C_3
REMARK    3  A    between atoms: C_2  and  C_4
REMARK    4  A    between atoms: C_2  and  N_5
REMARK    5  A    between atoms: N_8  and  C_9
REMARK    6  A    between atoms: N_8  and  C_17
REMARK    7  A    between atoms: C_9  and  C_10
REMARK    8  A    between atoms: C_17  and  C_18
REMARK    9  A    between atoms: C_21  and  C_24
REMARK                            x       y       z     vdW  Elec       q    Type
REMARK                         _______ _______ _______ _____ _____    ______ ____
ROOT
ATOM      1  N   UNL     1       2.822   5.551  -3.283  0.00  0.00    -0.294 N 
ATOM      2  C   UNL     1       2.448   5.314  -2.010  0.00  0.00    +0.303 C 
ATOM      3  O   UNL     1       1.742   6.113  -1.425  0.00  0.00    -0.253 OA
ATOM      4  N   UNL     1       2.858   4.193  -1.384  0.00  0.00    -0.278 N 
ATOM      5  H   UNL     1       3.386   4.914  -3.749  0.00  0.00    +0.151 HD
ENDROOT
BRANCH   1   7
ATOM      6  C   UNL     1       2.881   7.994  -3.196  0.00  0.00    +0.031 C 
ATOM      7  C   UNL     1       2.377   6.770  -3.962  0.00  0.00    +0.028 C 
ATOM      8  C   UNL     1       2.938   6.793  -5.386  0.00  0.00    +0.031 C 
ATOM      9  C   UNL     1       0.848   6.795  -4.016  0.00  0.00    +0.031 C 
ENDBRANCH   1   7
BRANCH   4  10
ATOM     10  C   UNL     1       2.451   3.936  -0.000  0.00  0.00    +0.144 C 
BRANCH  10  11
ATOM     11  C   UNL     1       1.156   3.166   0.008  0.00  0.00    -0.030 A 
ATOM     12  C   UNL     1       1.175   1.783   0.000  0.00  0.00    +0.008 A 
ATOM     13  C   UNL     1      -0.013   1.076   0.008  0.00  0.00    +0.038 A 
ATOM     14  C   UNL     1      -1.221   1.752   0.017  0.00  0.00    +0.123 A 
ATOM     15  C   UNL     1      -1.238   3.136   0.030  0.00  0.00    +0.038 A 
ATOM     16  C   UNL     1      -0.050   3.842   0.023  0.00  0.00    +0.008 A 
ATOM     17  F   UNL     1      -2.382   1.062   0.019  0.00  0.00    -0.205 F 
ENDBRANCH  10  11
ENDBRANCH   4  10
BRANCH   4  18
ATOM     18  C   UNL     1       3.710   3.231  -2.088  0.00  0.00    +0.157 C 
BRANCH  18  19
ATOM     19  C   UNL     1       2.833   2.204  -2.806  0.00  0.00    +0.227 C 
ATOM     20  C   UNL     1       3.696   1.098  -3.459  0.00  0.00    +0.108 C 
ATOM     21  C   UNL     1       2.961   0.828  -4.758  0.00  0.00    +0.091 C 
ATOM     22  N   UNL     1       2.140   1.802  -4.968  0.00  0.00    -0.089 NA
ATOM     23  O   UNL     1       2.188   2.789  -3.956  0.00  0.00    -0.388 OA
BRANCH  21  24
ATOM     24  C   UNL     1       3.151  -0.346  -5.632  0.00  0.00    -0.000 A 
ATOM     25  C   UNL     1       4.081  -1.331  -5.291  0.00  0.00    +0.011 A 
ATOM     26  C   UNL     1       4.251  -2.428  -6.109  0.00  0.00    +0.020 A 
ATOM     27  C   UNL     1       3.509  -2.549  -7.272  0.00  0.00    +0.041 A 
ATOM     28  C   UNL     1       2.589  -1.573  -7.619  0.00  0.00    +0.020 A 
ATOM     29  C   UNL     1       2.406  -0.474  -6.806  0.00  0.00    +0.011 A 
ATOM     30 CL   UNL     1       3.733  -3.929  -8.300  0.00  0.00    -0.084 Cl
ENDBRANCH  21  24
ENDBRANCH  18  19
ENDBRANCH   4  18
TORSDOF 6
