REMARK  Name = ZINC12736356
REMARK  3 active torsions:
REMARK  status: ('A' for Active; 'I' for Inactive)
REMARK    1  A    between atoms: C_1  and  C_2
REMARK    2  A    between atoms: C_7  and  N_8
REMARK    3  A    between atoms: C_9  and  C_11
REMARK                            x       y       z     vdW  Elec       q    Type
REMARK                         _______ _______ _______ _____ _____    ______ ____
ROOT
ATOM      1  N   UNL     1      -2.428   1.040   0.019  0.00  0.00    -0.281 N 
ATOM      2  C   UNL     1      -2.414  -0.304  -0.091  0.00  0.00    +0.248 C 
ATOM      3  O   UNL     1      -1.355  -0.902  -0.099  0.00  0.00    -0.270 OA
ATOM      4  H   UNL     1      -3.271   1.510   0.106  0.00  0.00    +0.155 HD
ENDROOT
BRANCH   2   5
ATOM      5  C   UNL     1      -3.683  -1.048  -0.201  0.00  0.00    +0.041 A 
ATOM      6  C   UNL     1      -4.900  -0.361  -0.191  0.00  0.00    +0.015 A 
ATOM      7  C   UNL     1      -6.086  -1.056  -0.294  0.00  0.00    +0.028 A 
ATOM      8  C   UNL     1      -6.073  -2.439  -0.407  0.00  0.00    +0.076 A 
ATOM      9  C   UNL     1      -4.860  -3.132  -0.417  0.00  0.00    +0.143 A 
ATOM     10  C   UNL     1      -3.669  -2.441  -0.320  0.00  0.00    +0.060 A 
ATOM     11  O   UNL     1      -4.865  -4.488  -0.527  0.00  0.00    -0.481 OA
ATOM     12  C   UNL     1      -5.967  -5.176   0.069  0.00  0.00    +0.325 C 
ATOM     13  C   UNL     1      -7.255  -4.490  -0.306  0.00  0.00    +0.255 C 
ATOM     14  O   UNL     1      -8.277  -5.133  -0.421  0.00  0.00    -0.272 OA
ATOM     15  N   UNL     1      -7.268  -3.155  -0.513  0.00  0.00    -0.280 N 
ATOM     16  H   UNL     1      -8.096  -2.700  -0.731  0.00  0.00    +0.155 HD
ENDBRANCH   2   5
BRANCH   1  23
ATOM     17  C   UNL     1      -2.365   3.583   1.291  0.00  0.00    +0.046 C 
ATOM     18  C   UNL     1      -1.151   3.001   0.615  0.00  0.00    -0.027 A 
ATOM     19  C   UNL     1       0.036   3.708   0.597  0.00  0.00    +0.043 A 
ATOM     20  C   UNL     1       1.152   3.173  -0.024  0.00  0.00    +0.124 A 
ATOM     21  C   UNL     1       1.081   1.929  -0.627  0.00  0.00    +0.040 A 
ATOM     22  C   UNL     1      -0.103   1.218  -0.611  0.00  0.00    +0.026 A 
ATOM     23  C   UNL     1      -1.225   1.755   0.006  0.00  0.00    +0.037 A 
ATOM     24  F   UNL     1       2.311   3.867  -0.041  0.00  0.00    -0.205 F 
ENDBRANCH   1  23
TORSDOF 2
