REMARK  Name = ZINC16034482
REMARK  8 active torsions:
REMARK  status: ('A' for Active; 'I' for Inactive)
REMARK    1  A    between atoms: C_1  and  C_2
REMARK    2  A    between atoms: C_2  and  O_3
REMARK    3  A    between atoms: O_3  and  C_4
REMARK    4  A    between atoms: C_4  and  C_6
REMARK    5  A    between atoms: C_6  and  C_31
REMARK    6  A    between atoms: C_11  and  C_28
REMARK    7  A    between atoms: C_14  and  C_25
REMARK    8  A    between atoms: C_16  and  C_18
REMARK                            x       y       z     vdW  Elec       q    Type
REMARK                         _______ _______ _______ _____ _____    ______ ____
ROOT
ATOM      1  C   UNL     1       2.560   5.494   1.261  0.00  0.00    +0.184 C 
ATOM      2  C   UNL     1       3.411   6.683   0.785  0.00  0.00    +0.128 C 
ATOM      3  C   UNL     1       4.835   6.553   1.262  0.00  0.00    -0.002 C 
ATOM      4  C   UNL     1       5.821   6.982   0.477  0.00  0.00    +0.012 C 
ATOM      5  C   UNL     1       5.543   7.584  -0.844  0.00  0.00    +0.050 C 
ATOM      6  C   UNL     1       4.317   7.370  -1.432  0.00  0.00    +0.084 C 
ATOM      7  N   UNL     1       3.439   6.632  -0.691  0.00  0.00    -0.314 N 
ATOM      8  C   UNL     1       2.456   5.644  -1.141  0.00  0.00    +0.169 C 
ATOM      9  C   UNL     1       2.442   4.593   0.003  0.00  0.00    +0.081 C 
ENDROOT
BRANCH   9  10
ATOM     10  C   UNL     1       1.148   3.822   0.011  0.00  0.00    -0.039 A 
ATOM     11  C   UNL     1      -0.059   4.497   0.026  0.00  0.00    +0.004 A 
ATOM     12  C   UNL     1      -1.247   3.789   0.034  0.00  0.00    +0.002 A 
ATOM     13  C   UNL     1      -1.228   2.407   0.021  0.00  0.00    +0.020 A 
ATOM     14  C   UNL     1      -0.021   1.732   0.012  0.00  0.00    +0.041 A 
ATOM     15  C   UNL     1       1.167   2.440   0.004  0.00  0.00    +0.024 A 
ATOM     16 CL   UNL     1       0.002  -0.004   0.002  0.00  0.00    -0.084 Cl
ENDBRANCH   9  10
BRANCH   8  17
ATOM     17  C   UNL     1       2.895   5.012  -2.437  0.00  0.00    +0.232 C 
ATOM     18  O   UNL     1       4.038   5.147  -2.821  0.00  0.00    -0.274 OA
ATOM     19  N   UNL     1       2.018   4.296  -3.168  0.00  0.00    -0.328 N 
ATOM     20  H   UNL     1       1.105   4.188  -2.861  0.00  0.00    +0.145 HD
ATOM     21  H   UNL     1       2.301   3.889  -4.002  0.00  0.00    +0.145 HD
ENDBRANCH   8  17
BRANCH   5  22
ATOM     22  C   UNL     1       6.559   8.399  -1.518  0.00  0.00    +0.243 C 
ATOM     23  O   UNL     1       6.321   8.892  -2.605  0.00  0.00    -0.270 OA
ATOM     24  N   UNL     1       7.756   8.603  -0.933  0.00  0.00    -0.325 N 
ATOM     25  H   UNL     1       7.946   8.211  -0.067  0.00  0.00    +0.145 HD
ATOM     26  H   UNL     1       8.428   9.142  -1.379  0.00  0.00    +0.145 HD
ENDBRANCH   5  22
BRANCH   1  27
ATOM     27  C   UNL     1       3.255   4.756   2.377  0.00  0.00    +0.330 C 
ATOM     28  O   UNL     1       3.629   3.620   2.208  0.00  0.00    -0.249 OA
BRANCH  27  29
ATOM     29  O   UNL     1       3.457   5.361   3.558  0.00  0.00    -0.464 OA
BRANCH  29  31
ATOM     30  C   UNL     1       4.272   5.439   5.851  0.00  0.00    +0.048 C 
ATOM     31  C   UNL     1       4.132   4.590   4.586  0.00  0.00    +0.229 C 
ENDBRANCH  29  31
ENDBRANCH  27  29
ENDBRANCH   1  27
BRANCH   1  32
ATOM     32  C   UNL     1       1.230   5.951   1.696  0.00  0.00    +0.084 C 
ATOM     33  N   UNL     1       0.203   6.304   2.031  0.00  0.00    -0.195 NA
ENDBRANCH   1  32
TORSDOF 7
