REMARK  Name = ZINC13138112
REMARK  8 active torsions:
REMARK  status: ('A' for Active; 'I' for Inactive)
REMARK    1  A    between atoms: C_1  and  C_2
REMARK    2  A    between atoms: C_4  and  C_32
REMARK    3  A    between atoms: C_5  and  C_31
REMARK    4  A    between atoms: C_6  and  S_9
REMARK    5  A    between atoms: C_7  and  C_8
REMARK    6  A    between atoms: S_9  and  N_12
REMARK    7  A    between atoms: C_18  and  C_20
REMARK    8  A    between atoms: C_20  and  N_21
REMARK                            x       y       z     vdW  Elec       q    Type
REMARK                         _______ _______ _______ _____ _____    ______ ____
ROOT
ATOM      1  N   UNL     1       7.514  -0.418  -2.021  0.00  0.00    -0.174 NA
ATOM      2  C   UNL     1       6.751  -0.846  -3.201  0.00  0.00    +0.128 C 
ATOM      3  C   UNL     1       5.883   0.326  -3.675  0.00  0.00    +0.125 C 
ATOM      4  N   UNL     1       5.155   0.870  -2.520  0.00  0.00    -0.297 N 
ATOM      5  C   UNL     1       5.920   1.303  -1.342  0.00  0.00    +0.125 C 
ATOM      6  C   UNL     1       6.787   0.126  -0.865  0.00  0.00    +0.128 C 
ATOM      7  C   UNL     1       3.812   0.974  -2.543  0.00  0.00    +0.236 C 
ATOM      8  O   UNL     1       3.192   0.618  -3.523  0.00  0.00    -0.274 OA
ENDROOT
BRANCH   1   9
ATOM      9  S   UNL     1       9.165  -0.545  -1.993  0.00  0.00    +0.061 S 
ATOM     10  O   UNL     1       9.538  -0.703  -0.631  0.00  0.00    -0.153 OA
ATOM     11  O   UNL     1       9.516  -1.491  -2.994  0.00  0.00    -0.153 OA
BRANCH   9  17
ATOM     12  C   UNL     1      11.341   4.097  -0.974  0.00  0.00    +0.044 C 
ATOM     13  C   UNL     1      10.811   3.120  -1.992  0.00  0.00    -0.045 A 
ATOM     14  C   UNL     1      10.836   3.442  -3.337  0.00  0.00    +0.007 A 
ATOM     15  C   UNL     1      10.351   2.546  -4.271  0.00  0.00    -0.045 A 
ATOM     16  C   UNL     1       9.840   1.328  -3.860  0.00  0.00    -0.021 A 
ATOM     17  C   UNL     1       9.816   1.007  -2.516  0.00  0.00    +0.112 A 
ATOM     18  C   UNL     1      10.297   1.905  -1.582  0.00  0.00    -0.021 A 
ATOM     19  C   UNL     1      10.264   1.557  -0.116  0.00  0.00    +0.046 C 
ATOM     20  C   UNL     1       9.311   0.351  -4.878  0.00  0.00    +0.046 C 
ATOM     21  C   UNL     1      10.378   2.896  -5.736  0.00  0.00    +0.044 C 
ENDBRANCH   9  17
ENDBRANCH   1   9
BRANCH   7  22
ATOM     22  C   UNL     1       3.079   1.533  -1.351  0.00  0.00    +0.224 C 
BRANCH  22  23
ATOM     23  N   UNL     1       1.640   1.542  -1.622  0.00  0.00    -0.265 N 
ATOM     24  C   UNL     1       0.917   2.582  -2.206  0.00  0.00    +0.091 A 
ATOM     25  C   UNL     1       1.268   3.834  -2.683  0.00  0.00    +0.030 A 
ATOM     26  C   UNL     1       0.301   4.661  -3.221  0.00  0.00    +0.002 A 
ATOM     27  C   UNL     1      -1.016   4.242  -3.283  0.00  0.00    +0.004 A 
ATOM     28  C   UNL     1      -1.375   2.997  -2.805  0.00  0.00    +0.048 A 
ATOM     29  C   UNL     1      -0.411   2.158  -2.269  0.00  0.00    +0.157 A 
ATOM     30  O   UNL     1      -0.461   0.911  -1.738  0.00  0.00    -0.407 OA
ATOM     31  C   UNL     1       0.772   0.547  -1.352  0.00  0.00    +0.422 A 
ATOM     32  O   UNL     1       1.060  -0.517  -0.838  0.00  0.00    -0.223 OA
ENDBRANCH  22  23
ENDBRANCH   7  22
TORSDOF 4
