REMARK  Name = ZINC04975216
REMARK  4 active torsions:
REMARK  status: ('A' for Active; 'I' for Inactive)
REMARK    1  A    between atoms: C_1  and  O_2
REMARK    2  A    between atoms: O_2  and  C_3
REMARK    3  A    between atoms: C_10  and  C_19
REMARK    4  A    between atoms: C_22  and  N_25
REMARK                            x       y       z     vdW  Elec       q    Type
REMARK                         _______ _______ _______ _____ _____    ______ ____
ROOT
ATOM      1  C   UNL     1       4.472   2.280   1.755  0.00  0.00    +0.141 A 
ATOM      2  C   UNL     1       4.854   0.960   1.885  0.00  0.00    +0.049 A 
ATOM      3  C   UNL     1       4.037  -0.051   1.412  0.00  0.00    +0.024 A 
ATOM      4  C   UNL     1       2.838   0.269   0.802  0.00  0.00    +0.047 A 
ATOM      5  C   UNL     1       2.450   1.587   0.662  0.00  0.00    +0.002 A 
ATOM      6  C   UNL     1       3.258   2.618   1.146  0.00  0.00    +0.075 A 
ATOM      7  N   UNL     1       2.929   3.972   1.069  0.00  0.00    -0.334 N 
ATOM      8  C   UNL     1       1.687   4.312   0.355  0.00  0.00    +0.105 C 
ATOM      9  C   UNL     1       0.673   3.241   0.732  0.00  0.00    +0.029 C 
ATOM     10  C   UNL     1       1.180   1.958   0.001  0.00  0.00    +0.050 C 
ATOM     11  C   UNL     1      -0.013   1.076   0.008  0.00  0.00    -0.023 C 
ATOM     12  C   UNL     1      -1.101   1.837   0.017  0.00  0.00    -0.030 C 
ATOM     13  C   UNL     1      -0.704   3.315   0.064  0.00  0.00    +0.033 C 
ATOM     14 CL   UNL     1       1.811  -0.997   0.206  0.00  0.00    -0.083 Cl
ATOM     15  H   UNL     1       3.706   4.514   0.721  0.00  0.00    +0.147 HD
ENDROOT
BRANCH   8  16
ATOM     16  C   UNL     1       1.195   5.666   0.796  0.00  0.00    -0.027 A 
ATOM     17  C   UNL     1       1.266   6.028   2.128  0.00  0.00    +0.008 A 
ATOM     18  C   UNL     1       0.819   7.272   2.532  0.00  0.00    +0.033 A 
ATOM     19  C   UNL     1       0.292   8.151   1.605  0.00  0.00    +0.126 A 
ATOM     20  C   UNL     1       0.215   7.787   0.273  0.00  0.00    +0.033 A 
ATOM     21  C   UNL     1       0.667   6.545  -0.131  0.00  0.00    +0.008 A 
BRANCH  19  22
ATOM     22  N   UNL     1      -0.191   9.482   2.038  0.00  0.00    +0.056 N 
ATOM     23  O   UNL     1      -0.655  10.256   1.220  0.00  0.00    -0.126 OA
ATOM     24  O   UNL     1      -0.124   9.802   3.211  0.00  0.00    -0.126 OA
ENDBRANCH  19  22
ENDBRANCH   8  16
BRANCH   1  26
ATOM     25  C   UNL     1       6.511   2.857   2.837  0.00  0.00    +0.277 C 
ATOM     26  O   UNL     1       5.285   3.264   2.225  0.00  0.00    -0.493 OA
ENDBRANCH   1  26
TORSDOF 3
