REMARK  Name = ZINC22791706
REMARK  8 active torsions:
REMARK  status: ('A' for Active; 'I' for Inactive)
REMARK    1  A    between atoms: C_1  and  C_2
REMARK    2  A    between atoms: C_2  and  C_4
REMARK    3  A    between atoms: C_2  and  N_16
REMARK    4  A    between atoms: N_6  and  C_7
REMARK    5  A    between atoms: N_6  and  C_8
REMARK    6  A    between atoms: N_19  and  C_22
REMARK    7  A    between atoms: C_22  and  C_23
REMARK    8  A    between atoms: C_22  and  C_30
REMARK                            x       y       z     vdW  Elec       q    Type
REMARK                         _______ _______ _______ _____ _____    ______ ____
ROOT
ATOM      1  N   UNL     1       4.081  -4.487  -0.442  0.00  0.00    +0.389 N 
ATOM      2  C   UNL     1       3.246  -4.723  -1.628  0.00  0.00    -0.062 C 
ATOM      3  C   UNL     1       3.977  -5.670  -2.583  0.00  0.00    +0.067 C 
ATOM      4  N   UNL     1       4.269  -6.932  -1.888  0.00  0.00    -0.295 NA
ATOM      5  C   UNL     1       5.104  -6.696  -0.702  0.00  0.00    +0.067 C 
ATOM      6  C   UNL     1       4.373  -5.748   0.253  0.00  0.00    -0.062 C 
ATOM      7  H   UNL     1       5.035  -4.056  -0.779  0.00  0.00    -0.081 HD
ENDROOT
BRANCH   1   9
ATOM      8  C   UNL     1       4.302  -3.364   1.723  0.00  0.00    -0.004 C 
ATOM      9  C   UNL     1       3.446  -3.521   0.465  0.00  0.00    +0.016 C 
BRANCH   9  10
ATOM     10  C   UNL     1       3.321  -2.188  -0.228  0.00  0.00    +0.202 C 
ATOM     11  O   UNL     1       4.115  -1.877  -1.090  0.00  0.00    -0.277 OA
ATOM     12  N   UNL     1       2.328  -1.343   0.111  0.00  0.00    -0.301 N 
ATOM     13  C   UNL     1       1.308  -1.762   1.076  0.00  0.00    +0.132 C 
BRANCH  12  14
ATOM     14  C   UNL     1       2.268  -0.007  -0.485  0.00  0.00    +0.098 C 
ATOM     15  C   UNL     1       2.361   1.052   0.627  0.00  0.00    +0.046 C 
ATOM     16  C   UNL     1       1.982   2.431   0.016  0.00  0.00    +0.168 C 
ATOM     17  S   UNL     1       0.569   1.945  -1.063  0.00  0.00    -0.029 S 
ATOM     18  O   UNL     1       0.710   2.584  -2.324  0.00  0.00    -0.174 OA
ATOM     19  O   UNL     1      -0.641   2.095  -0.334  0.00  0.00    -0.174 OA
ATOM     20  C   UNL     1       0.934   0.153  -1.255  0.00  0.00    +0.188 C 
ENDBRANCH  12  14
ENDBRANCH   9  10
ENDBRANCH   1   9
BRANCH   4  21
ATOM     21  C   UNL     1       4.904  -7.897  -2.795  0.00  0.00    +0.117 C 
BRANCH  21  22
ATOM     22  C   UNL     1       5.035  -9.228  -2.100  0.00  0.00    -0.026 A 
ATOM     23  C   UNL     1       3.971  -9.738  -1.379  0.00  0.00    +0.008 A 
ATOM     24  C   UNL     1       4.089 -10.961  -0.745  0.00  0.00    +0.038 A 
ATOM     25  C   UNL     1       5.275 -11.670  -0.824  0.00  0.00    +0.123 A 
ATOM     26  C   UNL     1       6.341 -11.156  -1.542  0.00  0.00    +0.038 A 
ATOM     27  C   UNL     1       6.220  -9.935  -2.179  0.00  0.00    +0.008 A 
ATOM     28  F   UNL     1       5.393 -12.863  -0.201  0.00  0.00    -0.205 F 
ENDBRANCH  21  22
BRANCH  21  29
ATOM     29  C   UNL     1       4.057  -8.057  -4.031  0.00  0.00    -0.026 A 
ATOM     30  C   UNL     1       2.684  -8.175  -3.918  0.00  0.00    +0.008 A 
ATOM     31  C   UNL     1       1.907  -8.317  -5.051  0.00  0.00    +0.038 A 
ATOM     32  C   UNL     1       2.504  -8.352  -6.300  0.00  0.00    +0.123 A 
ATOM     33  C   UNL     1       3.879  -8.240  -6.412  0.00  0.00    +0.038 A 
ATOM     34  C   UNL     1       4.654  -8.093  -5.277  0.00  0.00    +0.008 A 
ATOM     35  F   UNL     1       1.744  -8.495  -7.408  0.00  0.00    -0.205 F 
ENDBRANCH  21  29
ENDBRANCH   4  21
TORSDOF 6
