REMARK  Name = ZINC37558609
REMARK  4 active torsions:
REMARK  status: ('A' for Active; 'I' for Inactive)
REMARK    1  A    between atoms: C_1  and  C_2
REMARK    2  A    between atoms: C_2  and  N_3
REMARK    3  A    between atoms: C_5  and  S_9
REMARK    4  A    between atoms: S_9  and  N_12
REMARK                            x       y       z     vdW  Elec       q    Type
REMARK                         _______ _______ _______ _____ _____    ______ ____
ROOT
ATOM      1  S   UNL     1      -4.339  -2.647  -1.361  0.00  0.00    +0.078 S 
ATOM      2  O   UNL     1      -3.767  -3.190  -2.543  0.00  0.00    -0.150 OA
ATOM      3  O   UNL     1      -4.825  -3.463  -0.305  0.00  0.00    -0.150 OA
ENDROOT
BRANCH   1   4
ATOM      4  N   UNL     1      -5.605  -1.694  -1.844  0.00  0.00    -0.199 N 
ATOM      5  C   UNL     1      -5.426  -0.763  -2.861  0.00  0.00    +0.138 A 
ATOM      6  C   UNL     1      -6.516  -0.039  -3.333  0.00  0.00    +0.046 A 
ATOM      7  C   UNL     1      -6.324   0.884  -4.344  0.00  0.00    +0.025 A 
ATOM      8  C   UNL     1      -5.042   1.054  -4.853  0.00  0.00    +0.059 A 
ATOM      9  C   UNL     1      -4.005   0.301  -4.337  0.00  0.00    +0.133 A 
ATOM     10  N   UNL     1      -4.218  -0.569  -3.368  0.00  0.00    -0.238 NA
ATOM     11 CL   UNL     1      -4.747   2.199  -6.124  0.00  0.00    -0.082 Cl
ATOM     12  H   UNL     1      -6.471  -1.785  -1.417  0.00  0.00    +0.175 HD
ENDBRANCH   1   4
BRANCH   1  15
ATOM     13  N   UNL     1      -1.266  -0.485  -0.321  0.00  0.00    -0.268 N 
ATOM     14  C   UNL     1      -1.883  -1.358  -1.145  0.00  0.00    +0.139 A 
ATOM     15  C   UNL     1      -3.125  -1.583  -0.657  0.00  0.00    +0.167 A 
ATOM     16  C   UNL     1      -3.273  -0.817   0.511  0.00  0.00    +0.165 A 
ATOM     17  N   UNL     1      -2.154  -0.163   0.713  0.00  0.00    -0.154 NA
ATOM     18  N   UNL     1      -4.414  -0.765   1.321  0.00  0.00    -0.340 N 
ATOM     19  H   UNL     1      -5.169  -1.345   1.133  0.00  0.00    +0.144 HD
ATOM     20  H   UNL     1      -4.449  -0.151   2.070  0.00  0.00    +0.144 HD
BRANCH  13  22
ATOM     21  C   UNL     1       0.064   1.561  -0.481  0.00  0.00    +0.029 C 
ATOM     22  C   UNL     1       0.096   0.031  -0.478  0.00  0.00    +0.140 C 
ENDBRANCH  13  22
ENDBRANCH   1  15
TORSDOF 3
