REMARK  Name = ZINC09060344
REMARK  9 active torsions:
REMARK  status: ('A' for Active; 'I' for Inactive)
REMARK    1  A    between atoms: C_1  and  C_2
REMARK    2  A    between atoms: C_2  and  C_3
REMARK    3  A    between atoms: C_2  and  N_4
REMARK    4  A    between atoms: C_7  and  C_8
REMARK    5  A    between atoms: N_9  and  C_10
REMARK    6  A    between atoms: C_10  and  C_11
REMARK    7  A    between atoms: C_11  and  C_12
REMARK    8  A    between atoms: C_17  and  C_18
REMARK    9  A    between atoms: C_17  and  N_59
REMARK                            x       y       z     vdW  Elec       q    Type
REMARK                         _______ _______ _______ _____ _____    ______ ____
ROOT
ATOM      1  C   UNL     1       0.034   1.158   0.007  0.00  0.00    +0.141 C 
ENDROOT
BRANCH   1   3
ATOM      2  C   UNL     1      -0.268   1.258  -2.409  0.00  0.00    +0.099 C 
ATOM      3  N   UNL     1      -0.733   1.550  -1.178  0.00  0.00    -0.295 NA
BRANCH   2   7
ATOM      4  N   UNL     1      -1.340   1.608  -5.925  0.00  0.00    -0.222 N 
ATOM      5  C   UNL     1      -0.585   1.210  -4.881  0.00  0.00    +0.240 C 
ATOM      6  O   UNL     1       0.405   0.524  -5.051  0.00  0.00    -0.274 OA
ATOM      7  C   UNL     1      -0.992   1.628  -3.527  0.00  0.00    +0.202 C 
ATOM      8  C   UNL     1      -2.209   2.452  -3.418  0.00  0.00    +0.238 C 
ATOM      9  O   UNL     1      -2.611   2.832  -2.334  0.00  0.00    -0.274 OA
ATOM     10  N   UNL     1      -2.862   2.780  -4.552  0.00  0.00    -0.239 N 
ATOM     11  C   UNL     1      -2.433   2.363  -5.752  0.00  0.00    +0.315 C 
ATOM     12  O   UNL     1      -3.070   2.688  -6.735  0.00  0.00    -0.252 OA
ATOM     13  H   UNL     1      -3.663   3.325  -4.497  0.00  0.00    +0.159 HD
BRANCH   4  15
ATOM     14  C   UNL     1      -2.087   0.388  -7.909  0.00  0.00    +0.028 C 
ATOM     15  C   UNL     1      -0.956   1.205  -7.280  0.00  0.00    +0.080 C 
ATOM     16  C   UNL     1      -0.695   2.451  -8.129  0.00  0.00    +0.028 C 
ENDBRANCH   4  15
ENDBRANCH   2   7
ENDBRANCH   1   3
BRANCH   1  17
ATOM     17  C   UNL     1      -0.710   1.605   1.267  0.00  0.00    +0.026 C 
BRANCH  17  18
ATOM     18  C   UNL     1       0.092   1.196   2.504  0.00  0.00    -0.013 C 
ATOM     19  C   UNL     1       0.148  -0.332   2.596  0.00  0.00    -0.015 C 
ATOM     20  C   UNL     1       0.898  -0.735   3.867  0.00  0.00    -0.078 C 
ATOM     21  C   UNL     1       0.185   1.286   4.998  0.00  0.00    -0.078 C 
ATOM     22  C   UNL     1      -0.587   1.750   3.760  0.00  0.00    -0.015 C 
ATOM     23  N   UNL     1       0.181  -0.192   5.040  0.00  0.00    +0.382 N 
ATOM     24  H   UNL     1      -0.790  -0.523   5.019  0.00  0.00    -0.081 HD
BRANCH  23  25
ATOM     25  C   UNL     1       0.822  -0.662   6.286  0.00  0.00    -0.043 C 
BRANCH  25  26
ATOM     26  C   UNL     1       0.611  -2.149   6.408  0.00  0.00    -0.064 A 
ATOM     27  C   UNL     1      -0.512  -2.637   7.049  0.00  0.00    +0.002 A 
ATOM     28  C   UNL     1      -0.708  -4.002   7.157  0.00  0.00    +0.000 A 
ATOM     29  C   UNL     1       0.224  -4.877   6.633  0.00  0.00    +0.000 A 
ATOM     30  C   UNL     1       1.350  -4.389   5.996  0.00  0.00    +0.000 A 
ATOM     31  C   UNL     1       1.543  -3.025   5.884  0.00  0.00    +0.002 A 
ENDBRANCH  25  26
ENDBRANCH  23  25
ENDBRANCH  17  18
ENDBRANCH   1  17
TORSDOF 7
