REMARK  Name = ZINC64682475
REMARK  6 active torsions:
REMARK  status: ('A' for Active; 'I' for Inactive)
REMARK    1  A    between atoms: C_4  and  C_7
REMARK    2  A    between atoms: C_7  and  N_8
REMARK    3  A    between atoms: C_12  and  C_15
REMARK    4  A    between atoms: C_17  and  C_18
REMARK    5  A    between atoms: C_17  and  C_20
REMARK    6  A    between atoms: N_22  and  C_23
REMARK                            x       y       z     vdW  Elec       q    Type
REMARK                         _______ _______ _______ _____ _____    ______ ____
ROOT
ATOM      1  N   UNL     1       4.101  -0.891   1.393  0.00  0.00    -0.310 N 
ATOM      2  C   UNL     1       4.961  -0.032   1.987  0.00  0.00    +0.089 A 
ATOM      3  C   UNL     1       5.474  -0.269   3.220  0.00  0.00    +0.019 A 
ATOM      4  C   UNL     1       5.129  -1.418   3.926  0.00  0.00    +0.018 A 
ATOM      5  C   UNL     1       4.242  -2.328   3.343  0.00  0.00    +0.088 A 
ATOM      6  C   UNL     1       3.712  -2.024   2.011  0.00  0.00    +0.262 A 
ATOM      7  O   UNL     1       2.932  -2.787   1.468  0.00  0.00    -0.267 OA
ENDROOT
BRANCH   5   8
ATOM      8  C   UNL     1       3.850  -3.551   4.047  0.00  0.00    +0.214 C 
ATOM      9  O   UNL     1       4.109  -4.757   3.499  0.00  0.00    -0.286 OA
ATOM     10  C   UNL     1       3.210  -3.469   5.283  0.00  0.00    +0.160 C 
BRANCH  10  11
ATOM     11  C   UNL     1       2.930  -4.689   6.044  0.00  0.00    +0.258 C 
ATOM     12  O   UNL     1       3.256  -5.773   5.599  0.00  0.00    -0.269 OA
ATOM     13  N   UNL     1       2.311  -4.610   7.239  0.00  0.00    -0.308 N 
ATOM     14  H   UNL     1       2.050  -3.745   7.594  0.00  0.00    +0.149 HD
BRANCH  13  15
ATOM     15  C   UNL     1       2.031  -5.829   8.001  0.00  0.00    +0.073 C 
ATOM     16  C   UNL     1       3.238  -6.183   8.894  0.00  0.00    +0.022 C 
ATOM     17  C   UNL     1       2.885  -5.566  10.271  0.00  0.00    +0.002 C 
ATOM     18  C   UNL     1       1.361  -5.820  10.379  0.00  0.00    +0.002 C 
ATOM     19  C   UNL     1       0.838  -5.599   8.945  0.00  0.00    +0.022 C 
ENDBRANCH  13  15
ENDBRANCH  10  11
BRANCH  10  20
ATOM     20  C   UNL     1       2.825  -2.193   5.807  0.00  0.00    +0.108 C 
ATOM     21  N   UNL     1       2.521  -1.181   6.223  0.00  0.00    -0.191 NA
ENDBRANCH  10  20
ENDBRANCH   5   8
BRANCH   1  22
ATOM     22  C   UNL     1       3.579  -0.583   0.059  0.00  0.00    +0.160 C 
BRANCH  22  26
ATOM     23  C   UNL     1      -0.020   1.689   0.425  0.00  0.00    +0.000 A 
ATOM     24  C   UNL     1       1.200   2.334   0.352  0.00  0.00    +0.000 A 
ATOM     25  C   UNL     1       2.365   1.599   0.234  0.00  0.00    +0.005 A 
ATOM     26  C   UNL     1       2.309   0.219   0.189  0.00  0.00    -0.028 A 
ATOM     27  C   UNL     1       1.089  -0.427   0.263  0.00  0.00    +0.005 A 
ATOM     28  C   UNL     1      -0.076   0.308   0.380  0.00  0.00    +0.000 A 
ENDBRANCH  22  26
ENDBRANCH   1  22
TORSDOF 6
