REMARK  Name = ZINC05226955
REMARK  9 active torsions:
REMARK  status: ('A' for Active; 'I' for Inactive)
REMARK    1  A    between atoms: C_1  and  C_2
REMARK    2  A    between atoms: C_2  and  O_4
REMARK    3  A    between atoms: O_4  and  C_5
REMARK    4  A    between atoms: C_5  and  C_6
REMARK    5  A    between atoms: C_6  and  C_8
REMARK    6  A    between atoms: C_8  and  O_34
REMARK    7  A    between atoms: C_13  and  C_33
REMARK    8  A    between atoms: C_24  and  C_31
REMARK    9  A    between atoms: C_27  and  O_30
REMARK                            x       y       z     vdW  Elec       q    Type
REMARK                         _______ _______ _______ _____ _____    ______ ____
ROOT
ATOM      1  C   UNL     1       7.726   4.493   0.152  0.00  0.00    +0.133 C 
ATOM      2  C   UNL     1       7.090   5.263   1.327  0.00  0.00    +0.043 C 
ATOM      3  C   UNL     1       6.290   6.428   0.705  0.00  0.00    +0.008 C 
ATOM      4  C   UNL     1       5.975   5.934  -0.739  0.00  0.00    +0.002 C 
ATOM      5  C   UNL     1       7.289   5.231  -1.120  0.00  0.00    +0.007 C 
ATOM      6  C   UNL     1       7.137   4.306  -2.306  0.00  0.00    +0.010 C 
ATOM      7  C   UNL     1       6.010   3.301  -2.077  0.00  0.00    +0.005 C 
ATOM      8  C   UNL     1       4.700   4.074  -1.862  0.00  0.00    +0.001 C 
ATOM      9  C   UNL     1       4.829   4.925  -0.611  0.00  0.00    -0.001 C 
ATOM     10  C   UNL     1       3.527   5.705  -0.370  0.00  0.00    +0.038 C 
ATOM     11  C   UNL     1       2.438   4.671  -0.025  0.00  0.00    +0.152 C 
ATOM     12  C   UNL     1       2.507   3.340  -0.749  0.00  0.00    +0.104 C 
ATOM     13  C   UNL     1       3.544   3.116  -1.834  0.00  0.00    +0.003 C 
ATOM     14  C   UNL     1       3.952   1.646  -1.845  0.00  0.00    +0.012 C 
ATOM     15  C   UNL     1       2.692   0.808  -2.107  0.00  0.00    +0.032 C 
ATOM     16  C   UNL     1       1.671   1.018  -0.990  0.00  0.00    +0.117 C 
ATOM     17  C   UNL     1       1.239   2.489  -0.927  0.00  0.00    +0.069 C 
ATOM     18  C   UNL     1       2.808   3.343  -3.157  0.00  0.00    +0.014 C 
ATOM     19  O   UNL     1       2.948   3.484   0.606  0.00  0.00    -0.364 OA
ATOM     20  C   UNL     1       8.338   6.289  -1.466  0.00  0.00    +0.015 C 
ENDROOT
BRANCH   1  21
ATOM     21  C   UNL     1       7.222   3.073   0.129  0.00  0.00    +0.202 C 
ATOM     22  O   UNL     1       6.169   2.797   0.652  0.00  0.00    -0.291 OA
BRANCH  21  23
ATOM     23  C   UNL     1       8.031   1.997  -0.548  0.00  0.00    +0.309 C 
BRANCH  23  24
ATOM     24  O   UNL     1       7.338   0.726  -0.435  0.00  0.00    -0.457 OA
BRANCH  24  26
ATOM     25  C   UNL     1       7.270  -1.695  -0.913  0.00  0.00    +0.136 C 
ATOM     26  C   UNL     1       7.930  -0.343  -0.991  0.00  0.00    +0.304 C 
ATOM     27  O   UNL     1       8.993  -0.220  -1.553  0.00  0.00    -0.251 OA
ENDBRANCH  24  26
ENDBRANCH  23  24
ENDBRANCH  21  23
ENDBRANCH   1  21
BRANCH  16  28
ATOM     28  O   UNL     1       0.526   0.200  -1.237  0.00  0.00    -0.392 OA
ATOM     29  H   UNL     1       0.721  -0.746  -1.282  0.00  0.00    +0.210 HD
ENDBRANCH  16  28
BRANCH   1  30
ATOM     30  O   UNL     1       9.151   4.509   0.266  0.00  0.00    -0.380 OA
ATOM     31  H   UNL     1       9.488   4.057   1.052  0.00  0.00    +0.211 HD
ENDBRANCH   1  30
TORSDOF 6
