REMARK  Name = ZINC11898478
REMARK  9 active torsions:
REMARK  status: ('A' for Active; 'I' for Inactive)
REMARK    1  A    between atoms: C_1  and  C_2
REMARK    2  A    between atoms: C_6  and  N_9
REMARK    3  A    between atoms: C_7  and  C_8
REMARK    4  A    between atoms: C_10  and  C_12
REMARK    5  A    between atoms: N_14  and  C_15
REMARK    6  A    between atoms: C_15  and  C_16
REMARK    7  A    between atoms: C_16  and  C_18
REMARK    8  A    between atoms: C_16  and  N_62
REMARK    9  A    between atoms: N_22  and  C_23
REMARK                            x       y       z     vdW  Elec       q    Type
REMARK                         _______ _______ _______ _____ _____    ______ ____
ROOT
ATOM      1  C   UNL     1      -2.643   8.262  -0.333  0.00  0.00    -0.003 C 
ENDROOT
BRANCH   1  11
ATOM      2  C   UNL     1      -4.300   6.600  -0.937  0.00  0.00    -0.073 C 
ATOM      3  C   UNL     1      -5.492   6.387  -1.871  0.00  0.00    +0.017 C 
ATOM      4  C   UNL     1      -5.037   6.442  -3.307  0.00  0.00    -0.048 A 
ATOM      5  C   UNL     1      -5.875   5.932  -4.287  0.00  0.00    +0.004 A 
ATOM      6  C   UNL     1      -5.498   5.967  -5.614  0.00  0.00    +0.000 A 
ATOM      7  C   UNL     1      -4.279   6.513  -5.969  0.00  0.00    +0.000 A 
ATOM      8  C   UNL     1      -3.443   7.020  -4.995  0.00  0.00    +0.002 A 
ATOM      9  C   UNL     1      -3.820   6.985  -3.660  0.00  0.00    -0.061 A 
ATOM     10  C   UNL     1      -2.872   7.546  -2.633  0.00  0.00    -0.042 C 
ATOM     11  N   UNL     1      -3.593   7.819  -1.379  0.00  0.00    +0.389 N 
ATOM     12  H   UNL     1      -4.280   8.565  -1.543  0.00  0.00    -0.080 HD
ENDBRANCH   1  11
BRANCH   1  13
ATOM     13  C   UNL     1      -2.149   9.644  -0.675  0.00  0.00    +0.006 A 
ATOM     14  C   UNL     1      -2.510  10.369  -1.753  0.00  0.00    +0.021 A 
ATOM     15  C   UNL     1      -1.820  11.596  -1.688  0.00  0.00    +0.019 A 
ATOM     16  C   UNL     1      -1.057  11.570  -0.576  0.00  0.00    +0.085 A 
ATOM     17  N   UNL     1      -1.254  10.375   0.050  0.00  0.00    -0.355 N 
ATOM     18  C   UNL     1      -0.612   9.947   1.294  0.00  0.00    +0.148 C 
ENDBRANCH   1  13
BRANCH   1  19
ATOM     19  C   UNL     1      -1.455   7.301  -0.255  0.00  0.00    +0.095 C 
BRANCH  19  22
ATOM     20  C   UNL     1      -1.069   4.943   0.222  0.00  0.00    +0.299 C 
ATOM     21  O   UNL     1       0.080   5.087  -0.142  0.00  0.00    -0.265 OA
ATOM     22  N   UNL     1      -1.919   5.989   0.204  0.00  0.00    -0.309 N 
ATOM     23  H   UNL     1      -2.837   5.873   0.496  0.00  0.00    +0.149 HD
BRANCH  20  25
ATOM     24  N   UNL     1      -0.692   2.559   0.708  0.00  0.00    -0.278 N 
ATOM     25  C   UNL     1      -1.541   3.605   0.691  0.00  0.00    +0.303 C 
ATOM     26  O   UNL     1      -2.690   3.461   1.055  0.00  0.00    -0.265 OA
ATOM     27  H   UNL     1       0.247   2.693   0.506  0.00  0.00    +0.155 HD
BRANCH  24  33
ATOM     28  C   UNL     1       0.211  -2.041   2.184  0.00  0.00    +0.044 C 
ATOM     29  C   UNL     1      -0.748  -0.969   1.737  0.00  0.00    -0.046 A 
ATOM     30  C   UNL     1      -2.099  -1.250   1.634  0.00  0.00    +0.004 A 
ATOM     31  C   UNL     1      -2.983  -0.268   1.224  0.00  0.00    +0.002 A 
ATOM     32  C   UNL     1      -2.520   0.996   0.916  0.00  0.00    +0.023 A 
ATOM     33  C   UNL     1      -1.164   1.281   1.019  0.00  0.00    +0.037 A 
ATOM     34  C   UNL     1      -0.279   0.293   1.431  0.00  0.00    -0.026 A 
ATOM     35  C   UNL     1       1.193   0.598   1.545  0.00  0.00    +0.046 C 
ENDBRANCH  24  33
ENDBRANCH  20  25
ENDBRANCH  19  22
ENDBRANCH   1  19
TORSDOF 6
