REMARK  Name = ZINC04928436
REMARK  5 active torsions:
REMARK  status: ('A' for Active; 'I' for Inactive)
REMARK    1  A    between atoms: C_1  and  C_2
REMARK    2  A    between atoms: C_5  and  N_8
REMARK    3  A    between atoms: N_8  and  C_9
REMARK    4  A    between atoms: N_12  and  C_17
REMARK    5  A    between atoms: C_26  and  C_29
REMARK                            x       y       z     vdW  Elec       q    Type
REMARK                         _______ _______ _______ _____ _____    ______ ____
ROOT
ATOM      1  C   UNL     1      -0.017   1.379   0.010  0.00  0.00    +0.071 A 
ATOM      2  C   UNL     1       1.203   2.088   0.002  0.00  0.00    +0.157 A 
ATOM      3  N   UNL     1       2.339   1.448  -0.012  0.00  0.00    -0.174 NA
ATOM      4  N   UNL     1       2.378   0.050  -0.020  0.00  0.00    -0.222 N 
ATOM      5  C   UNL     1       1.238  -0.668  -0.013  0.00  0.00    +0.288 A 
ATOM      6  O   UNL     1       1.280  -1.889  -0.020  0.00  0.00    -0.265 OA
ATOM      7  C   UNL     1       0.002  -0.004   0.002  0.00  0.00    +0.129 A 
ATOM      8 CL   UNL     1      -1.482  -0.905   0.011  0.00  0.00    -0.076 Cl
ENDROOT
BRANCH   4   9
ATOM      9  C   UNL     1       3.671  -0.640  -0.036  0.00  0.00    +0.069 C 
ATOM     10  C   UNL     1       3.769  -1.510  -1.291  0.00  0.00    +0.034 C 
ATOM     11  C   UNL     1       5.118  -2.230  -1.308  0.00  0.00    -0.007 C 
ATOM     12  C   UNL     1       5.240  -3.113  -0.065  0.00  0.00    +0.007 C 
ATOM     13  C   UNL     1       5.142  -2.244   1.190  0.00  0.00    -0.007 C 
ATOM     14  C   UNL     1       3.793  -1.523   1.207  0.00  0.00    +0.034 C 
ATOM     15  C   UNL     1       6.271  -1.211   1.185  0.00  0.00    +0.022 C 
ATOM     16  C   UNL     1       6.149  -0.328  -0.058  0.00  0.00    +0.075 C 
ATOM     17  C   UNL     1       6.248  -1.198  -1.313  0.00  0.00    +0.022 C 
ATOM     18  C   UNL     1       4.800   0.392  -0.042  0.00  0.00    +0.048 C 
BRANCH  16  19
ATOM     19  C   UNL     1       7.262   0.689  -0.064  0.00  0.00    +0.362 C 
ATOM     20  O   UNL     1       8.069   0.705   0.835  0.00  0.00    -0.246 OA
ATOM     21  O   UNL     1       7.355   1.576  -1.067  0.00  0.00    -0.246 OA
ENDBRANCH  16  19
ENDBRANCH   4   9
BRANCH   1  22
ATOM     22  N   UNL     1      -1.222   2.061   0.019  0.00  0.00    -0.339 N 
ATOM     23  H   UNL     1      -2.058   1.569   0.020  0.00  0.00    +0.146 HD
BRANCH  22  28
ATOM     24  C   UNL     1      -4.767   3.483   2.526  0.00  0.00    +0.007 C 
ATOM     25  C   UNL     1      -3.593   4.007   1.696  0.00  0.00    -0.014 C 
ATOM     26  C   UNL     1      -3.722   3.504   0.257  0.00  0.00    +0.005 C 
ATOM     27  C   UNL     1      -2.548   4.029  -0.574  0.00  0.00    +0.022 C 
ATOM     28  C   UNL     1      -1.234   3.526   0.027  0.00  0.00    +0.070 C 
ATOM     29  C   UNL     1      -1.106   4.029   1.466  0.00  0.00    +0.022 C 
ATOM     30  C   UNL     1      -2.279   3.505   2.296  0.00  0.00    +0.005 C 
ENDBRANCH  22  28
ENDBRANCH   1  22
TORSDOF 4
