REMARK  Name = ZINC39570945
REMARK  5 active torsions:
REMARK  status: ('A' for Active; 'I' for Inactive)
REMARK    1  A    between atoms: C_1  and  C_2
REMARK    2  A    between atoms: C_5  and  C_25
REMARK    3  A    between atoms: C_6  and  C_8
REMARK    4  A    between atoms: C_20  and  N_24
REMARK    5  A    between atoms: C_21  and  C_22
REMARK                            x       y       z     vdW  Elec       q    Type
REMARK                         _______ _______ _______ _____ _____    ______ ____
ROOT
ATOM      1  C   UNL     1       0.548  -2.909   2.393  0.00  0.00    +0.085 C 
ATOM      2  C   UNL     1       1.878  -2.453   3.007  0.00  0.00    +0.171 C 
ATOM      3  C   UNL     1       2.906  -2.287   1.927  0.00  0.00    +0.233 C 
ATOM      4  O   UNL     1       3.196  -3.238   1.233  0.00  0.00    -0.274 OA
ATOM      5  N   UNL     1       3.513  -1.109   1.711  0.00  0.00    -0.238 N 
ATOM      6  C   UNL     1       3.219  -0.026   2.447  0.00  0.00    +0.332 C 
ATOM      7  O   UNL     1       3.811   1.015   2.235  0.00  0.00    -0.250 OA
ATOM      8  N   UNL     1       2.287  -0.063   3.412  0.00  0.00    -0.131 NA
ATOM      9  C   UNL     1       1.629  -1.143   3.715  0.00  0.00    +0.204 C 
ATOM     10  O   UNL     1       0.679  -1.133   4.677  0.00  0.00    -0.428 OA
ATOM     11  C   UNL     1      -0.448  -1.835   4.426  0.00  0.00    +0.200 C 
ATOM     12  C   UNL     1      -0.562  -2.685   3.384  0.00  0.00    +0.095 C 
ATOM     13  H   UNL     1       4.178  -1.039   1.009  0.00  0.00    +0.159 HD
ENDROOT
BRANCH   1  19
ATOM     14  C   UNL     1      -0.466   1.456   0.166  0.00  0.00    +0.044 C 
ATOM     15  C   UNL     1      -0.212  -0.026   0.077  0.00  0.00    -0.050 A 
ATOM     16  C   UNL     1      -0.231  -0.658  -1.153  0.00  0.00    +0.003 A 
ATOM     17  C   UNL     1       0.002  -2.018  -1.235  0.00  0.00    +0.004 A 
ATOM     18  C   UNL     1       0.254  -2.747  -0.088  0.00  0.00    -0.047 A 
ATOM     19  C   UNL     1       0.274  -2.115   1.142  0.00  0.00    -0.035 A 
ATOM     20  C   UNL     1       0.045  -0.754   1.223  0.00  0.00    +0.008 A 
ATOM     21  C   UNL     1       0.507  -4.229  -0.177  0.00  0.00    +0.044 C 
ENDBRANCH   1  19
BRANCH  11  22
ATOM     22  N   UNL     1      -1.521  -1.678   5.267  0.00  0.00    -0.328 N 
ATOM     23  H   UNL     1      -1.461  -1.073   6.023  0.00  0.00    +0.145 HD
ATOM     24  H   UNL     1      -2.340  -2.172   5.106  0.00  0.00    +0.145 HD
ENDBRANCH  11  22
BRANCH  12  25
ATOM     25  C   UNL     1      -1.789  -3.403   3.213  0.00  0.00    +0.100 C 
ATOM     26  N   UNL     1      -2.763  -3.973   3.078  0.00  0.00    -0.191 NA
ENDBRANCH  12  25
TORSDOF 3
