REMARK  Name = ZINC40057135
REMARK  9 active torsions:
REMARK  status: ('A' for Active; 'I' for Inactive)
REMARK    1  A    between atoms: C_1  and  C_2
REMARK    2  A    between atoms: C_2  and  C_4
REMARK    3  A    between atoms: C_2  and  N_12
REMARK    4  A    between atoms: C_7  and  O_10
REMARK    5  A    between atoms: O_10  and  C_11
REMARK    6  A    between atoms: N_12  and  C_13
REMARK    7  A    between atoms: N_12  and  C_14
REMARK    8  A    between atoms: C_14  and  C_15
REMARK    9  A    between atoms: C_26  and  C_28
REMARK                            x       y       z     vdW  Elec       q    Type
REMARK                         _______ _______ _______ _____ _____    ______ ____
ROOT
ATOM      1  C   UNL     1      -3.532  -0.445  -1.106  0.00  0.00    +0.204 C 
ATOM      2  O   UNL     1      -3.932  -1.085  -0.157  0.00  0.00    -0.277 OA
ATOM      3  N   UNL     1      -4.382  -0.107  -2.096  0.00  0.00    -0.262 N 
ATOM      4  C   UNL     1      -3.922   0.664  -3.261  0.00  0.00    +0.209 C 
ATOM      5  C   UNL     1      -4.955   1.707  -3.599  0.00  0.00    +0.235 C 
ATOM      6  O   UNL     1      -4.610   2.745  -4.124  0.00  0.00    -0.274 OA
ATOM      7  N   UNL     1      -6.258   1.502  -3.326  0.00  0.00    -0.283 N 
ATOM      8  C   UNL     1      -6.677   0.335  -2.678  0.00  0.00    +0.056 A 
ATOM      9  C   UNL     1      -5.733  -0.485  -2.052  0.00  0.00    +0.058 A 
ATOM     10  C   UNL     1      -6.130  -1.641  -1.405  0.00  0.00    +0.026 A 
ATOM     11  C   UNL     1      -7.470  -1.989  -1.382  0.00  0.00    +0.014 A 
ATOM     12  C   UNL     1      -8.407  -1.185  -2.005  0.00  0.00    +0.057 A 
ATOM     13  C   UNL     1      -8.017  -0.018  -2.650  0.00  0.00    +0.037 A 
ATOM     14  H   UNL     1      -6.913   2.170  -3.583  0.00  0.00    +0.155 HD
ENDROOT
BRANCH  12  15
ATOM     15  C   UNL     1      -9.863  -1.574  -1.977  0.00  0.00    +0.417 C 
ATOM     16  F   UNL     1     -10.013  -2.772  -1.271  0.00  0.00    -0.166 F 
ATOM     17  F   UNL     1     -10.603  -0.566  -1.349  0.00  0.00    -0.166 F 
ATOM     18  F   UNL     1     -10.325  -1.744  -3.287  0.00  0.00    -0.166 F 
ENDBRANCH  12  15
BRANCH   1  19
ATOM     19  C   UNL     1      -2.087  -0.026  -1.178  0.00  0.00    +0.020 C 
BRANCH  19  20
ATOM     20  N   UNL     1      -1.376  -0.512   0.012  0.00  0.00    +0.388 N 
ATOM     21  C   UNL     1      -1.356  -1.981   0.004  0.00  0.00    -0.095 C 
ATOM     22  H   UNL     1      -1.848  -0.187   0.843  0.00  0.00    -0.081 HD
BRANCH  20  24
ATOM     23  C   UNL     1      -0.019   1.526   0.010  0.00  0.00    -0.008 C 
ATOM     24  C   UNL     1       0.002  -0.004   0.002  0.00  0.00    -0.041 C 
BRANCH  24  25
ATOM     25  C   UNL     1       0.731  -0.503   1.223  0.00  0.00    -0.061 A 
ATOM     26  C   UNL     1       0.080  -0.558   2.441  0.00  0.00    +0.005 A 
ATOM     27  C   UNL     1       0.746  -1.015   3.562  0.00  0.00    +0.046 A 
ATOM     28  C   UNL     1       2.069  -1.419   3.464  0.00  0.00    +0.120 A 
ATOM     29  C   UNL     1       2.720  -1.364   2.240  0.00  0.00    +0.046 A 
ATOM     30  C   UNL     1       2.048  -0.911   1.122  0.00  0.00    +0.005 A 
BRANCH  28  31
ATOM     31  O   UNL     1       2.727  -1.869   4.565  0.00  0.00    -0.495 OA
ATOM     32  C   UNL     1       4.087  -2.268   4.390  0.00  0.00    +0.277 C 
ENDBRANCH  28  31
ENDBRANCH  24  25
ENDBRANCH  20  24
ENDBRANCH  19  20
ENDBRANCH   1  19
TORSDOF 6
