REMARK  Name = ZINC13070806
REMARK  5 active torsions:
REMARK  status: ('A' for Active; 'I' for Inactive)
REMARK    1  A    between atoms: C_4  and  N_7
REMARK    2  A    between atoms: N_10  and  C_13
REMARK    3  A    between atoms: C_13  and  N_14
REMARK    4  A    between atoms: N_17  and  S_20
REMARK    5  A    between atoms: S_20  and  C_23
REMARK                            x       y       z     vdW  Elec       q    Type
REMARK                         _______ _______ _______ _____ _____    ______ ____
ROOT
ATOM      1  N   UNL     1       1.077   7.991   4.395  0.00  0.00    -0.281 NA
ATOM      2  C   UNL     1       2.288   7.637   3.643  0.00  0.00    +0.103 C 
ATOM      3  C   UNL     1       2.314   8.420   2.326  0.00  0.00    +0.125 C 
ATOM      4  N   UNL     1       1.048   8.184   1.616  0.00  0.00    -0.174 NA
ATOM      5  C   UNL     1      -0.210   8.392   2.348  0.00  0.00    +0.125 C 
ATOM      6  C   UNL     1      -0.137   7.604   3.665  0.00  0.00    +0.103 C 
ENDROOT
BRANCH   4   7
ATOM      7  S   UNL     1       1.040   7.702   0.031  0.00  0.00    +0.061 S 
ATOM      8  O   UNL     1       2.275   8.128  -0.529  0.00  0.00    -0.153 OA
ATOM      9  O   UNL     1      -0.216   8.094  -0.506  0.00  0.00    -0.153 OA
BRANCH   7  10
ATOM     10  C   UNL     1       1.064   5.940   0.022  0.00  0.00    +0.106 A 
ATOM     11  C   UNL     1       2.286   5.270   0.008  0.00  0.00    +0.029 A 
ATOM     12  C   UNL     1       2.340   3.910  -0.000  0.00  0.00    +0.010 A 
ATOM     13  C   UNL     1       1.147   3.167   0.008  0.00  0.00    -0.018 A 
ATOM     14  C   UNL     1       1.163   1.762   0.000  0.00  0.00    +0.008 A 
ATOM     15  C   UNL     1      -0.013   1.076   0.008  0.00  0.00    +0.001 A 
ATOM     16  C   UNL     1      -1.235   1.746   0.017  0.00  0.00    +0.001 A 
ATOM     17  C   UNL     1      -1.288   3.106   0.030  0.00  0.00    +0.008 A 
ATOM     18  C   UNL     1      -0.096   3.849   0.023  0.00  0.00    -0.016 A 
ATOM     19  C   UNL     1      -0.111   5.254   0.030  0.00  0.00    +0.037 A 
ENDBRANCH   7  10
ENDBRANCH   4   7
BRANCH   1  20
ATOM     20  C   UNL     1       1.098   7.394   5.737  0.00  0.00    +0.234 C 
BRANCH  20  24
ATOM     21  N   UNL     1      -1.917   8.287   7.471  0.00  0.00    -0.188 N 
ATOM     22  C   UNL     1      -1.249   7.466   6.631  0.00  0.00    +0.202 A 
ATOM     23  S   UNL     1      -1.871   6.080   5.842  0.00  0.00    -0.009 S 
ATOM     24  N   UNL     1       0.007   7.955   6.538  0.00  0.00    -0.206 N 
ATOM     25  N   UNL     1       0.076   9.092   7.352  0.00  0.00    -0.043 NA
ATOM     26  N   UNL     1      -1.025   9.285   7.880  0.00  0.00    -0.040 NA
BRANCH  21  30
ATOM     27  C   UNL     1      -5.903   7.917   8.628  0.00  0.00    +0.000 A 
ATOM     28  C   UNL     1      -4.965   8.392   9.526  0.00  0.00    +0.002 A 
ATOM     29  C   UNL     1      -3.643   8.516   9.146  0.00  0.00    +0.028 A 
ATOM     30  C   UNL     1      -3.256   8.162   7.860  0.00  0.00    +0.070 A 
ATOM     31  C   UNL     1      -4.202   7.690   6.958  0.00  0.00    +0.028 A 
ATOM     32  C   UNL     1      -5.521   7.564   7.347  0.00  0.00    +0.002 A 
ENDBRANCH  21  30
ENDBRANCH  20  24
ENDBRANCH   1  20
TORSDOF 5
