REMARK  Name = ZINC63098955
REMARK  5 active torsions:
REMARK  status: ('A' for Active; 'I' for Inactive)
REMARK    1  A    between atoms: C_1  and  O_2
REMARK    2  A    between atoms: O_2  and  C_3
REMARK    3  A    between atoms: C_6  and  S_9
REMARK    4  A    between atoms: S_9  and  N_12
REMARK    5  A    between atoms: C_18  and  C_20
REMARK                            x       y       z     vdW  Elec       q    Type
REMARK                         _______ _______ _______ _____ _____    ______ ____
ROOT
ATOM      1  N   UNL     1      -5.610  -2.900  -1.543  0.00  0.00    -0.174 NA
ATOM      2  C   UNL     1      -6.369  -1.869  -2.265  0.00  0.00    +0.128 C 
ATOM      3  C   UNL     1      -5.620  -1.522  -3.557  0.00  0.00    +0.125 C 
ATOM      4  N   UNL     1      -5.283  -2.771  -4.254  0.00  0.00    -0.295 N 
ATOM      5  C   UNL     1      -4.524  -3.802  -3.533  0.00  0.00    +0.125 C 
ATOM      6  C   UNL     1      -5.269  -4.147  -2.243  0.00  0.00    +0.128 C 
ATOM      7  C   UNL     1      -5.664  -2.968  -5.532  0.00  0.00    +0.245 C 
ATOM      8  O   UNL     1      -5.282  -3.952  -6.136  0.00  0.00    -0.270 OA
ENDROOT
BRANCH   7   9
ATOM      9  C   UNL     1      -6.539  -1.995  -6.193  0.00  0.00    +0.043 C 
ATOM     10  C   UNL     1      -7.079  -2.087  -7.458  0.00  0.00    +0.009 A 
ATOM     11  C   UNL     1      -6.987  -3.068  -8.476  0.00  0.00    +0.025 A 
ATOM     12  C   UNL     1      -7.637  -2.896  -9.648  0.00  0.00    +0.019 A 
ATOM     13  C   UNL     1      -8.421  -1.761  -9.916  0.00  0.00    +0.017 A 
ATOM     14  C   UNL     1      -8.573  -0.768  -9.014  0.00  0.00    +0.027 A 
ATOM     15  C   UNL     1      -7.900  -0.877  -7.710  0.00  0.00    +0.043 A 
ATOM     16  N   UNL     1      -7.874  -0.084  -6.676  0.00  0.00    -0.380 N 
ATOM     17  C   UNL     1      -7.042  -0.685  -5.628  0.00  0.00    +0.154 C 
ATOM     18 BR   UNL     1      -7.486  -4.232 -10.978  0.00  0.00    -0.050 Br
ATOM     19  H   UNL     1      -8.335   0.766  -6.608  0.00  0.00    +0.160 HD
ENDBRANCH   7   9
BRANCH   1  20
ATOM     20  S   UNL     1      -5.142  -2.659   0.026  0.00  0.00    +0.061 S 
ATOM     21  O   UNL     1      -4.953  -3.946   0.597  0.00  0.00    -0.153 OA
ATOM     22  O   UNL     1      -6.042  -1.706   0.577  0.00  0.00    -0.153 OA
BRANCH  20  26
ATOM     23  C   UNL     1      -1.070  -0.680  -0.079  0.00  0.00    +0.120 A 
ATOM     24  C   UNL     1      -2.220   0.096  -0.073  0.00  0.00    +0.047 A 
ATOM     25  C   UNL     1      -3.461  -0.510  -0.041  0.00  0.00    +0.032 A 
ATOM     26  C   UNL     1      -3.558  -1.889  -0.015  0.00  0.00    +0.106 A 
ATOM     27  C   UNL     1      -2.413  -2.665  -0.021  0.00  0.00    +0.032 A 
ATOM     28  C   UNL     1      -1.170  -2.064  -0.059  0.00  0.00    +0.047 A 
BRANCH  23  30
ATOM     29  C   UNL     1       0.179   1.342  -0.131  0.00  0.00    +0.277 C 
ATOM     30  O   UNL     1       0.152  -0.087  -0.111  0.00  0.00    -0.495 OA
ENDBRANCH  23  30
ENDBRANCH  20  26
ENDBRANCH   1  20
TORSDOF 4
