REMARK  Name = ZINC63782800
REMARK  3 active torsions:
REMARK  status: ('A' for Active; 'I' for Inactive)
REMARK    1  A    between atoms: N_9  and  C_12
REMARK    2  A    between atoms: C_12  and  C_13
REMARK    3  A    between atoms: C_16  and  C_18
REMARK                            x       y       z     vdW  Elec       q    Type
REMARK                         _______ _______ _______ _____ _____    ______ ____
ROOT
ATOM      1  C   UNL     1       2.930  -4.521  -1.410  0.00  0.00    +0.123 A 
ATOM      2  C   UNL     1       4.176  -4.644  -1.918  0.00  0.00    +0.047 A 
ATOM      3  C   UNL     1       4.039  -4.946  -3.282  0.00  0.00    +0.055 A 
ATOM      4  C   UNL     1       2.699  -4.994  -3.540  0.00  0.00    +0.190 A 
ATOM      5  O   UNL     1       2.042  -4.739  -2.389  0.00  0.00    -0.453 OA
ENDROOT
BRANCH   4   6
ATOM      6  C   UNL     1       2.081  -5.279  -4.839  0.00  0.00    +0.285 C 
ATOM      7  O   UNL     1       2.781  -5.500  -5.810  0.00  0.00    -0.266 OA
ATOM      8  N   UNL     1       0.739  -5.296  -4.958  0.00  0.00    -0.257 N 
ATOM      9  C   UNL     1       0.154  -5.565  -6.189  0.00  0.00    +0.188 A 
ATOM     10  N   UNL     1       0.715  -5.836  -7.359  0.00  0.00    -0.126 NA
ATOM     11  N   UNL     1       0.026  -6.059  -8.392  0.00  0.00    -0.148 NA
ATOM     12  C   UNL     1      -1.292  -6.039  -8.374  0.00  0.00    +0.183 A 
ATOM     13  S   UNL     1      -1.575  -5.655  -6.648  0.00  0.00    -0.039 S 
ATOM     14  H   UNL     1       0.181  -5.120  -4.184  0.00  0.00    +0.157 HD
ENDBRANCH   4   6
BRANCH   1  15
ATOM     15  C   UNL     1       2.594  -4.200   0.023  0.00  0.00    +0.183 C 
BRANCH  15  24
ATOM     16  C   UNL     1      -0.017   1.375   0.010  0.00  0.00    +0.001 A 
ATOM     17  C   UNL     1       1.168   2.095   0.002  0.00  0.00    +0.002 A 
ATOM     18  C   UNL     1       2.386   1.443  -0.018  0.00  0.00    +0.024 A 
ATOM     19  C   UNL     1       2.422   0.059  -0.028  0.00  0.00    +0.040 A 
ATOM     20  C   UNL     1       1.223  -0.674  -0.012  0.00  0.00    +0.058 A 
ATOM     21  C   UNL     1       0.002  -0.004   0.002  0.00  0.00    +0.015 A 
ATOM     22  C   UNL     1       1.296  -2.146   0.004  0.00  0.00    +0.250 C 
ATOM     23  O   UNL     1       0.290  -2.812  -0.146  0.00  0.00    -0.270 OA
ATOM     24  N   UNL     1       2.489  -2.748   0.187  0.00  0.00    -0.274 N 
ATOM     25  C   UNL     1       3.679  -1.977   0.545  0.00  0.00    +0.213 C 
ATOM     26  N   UNL     1       3.623  -0.642  -0.062  0.00  0.00    -0.328 N 
ATOM     27  H   UNL     1       4.408  -0.255  -0.480  0.00  0.00    +0.148 HD
ENDBRANCH  15  24
ENDBRANCH   1  15
TORSDOF 3
