REMARK  Name = ZINC04601031
REMARK  7 active torsions:
REMARK  status: ('A' for Active; 'I' for Inactive)
REMARK    1  A    between atoms: C_1  and  C_2
REMARK    2  A    between atoms: C_7  and  C_10
REMARK    3  A    between atoms: C_11  and  C_13
REMARK    4  A    between atoms: C_13  and  N_14
REMARK    5  A    between atoms: C_17  and  C_21
REMARK    6  A    between atoms: C_17  and  C_28
REMARK    7  A    between atoms: C_21  and  C_22
REMARK                            x       y       z     vdW  Elec       q    Type
REMARK                         _______ _______ _______ _____ _____    ______ ____
ROOT
ATOM      1  N   UNL     1       1.172   6.614  -1.408  0.00  0.00    -0.215 N 
ATOM      2  C   UNL     1       0.035   5.890  -1.380  0.00  0.00    +0.252 C 
ATOM      3  O   UNL     1      -0.740   5.709  -2.294  0.00  0.00    -0.272 OA
ATOM      4  C   UNL     1      -0.070   5.347   0.031  0.00  0.00    +0.142 C 
ATOM      5  N   UNL     1       1.131   5.878   0.697  0.00  0.00    -0.281 N 
ATOM      6  C   UNL     1       1.792   6.604  -0.223  0.00  0.00    +0.310 C 
ATOM      7  O   UNL     1       2.836   7.186  -0.002  0.00  0.00    -0.252 OA
ATOM      8  H   UNL     1       1.395   5.732   1.619  0.00  0.00    +0.152 HD
ENDROOT
BRANCH   4   9
ATOM      9  C   UNL     1      -0.050   3.840   0.023  0.00  0.00    -0.015 A 
ATOM     10  C   UNL     1       1.156   3.165   0.008  0.00  0.00    +0.006 A 
ATOM     11  C   UNL     1       1.175   1.783   0.000  0.00  0.00    +0.000 A 
ATOM     12  C   UNL     1      -0.013   1.076   0.008  0.00  0.00    +0.000 A 
ATOM     13  C   UNL     1      -1.219   1.751   0.017  0.00  0.00    +0.000 A 
ATOM     14  C   UNL     1      -1.238   3.133   0.030  0.00  0.00    +0.006 A 
ENDBRANCH   4   9
BRANCH   1  15
ATOM     15  C   UNL     1       1.667   7.324  -2.590  0.00  0.00    +0.213 C 
BRANCH  15  24
ATOM     16  C   UNL     1       6.091   6.933  -4.294  0.00  0.00    +0.039 C 
ATOM     17  C   UNL     1       5.319   6.737  -5.600  0.00  0.00    +0.133 C 
ATOM     18  C   UNL     1       4.016   5.981  -5.316  0.00  0.00    +0.139 C 
ATOM     19  N   UNL     1       3.137   6.854  -4.522  0.00  0.00    -0.295 N 
ATOM     20  C   UNL     1       2.897   8.221  -5.009  0.00  0.00    +0.139 C 
ATOM     21  C   UNL     1       4.259   8.870  -5.306  0.00  0.00    +0.133 C 
ATOM     22  O   UNL     1       5.010   8.012  -6.168  0.00  0.00    -0.371 OA
ATOM     23  C   UNL     1       4.042  10.220  -5.991  0.00  0.00    +0.039 C 
ATOM     24  C   UNL     1       2.564   6.411  -3.386  0.00  0.00    +0.234 C 
ATOM     25  O   UNL     1       2.769   5.279  -3.003  0.00  0.00    -0.274 OA
ENDBRANCH  15  24
ENDBRANCH   1  15
BRANCH   4  26
ATOM     26  C   UNL     1      -1.338   5.863   0.716  0.00  0.00    +0.075 C 
BRANCH  26  27
ATOM     27  C   UNL     1      -1.334   7.370   0.711  0.00  0.00    -0.045 A 
ATOM     28  C   UNL     1      -0.767   8.063   1.764  0.00  0.00    +0.004 A 
ATOM     29  C   UNL     1      -0.760   9.445   1.758  0.00  0.00    +0.000 A 
ATOM     30  C   UNL     1      -1.326  10.134   0.702  0.00  0.00    +0.000 A 
ATOM     31  C   UNL     1      -1.897   9.441  -0.349  0.00  0.00    +0.000 A 
ATOM     32  C   UNL     1      -1.901   8.059  -0.344  0.00  0.00    +0.004 A 
ENDBRANCH  26  27
ENDBRANCH   4  26
TORSDOF 5
