REMARK  Name = ZINC01507203
REMARK  9 active torsions:
REMARK  status: ('A' for Active; 'I' for Inactive)
REMARK    1  A    between atoms: C_1  and  C_2
REMARK    2  A    between atoms: C_2  and  C_3
REMARK    3  A    between atoms: C_3  and  C_4
REMARK    4  A    between atoms: C_9  and  C_19
REMARK    5  A    between atoms: C_13  and  C_16
REMARK    6  A    between atoms: C_14  and  O_15
REMARK    7  A    between atoms: C_16  and  N_50
REMARK    8  A    between atoms: C_17  and  N_50
REMARK    9  A    between atoms: C_18  and  N_50
REMARK                            x       y       z     vdW  Elec       q    Type
REMARK                         _______ _______ _______ _____ _____    ______ ____
ROOT
ATOM      1  C   UNL     1       0.000   1.080   2.488  0.00  0.00    -0.005 A 
ATOM      2  C   UNL     1      -0.408  -0.071   3.100  0.00  0.00    +0.022 A 
ATOM      3  C   UNL     1       0.268  -0.531   4.230  0.00  0.00    +0.065 A 
ATOM      4  C   UNL     1      -0.145  -1.768   4.917  0.00  0.00    +0.202 A 
ATOM      5  O   UNL     1      -1.089  -2.433   4.524  0.00  0.00    -0.286 OA
ATOM      6  C   UNL     1       0.638  -2.163   6.102  0.00  0.00    +0.089 A 
ATOM      7  C   UNL     1       1.681  -1.376   6.487  0.00  0.00    +0.210 A 
ATOM      8  O   UNL     1       2.019  -0.263   5.834  0.00  0.00    -0.462 OA
ATOM      9  C   UNL     1       1.366   0.182   4.742  0.00  0.00    +0.143 A 
ATOM     10  C   UNL     1       1.768   1.349   4.107  0.00  0.00    +0.021 A 
ATOM     11  C   UNL     1       1.091   1.791   2.983  0.00  0.00    +0.125 A 
ENDROOT
BRANCH   6  12
ATOM     12  C   UNL     1       0.300  -3.387   6.855  0.00  0.00    +0.116 A 
ATOM     13  N   UNL     1       0.884  -3.887   7.924  0.00  0.00    -0.239 NA
ATOM     14  C   UNL     1       0.464  -5.024   8.513  0.00  0.00    +0.079 A 
ATOM     15  C   UNL     1       0.997  -5.664   9.657  0.00  0.00    +0.029 A 
ATOM     16  C   UNL     1       0.452  -6.818  10.127  0.00  0.00    +0.002 A 
ATOM     17  C   UNL     1      -0.641  -7.411   9.512  0.00  0.00    +0.001 A 
ATOM     18  C   UNL     1      -1.193  -6.818   8.392  0.00  0.00    +0.017 A 
ATOM     19  C   UNL     1      -0.650  -5.653   7.909  0.00  0.00    +0.040 A 
ATOM     20  S   UNL     1      -1.011  -4.564   6.552  0.00  0.00    -0.067 S 
ENDBRANCH   6  12
BRANCH  11  21
ATOM     21  O   UNL     1       1.489   2.930   2.362  0.00  0.00    -0.506 OA
ATOM     22  H   UNL     1       1.064   3.731   2.697  0.00  0.00    +0.292 HD
ENDBRANCH  11  21
BRANCH   1  23
ATOM     23  C   UNL     1      -0.729   1.579   1.267  0.00  0.00    +0.038 C 
BRANCH  23  25
ATOM     24  C   UNL     1      -0.753   1.593  -1.232  0.00  0.00    +0.004 C 
ATOM     25  C   UNL     1      -0.013   1.086   0.008  0.00  0.00    +0.001 C 
ENDBRANCH  23  25
ENDBRANCH   1  23
BRANCH  10  26
ATOM     26  C   UNL     1       2.943   2.131   4.637  0.00  0.00    -0.036 C 
BRANCH  26  29
ATOM     27  C   UNL     1       4.179   1.951   2.563  0.00  0.00    -0.096 C 
ATOM     28  C   UNL     1       5.362   2.220   4.658  0.00  0.00    -0.096 C 
ATOM     29  N   UNL     1       4.178   1.624   4.004  0.00  0.00    +0.379 N 
ATOM     30  H   UNL     1       4.215   0.603   4.115  0.00  0.00    -0.082 HD
ENDBRANCH  26  29
ENDBRANCH  10  26
TORSDOF 6
