REMARK  Name = ZINC29385649
REMARK  4 active torsions:
REMARK  status: ('A' for Active; 'I' for Inactive)
REMARK    1  A    between atoms: C_1  and  C_2
REMARK    2  A    between atoms: C_5  and  C_8
REMARK    3  A    between atoms: C_8  and  N_9
REMARK    4  A    between atoms: C_16  and  C_18
REMARK                            x       y       z     vdW  Elec       q    Type
REMARK                         _______ _______ _______ _____ _____    ______ ____
ROOT
ATOM      1  N   UNL     1       2.377  -2.650   0.169  0.00  0.00    -0.331 N 
ATOM      2  C   UNL     1       2.409  -4.002   0.265  0.00  0.00    +0.088 A 
ATOM      3  C   UNL     1       1.262  -4.723   0.275  0.00  0.00    +0.018 A 
ATOM      4  C   UNL     1       0.024  -4.075   0.186  0.00  0.00    +0.005 A 
ATOM      5  C   UNL     1      -0.015  -2.713   0.095  0.00  0.00    +0.042 A 
ATOM      6  C   UNL     1       1.186  -1.990   0.081  0.00  0.00    +0.106 A 
ATOM      7  N   UNL     1       1.165  -0.654  -0.013  0.00  0.00    -0.266 N 
ATOM      8  C   UNL     1       0.003  -0.004   0.010  0.00  0.00    +0.269 C 
ATOM      9  O   UNL     1      -0.768  -0.164   0.942  0.00  0.00    -0.268 OA
ATOM     10  H   UNL     1       2.107  -0.095  -0.108  0.00  0.00    +0.157 HD
ENDROOT
BRANCH   8  11
ATOM     11  C   UNL     1      -0.354   0.915  -1.096  0.00  0.00    +0.148 A 
ATOM     12  C   UNL     1      -1.591   1.601  -1.073  0.00  0.00    +0.040 A 
ATOM     13  C   UNL     1      -1.883   2.442  -2.105  0.00  0.00    +0.076 A 
ATOM     14  C   UNL     1      -0.933   2.569  -3.143  0.00  0.00    +0.288 A 
ATOM     15  O   UNL     1      -1.153   3.306  -4.091  0.00  0.00    -0.264 OA
ATOM     16  N   UNL     1       0.216   1.871  -3.080  0.00  0.00    -0.106 NA
ATOM     17  N   UNL     1       0.478   1.086  -2.098  0.00  0.00    -0.141 NA
ENDBRANCH   8  11
BRANCH   1  18
ATOM     18  C   UNL     1       3.630  -1.892   0.160  0.00  0.00    +0.158 C 
BRANCH  18  23
ATOM     19  C   UNL     1       7.619  -4.729   3.231  0.00  0.00    +0.044 C 
ATOM     20  C   UNL     1       6.579  -3.989   2.430  0.00  0.00    -0.050 A 
ATOM     21  C   UNL     1       6.447  -4.233   1.076  0.00  0.00    +0.004 A 
ATOM     22  C   UNL     1       5.493  -3.554   0.341  0.00  0.00    +0.005 A 
ATOM     23  C   UNL     1       4.670  -2.632   0.961  0.00  0.00    -0.028 A 
ATOM     24  C   UNL     1       4.806  -2.384   2.314  0.00  0.00    +0.005 A 
ATOM     25  C   UNL     1       5.758  -3.066   3.049  0.00  0.00    +0.004 A 
ENDBRANCH  18  23
ENDBRANCH   1  18
TORSDOF 3
