REMARK  Name = ZINC49372023
REMARK  4 active torsions:
REMARK  status: ('A' for Active; 'I' for Inactive)
REMARK    1  A    between atoms: C_1  and  C_2
REMARK    2  A    between atoms: C_4  and  C_20
REMARK    3  A    between atoms: C_6  and  C_8
REMARK    4  A    between atoms: C_15  and  O_19
REMARK                            x       y       z     vdW  Elec       q    Type
REMARK                         _______ _______ _______ _____ _____    ______ ____
ROOT
ATOM      1  C   UNL     1       0.051  -2.845   2.449  0.00  0.00    +0.058 C 
ATOM      2  C   UNL     1       0.150  -2.182   3.627  0.00  0.00    +0.176 C 
ATOM      3  C   UNL     1       0.286  -2.792   4.960  0.00  0.00    +0.231 C 
ATOM      4  O   UNL     1       0.334  -3.977   5.236  0.00  0.00    -0.283 OA
ATOM      5  C   UNL     1       0.353  -1.646   5.885  0.00  0.00    +0.068 A 
ATOM      6  C   UNL     1       0.482  -1.544   7.271  0.00  0.00    +0.019 A 
ATOM      7  C   UNL     1       0.515  -0.314   7.863  0.00  0.00    +0.046 A 
ATOM      8  C   UNL     1       0.421   0.839   7.088  0.00  0.00    +0.120 A 
ATOM      9  C   UNL     1       0.293   0.753   5.711  0.00  0.00    +0.092 A 
ATOM     10  C   UNL     1       0.258  -0.491   5.092  0.00  0.00    +0.143 A 
ATOM     11  O   UNL     1       0.146  -0.838   3.792  0.00  0.00    -0.451 OA
ENDROOT
BRANCH   1  17
ATOM     12  C   UNL     1       0.088  -2.806  -2.537  0.00  0.00    +0.044 C 
ATOM     13  C   UNL     1       0.058  -2.072  -1.220  0.00  0.00    -0.050 A 
ATOM     14  C   UNL     1       0.022  -0.689  -1.202  0.00  0.00    +0.006 A 
ATOM     15  C   UNL     1      -0.006  -0.005   0.001  0.00  0.00    -0.050 A 
ATOM     16  C   UNL     1       0.003  -0.699   1.192  0.00  0.00    +0.011 A 
ATOM     17  C   UNL     1       0.040  -2.098   1.183  0.00  0.00    -0.021 A 
ATOM     18  C   UNL     1       0.062  -2.781  -0.038  0.00  0.00    +0.011 A 
ATOM     19  C   UNL     1      -0.046   1.502   0.009  0.00  0.00    +0.044 C 
ENDBRANCH   1  17
BRANCH   8  20
ATOM     20  O   UNL     1       0.454   2.057   7.686  0.00  0.00    -0.507 OA
ATOM     21  H   UNL     1       1.343   2.426   7.776  0.00  0.00    +0.292 HD
ENDBRANCH   8  20
TORSDOF 2
