REMARK  Name = ZINC05774193
REMARK  2 active torsions:
REMARK  status: ('A' for Active; 'I' for Inactive)
REMARK    1  A    between atoms: C_4  and  N_7
REMARK    2  A    between atoms: C_11  and  C_12
REMARK                            x       y       z     vdW  Elec       q    Type
REMARK                         _______ _______ _______ _____ _____    ______ ____
ROOT
ATOM      1  N   UNL     1       0.701   3.060   0.017  0.00  0.00    -0.189 N 
ATOM      2  C   UNL     1      -0.644   3.156  -0.008  0.00  0.00    +0.273 C 
ATOM      3  O   UNL     1      -1.304   4.177  -0.059  0.00  0.00    -0.268 OA
ATOM      4  C   UNL     1      -1.154   1.775   0.032  0.00  0.00    +0.099 C 
ATOM      5  C   UNL     1      -2.449   1.374   0.019  0.00  0.00    +0.038 C 
ATOM      6  N   UNL     1      -0.012   0.964   0.088  0.00  0.00    -0.264 N 
ATOM      7  C   UNL     1       1.064   1.770   0.074  0.00  0.00    +0.318 C 
ATOM      8  O   UNL     1       2.216   1.380   0.107  0.00  0.00    -0.251 OA
ATOM      9  H   UNL     1      -0.001  -0.005   0.125  0.00  0.00    +0.157 HD
ENDROOT
BRANCH   5  10
ATOM     10  C   UNL     1      -2.775  -0.054  -0.098  0.00  0.00    -0.005 A 
ATOM     11  C   UNL     1      -1.878  -0.932  -0.716  0.00  0.00    +0.009 A 
ATOM     12  C   UNL     1      -2.191  -2.271  -0.821  0.00  0.00    +0.001 A 
ATOM     13  C   UNL     1      -3.389  -2.748  -0.318  0.00  0.00    +0.001 A 
ATOM     14  C   UNL     1      -4.283  -1.887   0.295  0.00  0.00    +0.020 A 
ATOM     15  C   UNL     1      -3.983  -0.545   0.414  0.00  0.00    +0.048 A 
ATOM     16 CL   UNL     1      -5.101   0.532   1.190  0.00  0.00    -0.083 Cl
ENDBRANCH   5  10
BRANCH   1  20
ATOM     17  C   UNL     1       3.334   6.290  -0.066  0.00  0.00    +0.000 A 
ATOM     18  C   UNL     1       3.827   5.000  -0.007  0.00  0.00    +0.002 A 
ATOM     19  C   UNL     1       2.957   3.927   0.021  0.00  0.00    +0.024 A 
ATOM     20  C   UNL     1       1.586   4.146  -0.011  0.00  0.00    +0.046 A 
ATOM     21  C   UNL     1       1.094   5.443  -0.075  0.00  0.00    +0.024 A 
ATOM     22  C   UNL     1       1.969   6.511  -0.097  0.00  0.00    +0.002 A 
ENDBRANCH   1  20
TORSDOF 2
