REMARK  Name = ZINC34973912
REMARK  1 active torsions:
REMARK  status: ('A' for Active; 'I' for Inactive)
REMARK    1  A    between atoms: C_3  and  N_9
REMARK                            x       y       z     vdW  Elec       q    Type
REMARK                         _______ _______ _______ _____ _____    ______ ____
ROOT
ATOM      1  N   UNL     1       3.584   2.127  -0.021  0.00  0.00    -0.297 N 
ATOM      2  C   UNL     1       3.567   3.515  -0.119  0.00  0.00    +0.146 A 
ATOM      3  C   UNL     1       4.763   4.225  -0.232  0.00  0.00    +0.048 A 
ATOM      4  C   UNL     1       4.692   5.605  -0.327  0.00  0.00    +0.045 A 
ATOM      5  C   UNL     1       3.436   6.197  -0.303  0.00  0.00    +0.152 A 
ATOM      6  N   UNL     1       2.356   5.448  -0.193  0.00  0.00    -0.136 NA
ATOM      7  N   UNL     1       2.415   4.169  -0.111  0.00  0.00    -0.133 NA
ATOM      8 CL   UNL     1       3.287   7.923  -0.417  0.00  0.00    -0.060 Cl
ATOM      9  H   UNL     1       4.428   1.657   0.061  0.00  0.00    +0.154 HD
ENDROOT
BRANCH   1  12
ATOM     10  C   UNL     1       0.073   1.243  -0.665  0.00  0.00    +0.040 A 
ATOM     11  C   UNL     1       1.258   1.953  -0.646  0.00  0.00    +0.027 A 
ATOM     12  C   UNL     1       2.383   1.410  -0.041  0.00  0.00    +0.051 A 
ATOM     13  C   UNL     1       2.314   0.151   0.546  0.00  0.00    +0.065 A 
ATOM     14  C   UNL     1       1.127  -0.555   0.525  0.00  0.00    +0.060 A 
ATOM     15  C   UNL     1       0.006  -0.010  -0.080  0.00  0.00    +0.125 A 
ATOM     16  F   UNL     1      -1.154  -0.703  -0.100  0.00  0.00    -0.205 F 
ATOM     17 CL   UNL     1       3.718  -0.532   1.304  0.00  0.00    -0.082 Cl
ENDBRANCH   1  12
TORSDOF 1
