REMARK  Name = ZINC07253482
REMARK  6 active torsions:
REMARK  status: ('A' for Active; 'I' for Inactive)
REMARK    1  A    between atoms: C_1  and  N_2
REMARK    2  A    between atoms: C_3  and  C_5
REMARK    3  A    between atoms: N_8  and  C_16
REMARK    4  A    between atoms: C_16  and  C_17
REMARK    5  A    between atoms: N_19  and  C_20
REMARK    6  A    between atoms: C_21  and  C_28
REMARK                            x       y       z     vdW  Elec       q    Type
REMARK                         _______ _______ _______ _____ _____    ______ ____
ROOT
ATOM      1  C   UNL     1      -2.144   2.839  -5.551  0.00  0.00    +0.235 C 
ATOM      2  O   UNL     1      -1.044   2.329  -5.565  0.00  0.00    -0.274 OA
ATOM      3  N   UNL     1      -2.858   2.867  -4.408  0.00  0.00    -0.278 N 
ATOM      4  H   UNL     1      -3.739   3.275  -4.397  0.00  0.00    +0.155 HD
ENDROOT
BRANCH   3   5
ATOM      5  C   UNL     1      -2.336   2.313  -3.249  0.00  0.00    +0.084 A 
ATOM      6  C   UNL     1      -2.912   2.246  -1.992  0.00  0.00    +0.068 A 
ATOM      7  C   UNL     1      -2.143   1.602  -0.929  0.00  0.00    -0.023 A 
ATOM      8  C   UNL     1      -0.935   1.139  -1.297  0.00  0.00    -0.004 A 
ATOM      9  S   UNL     1      -0.805   1.538  -3.023  0.00  0.00    -0.077 S 
ATOM     10  C   UNL     1      -0.204   0.494  -0.151  0.00  0.00    +0.043 C 
ATOM     11  C   UNL     1      -0.939   0.994   1.113  0.00  0.00    +0.010 C 
ATOM     12  C   UNL     1      -2.348   1.294   0.555  0.00  0.00    +0.037 C 
BRANCH   6  13
ATOM     13  C   UNL     1      -4.245   2.800  -1.737  0.00  0.00    +0.244 C 
ATOM     14  O   UNL     1      -5.232   2.102  -1.880  0.00  0.00    -0.270 OA
ATOM     15  N   UNL     1      -4.378   4.083  -1.345  0.00  0.00    -0.325 N 
ATOM     16  H   UNL     1      -3.592   4.639  -1.231  0.00  0.00    +0.145 HD
ATOM     17  H   UNL     1      -5.260   4.449  -1.176  0.00  0.00    +0.145 HD
ENDBRANCH   6  13
ENDBRANCH   3   5
BRANCH   1  18
ATOM     18  C   UNL     1      -2.711   3.441  -6.810  0.00  0.00    +0.201 C 
BRANCH  18  21
ATOM     19  C   UNL     1      -0.309   2.026  -9.332  0.00  0.00    +0.276 C 
ATOM     20  C   UNL     1      -1.458   2.020  -8.316  0.00  0.00    +0.160 C 
ATOM     21  N   UNL     1      -1.698   3.398  -7.873  0.00  0.00    -0.314 N 
ATOM     22  C   UNL     1      -0.520   4.034  -7.468  0.00  0.00    +0.073 A 
ATOM     23  C   UNL     1      -0.616   5.153  -6.647  0.00  0.00    +0.027 A 
ATOM     24  C   UNL     1       0.526   5.808  -6.229  0.00  0.00    +0.002 A 
ATOM     25  C   UNL     1       1.770   5.356  -6.627  0.00  0.00    +0.004 A 
ATOM     26  C   UNL     1       1.874   4.245  -7.442  0.00  0.00    +0.047 A 
ATOM     27  C   UNL     1       0.732   3.579  -7.864  0.00  0.00    +0.143 A 
ATOM     28  O   UNL     1       0.869   2.484  -8.662  0.00  0.00    -0.476 OA
BRANCH  19  31
ATOM     29  C   UNL     1      -0.828  -1.329 -11.101  0.00  0.00    +0.128 C 
ATOM     30  N   UNL     1      -1.044   0.026 -10.589  0.00  0.00    -0.315 N 
ATOM     31  C   UNL     1      -0.087   0.632  -9.859  0.00  0.00    +0.255 C 
ATOM     32  O   UNL     1       0.954   0.054  -9.626  0.00  0.00    -0.272 OA
ATOM     33  H   UNL     1      -1.877   0.488 -10.775  0.00  0.00    +0.148 HD
ENDBRANCH  19  31
ENDBRANCH  18  21
ENDBRANCH   1  18
TORSDOF 5
