REMARK  Name = ZINC08877696
REMARK  3 active torsions:
REMARK  status: ('A' for Active; 'I' for Inactive)
REMARK    1  A    between atoms: C_1  and  C_2
REMARK    2  A    between atoms: C_13  and  C_15
REMARK    3  A    between atoms: C_15  and  N_16
REMARK                            x       y       z     vdW  Elec       q    Type
REMARK                         _______ _______ _______ _____ _____    ______ ____
ROOT
ATOM      1  C   UNL     1      -3.036   1.846   2.275  0.00  0.00    +0.028 C 
ATOM      2  C   UNL     1      -2.333   1.333   1.016  0.00  0.00    +0.079 C 
ATOM      3  C   UNL     1      -0.812   1.427   1.196  0.00  0.00    +0.027 C 
ATOM      4  C   UNL     1      -0.131   0.844  -0.042  0.00  0.00    +0.039 C 
ATOM      5  C   UNL     1      -0.690   1.466  -1.294  0.00  0.00    -0.026 A 
ATOM      6  C   UNL     1       0.054   1.410  -2.461  0.00  0.00    +0.005 A 
ATOM      7  C   UNL     1      -0.433   1.970  -3.626  0.00  0.00    +0.000 A 
ATOM      8  C   UNL     1      -1.669   2.591  -3.635  0.00  0.00    +0.002 A 
ATOM      9  C   UNL     1      -2.416   2.652  -2.476  0.00  0.00    +0.024 A 
ATOM     10  C   UNL     1      -1.927   2.091  -1.302  0.00  0.00    +0.040 A 
ATOM     11  N   UNL     1      -2.700   2.168  -0.135  0.00  0.00    -0.267 N 
ATOM     12  C   UNL     1      -3.763   2.995  -0.070  0.00  0.00    +0.238 C 
ATOM     13  O   UNL     1      -3.943   3.820  -0.941  0.00  0.00    -0.273 OA
ENDROOT
BRANCH  12  14
ATOM     14  C   UNL     1      -4.726   2.895   1.084  0.00  0.00    +0.214 C 
BRANCH  14  15
ATOM     15  N   UNL     1      -5.904   3.723   0.810  0.00  0.00    -0.215 N 
ATOM     16  C   UNL     1      -7.013   3.282   0.177  0.00  0.00    +0.244 C 
ATOM     17  O   UNL     1      -7.252   2.151  -0.187  0.00  0.00    -0.273 OA
ATOM     18  C   UNL     1      -7.891   4.498   0.019  0.00  0.00    +0.164 C 
ATOM     19  C   UNL     1      -9.277   4.301   0.665  0.00  0.00    +0.033 C 
ATOM     20  C   UNL     1      -9.643   5.744   1.101  0.00  0.00    +0.021 C 
ATOM     21  C   UNL     1      -8.291   6.483   1.203  0.00  0.00    +0.110 C 
ATOM     22  N   UNL     1      -7.241   5.490   0.917  0.00  0.00    -0.274 N 
ATOM     23  C   UNL     1      -6.018   5.013   1.163  0.00  0.00    +0.312 C 
ATOM     24  O   UNL     1      -5.116   5.669   1.645  0.00  0.00    -0.252 OA
ENDBRANCH  14  15
ENDBRANCH  12  14
TORSDOF 2
