REMARK  Name = ZINC66840046
REMARK  4 active torsions:
REMARK  status: ('A' for Active; 'I' for Inactive)
REMARK    1  A    between atoms: C_5  and  C_7
REMARK    2  A    between atoms: C_7  and  C_8
REMARK    3  A    between atoms: N_10  and  N_11
REMARK    4  A    between atoms: C_12  and  C_14
REMARK                            x       y       z     vdW  Elec       q    Type
REMARK                         _______ _______ _______ _____ _____    ______ ____
ROOT
ATOM      1  N   UNL     1       1.548  -4.494   2.938  0.00  0.00    -0.230 N 
ATOM      2  C   UNL     1       1.590  -5.820   3.176  0.00  0.00    +0.264 C 
ATOM      3  O   UNL     1       1.511  -6.606   2.251  0.00  0.00    -0.269 OA
ATOM      4  H   UNL     1       1.611  -3.867   3.676  0.00  0.00    +0.173 HD
ENDROOT
BRANCH   2   5
ATOM      5  C   UNL     1       1.731  -6.318   4.558  0.00  0.00    +0.082 A 
ATOM      6  C   UNL     1       1.816  -5.418   5.625  0.00  0.00    +0.017 A 
ATOM      7  C   UNL     1       1.948  -5.887   6.914  0.00  0.00    +0.003 A 
ATOM      8  C   UNL     1       1.997  -7.249   7.164  0.00  0.00    +0.027 A 
ATOM      9  C   UNL     1       1.914  -8.151   6.118  0.00  0.00    +0.076 A 
ATOM     10  C   UNL     1       1.774  -7.692   4.809  0.00  0.00    +0.154 A 
ATOM     11  O   UNL     1       1.690  -8.586   3.792  0.00  0.00    -0.480 OA
ATOM     12  C   UNL     1       2.418  -9.807   3.947  0.00  0.00    +0.325 C 
ATOM     13  C   UNL     1       2.176 -10.370   5.324  0.00  0.00    +0.255 C 
ATOM     14  O   UNL     1       2.186 -11.570   5.502  0.00  0.00    -0.272 OA
ATOM     15  N   UNL     1       1.962  -9.532   6.358  0.00  0.00    -0.280 N 
ATOM     16  H   UNL     1       1.829  -9.882   7.253  0.00  0.00    +0.155 HD
ENDBRANCH   2   5
BRANCH   1  19
ATOM     17  C   UNL     1       1.372  -2.695   1.389  0.00  0.00    +0.233 C 
ATOM     18  O   UNL     1       1.451  -1.911   2.311  0.00  0.00    -0.274 OA
ATOM     19  N   UNL     1       1.414  -4.021   1.627  0.00  0.00    -0.234 N 
ATOM     20  H   UNL     1       1.351  -4.648   0.889  0.00  0.00    +0.173 HD
BRANCH  17  21
ATOM     21  C   UNL     1       1.228  -2.186  -0.022  0.00  0.00    +0.135 C 
BRANCH  21  26
ATOM     22  C   UNL     1      -0.017   1.378   0.010  0.00  0.00    +0.000 A 
ATOM     23  C   UNL     1       1.171   2.087   0.002  0.00  0.00    +0.003 A 
ATOM     24  C   UNL     1       2.377   1.414  -0.013  0.00  0.00    +0.038 A 
ATOM     25  C   UNL     1       2.397   0.029  -0.021  0.00  0.00    +0.127 A 
ATOM     26  C   UNL     1       1.208  -0.679  -0.013  0.00  0.00    -0.003 A 
ATOM     27  C   UNL     1       0.002  -0.004   0.002  0.00  0.00    +0.007 A 
ATOM     28  F   UNL     1       3.577  -0.630  -0.036  0.00  0.00    -0.205 F 
ENDBRANCH  21  26
ENDBRANCH  17  21
ENDBRANCH   1  19
TORSDOF 4
