REMARK  Name = ZINC62263152
REMARK  6 active torsions:
REMARK  status: ('A' for Active; 'I' for Inactive)
REMARK    1  A    between atoms: C_1  and  C_2
REMARK    2  A    between atoms: C_2  and  C_3
REMARK    3  A    between atoms: C_2  and  N_15
REMARK    4  A    between atoms: C_16  and  C_18
REMARK    5  A    between atoms: C_25  and  S_27
REMARK    6  A    between atoms: S_27  and  C_28
REMARK                            x       y       z     vdW  Elec       q    Type
REMARK                         _______ _______ _______ _____ _____    ______ ____
ROOT
ATOM      1  N   UNL     1       0.688  -0.476  -1.203  0.00  0.00    -0.303 N 
ATOM      2  C   UNL     1       2.031  -0.587  -1.215  0.00  0.00    +0.265 C 
ATOM      3  O   UNL     1       2.675  -0.294  -0.223  0.00  0.00    -0.268 OA
ATOM      4  H   UNL     1       0.175  -0.710  -1.993  0.00  0.00    +0.150 HD
ENDROOT
BRANCH   2   5
ATOM      5  C   UNL     1       2.695  -1.044  -2.381  0.00  0.00    +0.152 A 
ATOM      6  C   UNL     1       4.075  -1.215  -2.541  0.00  0.00    +0.079 A 
ATOM      7  C   UNL     1       5.176  -1.015  -1.695  0.00  0.00    +0.028 A 
ATOM      8  C   UNL     1       6.429  -1.280  -2.160  0.00  0.00    +0.004 A 
ATOM      9  C   UNL     1       6.597  -1.747  -3.474  0.00  0.00    +0.018 A 
ATOM     10  C   UNL     1       5.529  -1.934  -4.277  0.00  0.00    +0.094 A 
ATOM     11  N   UNL     1       4.265  -1.673  -3.824  0.00  0.00    -0.294 N 
ATOM     12  C   UNL     1       3.033  -1.771  -4.408  0.00  0.00    +0.174 A 
ATOM     13  N   UNL     1       2.110  -1.405  -3.554  0.00  0.00    -0.216 NA
BRANCH  12  14
ATOM     14  S   UNL     1       2.731  -2.313  -6.057  0.00  0.00    -0.091 S 
ATOM     15  C   UNL     1       0.927  -2.221  -6.226  0.00  0.00    +0.093 C 
ENDBRANCH  12  14
ENDBRANCH   2   5
BRANCH   1  17
ATOM     16  C   UNL     1      -0.019   1.526   0.010  0.00  0.00    +0.033 C 
ATOM     17  C   UNL     1       0.002  -0.004   0.002  0.00  0.00    +0.101 C 
BRANCH  17  18
ATOM     18  C   UNL     1      -1.412  -0.526   0.013  0.00  0.00    -0.025 A 
ATOM     19  C   UNL     1      -2.140  -0.568  -1.164  0.00  0.00    +0.007 A 
ATOM     20  C   UNL     1      -3.436  -1.044  -1.164  0.00  0.00    +0.028 A 
ATOM     21  C   UNL     1      -4.011  -1.482   0.019  0.00  0.00    +0.067 A 
ATOM     22  C   UNL     1      -3.276  -1.440   1.206  0.00  0.00    +0.067 A 
ATOM     23  C   UNL     1      -1.974  -0.965   1.195  0.00  0.00    +0.033 A 
ATOM     24  N   UNL     1      -4.104  -1.937   2.210  0.00  0.00    -0.306 N 
ATOM     25  H   UNL     1      -3.868  -2.030   3.146  0.00  0.00    +0.170 HD
ATOM     26  C   UNL     1      -5.288  -2.267   1.659  0.00  0.00    +0.325 A 
ATOM     27  O   UNL     1      -6.237  -2.732   2.262  0.00  0.00    -0.247 OA
ATOM     28  N   UNL     1      -5.262  -2.004   0.338  0.00  0.00    -0.306 N 
ATOM     29  H   UNL     1      -5.991  -2.152  -0.284  0.00  0.00    +0.170 HD
ENDBRANCH  17  18
ENDBRANCH   1  17
TORSDOF 4
