REMARK  Name = ZINC47350587
REMARK  6 active torsions:
REMARK  status: ('A' for Active; 'I' for Inactive)
REMARK    1  A    between atoms: C_1  and  C_2
REMARK    2  A    between atoms: C_2  and  C_3
REMARK    3  A    between atoms: C_2  and  C_4
REMARK    4  A    between atoms: C_6  and  C_9
REMARK    5  A    between atoms: C_9  and  N_10
REMARK    6  A    between atoms: N_19  and  C_22
REMARK                            x       y       z     vdW  Elec       q    Type
REMARK                         _______ _______ _______ _____ _____    ______ ____
ROOT
ATOM      1  N   UNL     1      -4.462  -1.655  -2.787  0.00  0.00    -0.218 N 
ATOM      2  C   UNL     1      -5.737  -1.217  -2.837  0.00  0.00    +0.247 C 
ATOM      3  O   UNL     1      -6.599  -1.370  -1.998  0.00  0.00    -0.273 OA
ATOM      4  C   UNL     1      -5.864  -0.493  -4.158  0.00  0.00    +0.115 C 
ATOM      5  C   UNL     1      -6.911  -1.170  -5.036  0.00  0.00    +0.035 C 
ATOM      6  C   UNL     1      -7.002  -0.441  -6.379  0.00  0.00    +0.003 C 
ATOM      7  C   UNL     1      -7.381   1.022  -6.139  0.00  0.00    +0.000 C 
ATOM      8  C   UNL     1      -6.310   1.693  -5.277  0.00  0.00    +0.003 C 
ATOM      9  C   UNL     1      -6.217   0.973  -3.929  0.00  0.00    +0.035 C 
ATOM     10  N   UNL     1      -4.530  -0.614  -4.760  0.00  0.00    -0.274 N 
ATOM     11  C   UNL     1      -3.778  -1.305  -3.883  0.00  0.00    +0.312 C 
ATOM     12  O   UNL     1      -2.609  -1.582  -4.067  0.00  0.00    -0.252 OA
ATOM     13  C   UNL     1      -4.102  -0.084  -6.057  0.00  0.00    +0.134 C 
ENDROOT
BRANCH   1  14
ATOM     14  C   UNL     1      -3.896  -2.415  -1.670  0.00  0.00    +0.173 C 
BRANCH  14  17
ATOM     15  C   UNL     1      -1.588  -0.163   0.103  0.00  0.00    +0.081 A 
ATOM     16  N   UNL     1      -2.089  -0.991  -0.778  0.00  0.00    -0.247 NA
ATOM     17  C   UNL     1      -3.315  -1.462  -0.658  0.00  0.00    +0.067 A 
ATOM     18  C   UNL     1      -4.029  -1.049   0.420  0.00  0.00    +0.071 A 
ATOM     19  S   UNL     1      -2.839   0.021   1.213  0.00  0.00    -0.080 S 
BRANCH  15  21
ATOM     20  C   UNL     1      -0.360   1.992   0.088  0.00  0.00    +0.014 C 
ATOM     21  C   UNL     1      -0.219   0.469   0.122  0.00  0.00    +0.038 C 
ATOM     22  C   UNL     1       0.517   0.052   1.397  0.00  0.00    +0.014 C 
ENDBRANCH  15  21
ENDBRANCH  14  17
ENDBRANCH   1  14
TORSDOF 3
