REMARK  Name = ZINC39469646
REMARK  5 active torsions:
REMARK  status: ('A' for Active; 'I' for Inactive)
REMARK    1  A    between atoms: C_1  and  O_2
REMARK    2  A    between atoms: O_2  and  C_3
REMARK    3  A    between atoms: P_12  and  S_22
REMARK    4  A    between atoms: S_22  and  O_25
REMARK    5  A    between atoms: O_25  and  C_26
REMARK                            x       y       z     vdW  Elec       q    Type
REMARK                         _______ _______ _______ _____ _____    ______ ____
ROOT
ATOM      1  C   UNL     1       0.606  -0.607  -1.056  0.00  0.00    +0.134 C 
ATOM      2  C   UNL     1       1.154   0.128  -2.028  0.00  0.00    +0.024 C 
ATOM      3  C   UNL     1       1.806  -0.561  -3.196  0.00  0.00    +0.019 C 
ATOM      4  C   UNL     1       1.849   0.361  -4.408  0.00  0.00    -0.002 C 
ATOM      5  C   UNL     1       0.432   0.677  -4.901  0.00  0.00    -0.020 C 
ATOM      6  C   UNL     1       0.576   1.581  -6.133  0.00  0.00    +0.158 C 
ATOM      7  O   UNL     1      -0.728   1.951  -6.614  0.00  0.00    -0.301 OA
ATOM      8  P   UNL     1      -1.812   0.761  -6.850  0.00  0.00    +0.431 P 
ATOM      9  O   UNL     1      -1.562   0.088  -8.144  0.00  0.00    -0.246 OA
ATOM     10  N   UNL     1      -1.575  -0.293  -5.602  0.00  0.00    -0.271 NA
ATOM     11  N   UNL     1      -0.275  -0.562  -5.228  0.00  0.00    +0.398 N 
ATOM     12  C   UNL     1      -0.367  -1.428  -4.042  0.00  0.00    -0.046 C 
ATOM     13  C   UNL     1       1.011  -1.819  -3.559  0.00  0.00    +0.006 C 
ATOM     14  C   UNL     1       0.848  -2.666  -2.320  0.00  0.00    -0.001 C 
ATOM     15  C   UNL     1       0.668  -2.080  -1.138  0.00  0.00    +0.079 C 
ATOM     16 CL   UNL     1       0.500  -3.041   0.298  0.00  0.00    -0.080 Cl
ATOM     17  H   UNL     1      -2.325  -0.709  -5.148  0.00  0.00    +0.113 HD
ATOM     18  H   UNL     1       0.204  -1.041  -5.976  0.00  0.00    -0.055 HD
ENDROOT
BRANCH   8  19
ATOM     19  S   UNL     1      -3.783   1.539  -6.796  0.00  0.00    +0.209 S 
ATOM     20  O   UNL     1      -4.651   0.472  -7.152  0.00  0.00    -0.126 OA
ATOM     21  O   UNL     1      -3.907   2.246  -5.570  0.00  0.00    -0.126 OA
BRANCH  19  22
ATOM     22  O   UNL     1      -3.889   2.574  -7.908  0.00  0.00    -0.339 OA
BRANCH  22  23
ATOM     23  C   UNL     1      -3.979   2.039  -9.154  0.00  0.00    +0.157 A 
ATOM     24  C   UNL     1      -2.828   1.780  -9.884  0.00  0.00    +0.048 A 
ATOM     25  C   UNL     1      -2.923   1.236 -11.150  0.00  0.00    +0.004 A 
ATOM     26  C   UNL     1      -4.163   0.951 -11.690  0.00  0.00    +0.000 A 
ATOM     27  C   UNL     1      -5.312   1.208 -10.965  0.00  0.00    +0.004 A 
ATOM     28  C   UNL     1      -5.222   1.746  -9.695  0.00  0.00    +0.048 A 
ENDBRANCH  22  23
ENDBRANCH  19  22
ENDBRANCH   8  19
BRANCH   1  30
ATOM     29  C   UNL     1      -0.017   1.425   0.010  0.00  0.00    +0.277 C 
ATOM     30  O   UNL     1       0.002  -0.004   0.002  0.00  0.00    -0.494 OA
ENDBRANCH   1  30
TORSDOF 4
