REMARK  Name = ZINC05618261
REMARK  6 active torsions:
REMARK  status: ('A' for Active; 'I' for Inactive)
REMARK    1  A    between atoms: C_1  and  C_2
REMARK    2  A    between atoms: C_5  and  C_11
REMARK    3  A    between atoms: C_7  and  N_8
REMARK    4  A    between atoms: N_13  and  N_14
REMARK    5  A    between atoms: C_15  and  C_16
REMARK    6  A    between atoms: C_15  and  C_17
REMARK                            x       y       z     vdW  Elec       q    Type
REMARK                         _______ _______ _______ _____ _____    ______ ____
ROOT
ATOM      1  C   UNL     1       0.551  -4.199  -0.095  0.00  0.00    +0.263 C 
ATOM      2  O   UNL     1       0.867  -4.790   0.919  0.00  0.00    -0.268 OA
ATOM      3  N   UNL     1       0.452  -4.867  -1.261  0.00  0.00    -0.203 N 
ATOM      4  H   UNL     1       0.200  -4.395  -2.070  0.00  0.00    +0.178 HD
ENDROOT
BRANCH   1   9
ATOM      5  C   UNL     1      -0.517   1.451   0.085  0.00  0.00    +0.046 C 
ATOM      6  C   UNL     1      -0.237  -0.029   0.038  0.00  0.00    -0.020 A 
ATOM      7  C   UNL     1      -0.340  -0.712  -1.162  0.00  0.00    +0.006 A 
ATOM      8  C   UNL     1      -0.085  -2.066  -1.212  0.00  0.00    +0.013 A 
ATOM      9  C   UNL     1       0.278  -2.749  -0.049  0.00  0.00    +0.041 A 
ATOM     10  C   UNL     1       0.380  -2.053   1.159  0.00  0.00    +0.046 A 
ATOM     11  C   UNL     1       0.127  -0.698   1.193  0.00  0.00    +0.130 A 
BRANCH  11  12
ATOM     12  N   UNL     1       0.241   0.042   2.470  0.00  0.00    +0.057 N 
ATOM     13  O   UNL     1       0.714   1.272   2.479  0.00  0.00    -0.126 OA
ATOM     14  O   UNL     1      -0.131  -0.528   3.597  0.00  0.00    -0.126 OA
ENDBRANCH  11  12
ENDBRANCH   1   9
BRANCH   3  15
ATOM     15  N   UNL     1       0.691  -6.134  -1.301  0.00  0.00    -0.184 NA
ATOM     16  C   UNL     1       0.591  -6.798  -2.460  0.00  0.00    +0.070 C 
ATOM     17  C   UNL     1       0.200  -6.065  -3.717  0.00  0.00    +0.068 C 
BRANCH  16  18
ATOM     18  C   UNL     1       0.847  -8.153  -2.503  0.00  0.00    +0.035 A 
ATOM     19  C   UNL     1       1.237  -9.068  -1.402  0.00  0.00    +0.017 A 
ATOM     20  C   UNL     1       1.412 -10.337  -1.776  0.00  0.00    +0.008 A 
ATOM     21  C   UNL     1       1.224 -10.692  -3.120  0.00  0.00    +0.046 A 
ATOM     22  S   UNL     1       0.789  -9.267  -3.895  0.00  0.00    -0.095 S 
ENDBRANCH  16  18
ENDBRANCH   3  15
TORSDOF 4
