REMARK  Name = ZINC51413156
REMARK  6 active torsions:
REMARK  status: ('A' for Active; 'I' for Inactive)
REMARK    1  A    between atoms: C_1  and  C_2
REMARK    2  A    between atoms: C_3  and  C_13
REMARK    3  A    between atoms: C_5  and  C_7
REMARK    4  A    between atoms: N_15  and  C_16
REMARK    5  A    between atoms: C_16  and  C_17
REMARK    6  A    between atoms: N_19  and  C_20
REMARK                            x       y       z     vdW  Elec       q    Type
REMARK                         _______ _______ _______ _____ _____    ______ ____
ROOT
ATOM      1  C   UNL     1      -0.009  -0.195  -2.574  0.00  0.00    +0.253 C 
ATOM      2  O   UNL     1      -0.027   1.005  -2.781  0.00  0.00    -0.270 OA
ATOM      3  N   UNL     1      -0.003  -1.057  -3.610  0.00  0.00    -0.302 N 
ATOM      4  H   UNL     1       0.012  -2.013  -3.445  0.00  0.00    +0.150 HD
ENDROOT
BRANCH   1   7
ATOM      5  C   UNL     1      -0.018   1.503   0.010  0.00  0.00    +0.067 C 
ATOM      6  C   UNL     1       0.002  -0.004   0.002  0.00  0.00    +0.058 A 
ATOM      7  C   UNL     1       0.005  -0.700  -1.200  0.00  0.00    +0.097 A 
ATOM      8  S   UNL     1       0.031  -2.386  -0.604  0.00  0.00    -0.062 S 
ATOM      9  C   UNL     1       0.035  -2.002   1.142  0.00  0.00    +0.116 A 
ATOM     10  N   UNL     1       0.022  -0.669   1.122  0.00  0.00    -0.243 NA
BRANCH   9  11
ATOM     11  C   UNL     1       0.053  -2.913   2.293  0.00  0.00    +0.046 A 
ATOM     12  C   UNL     1       0.050  -2.612   3.644  0.00  0.00    +0.019 A 
ATOM     13  C   UNL     1       0.069  -3.649   4.545  0.00  0.00    +0.028 A 
ATOM     14  C   UNL     1       0.091  -4.930   4.085  0.00  0.00    +0.079 A 
ATOM     15  S   UNL     1       0.076  -4.698   2.315  0.00  0.00    -0.075 S 
ATOM     16 CL   UNL     1       0.118  -6.412   4.989  0.00  0.00    -0.076 Cl
ENDBRANCH   9  11
ENDBRANCH   1   7
BRANCH   3  17
ATOM     17  C   UNL     1      -0.017  -0.551  -4.984  0.00  0.00    +0.200 C 
BRANCH  17  18
ATOM     18  C   UNL     1      -0.006  -1.710  -5.947  0.00  0.00    +0.234 C 
ATOM     19  O   UNL     1       0.012  -2.848  -5.526  0.00  0.00    -0.274 OA
ATOM     20  N   UNL     1      -0.016  -1.484  -7.275  0.00  0.00    -0.282 N 
ATOM     21  H   UNL     1      -0.031  -0.574  -7.612  0.00  0.00    +0.155 HD
BRANCH  20  22
ATOM     22  C   UNL     1      -0.006  -2.567  -8.174  0.00  0.00    +0.071 A 
ATOM     23  C   UNL     1      -0.009  -2.481  -9.529  0.00  0.00    +0.128 A 
ATOM     24  N   UNL     1       0.004  -3.747 -10.020  0.00  0.00    -0.283 N 
ATOM     25  H   UNL     1       0.005  -3.997 -10.957  0.00  0.00    +0.188 HD
ATOM     26  N   UNL     1       0.015  -4.630  -8.932  0.00  0.00    -0.180 NA
ATOM     27  C   UNL     1       0.016  -3.926  -7.830  0.00  0.00    +0.157 A 
ENDBRANCH  20  22
ENDBRANCH  17  18
ENDBRANCH   3  17
TORSDOF 5
