REMARK  Name = ZINC67041065
REMARK  6 active torsions:
REMARK  status: ('A' for Active; 'I' for Inactive)
REMARK    1  A    between atoms: C_1  and  C_2
REMARK    2  A    between atoms: C_2  and  C_4
REMARK    3  A    between atoms: C_2  and  N_7
REMARK    4  A    between atoms: C_4  and  C_5
REMARK    5  A    between atoms: C_4  and  C_6
REMARK    6  A    between atoms: C_14  and  C_16
REMARK                            x       y       z     vdW  Elec       q    Type
REMARK                         _______ _______ _______ _____ _____    ______ ____
ROOT
ATOM      1  N   UNL     1       0.688  -0.476  -1.203  0.00  0.00    -0.296 N 
ATOM      2  C   UNL     1       0.006  -0.608  -2.358  0.00  0.00    +0.303 C 
ATOM      3  O   UNL     1      -1.178  -0.335  -2.400  0.00  0.00    -0.253 OA
ATOM      4  N   UNL     1       0.637  -1.043  -3.467  0.00  0.00    -0.278 N 
ATOM      5  C   UNL     1       2.061  -1.414  -3.556  0.00  0.00    +0.110 C 
ATOM      6  C   UNL     1       2.143  -2.388  -4.758  0.00  0.00    +0.021 C 
ATOM      7  C   UNL     1       1.113  -1.763  -5.736  0.00  0.00    +0.029 C 
ATOM      8  C   UNL     1       0.018  -1.231  -4.787  0.00  0.00    +0.111 C 
ATOM      9  H   UNL     1       1.632  -0.695  -1.170  0.00  0.00    +0.151 HD
ENDROOT
BRANCH   8  10
ATOM     10  C   UNL     1      -0.506   0.085  -5.301  0.00  0.00    +0.018 A 
ATOM     11  C   UNL     1       0.033   1.271  -4.837  0.00  0.00    +0.009 A 
ATOM     12  C   UNL     1      -0.446   2.480  -5.305  0.00  0.00    +0.004 A 
ATOM     13  C   UNL     1      -1.466   2.508  -6.238  0.00  0.00    +0.049 A 
ATOM     14  C   UNL     1      -2.011   1.322  -6.707  0.00  0.00    +0.162 A 
ATOM     15  C   UNL     1      -1.525   0.106  -6.241  0.00  0.00    +0.167 A 
ATOM     16  O   UNL     1      -2.037  -1.069  -6.698  0.00  0.00    -0.485 OA
ATOM     17  C   UNL     1      -3.305  -1.005  -7.358  0.00  0.00    +0.270 C 
ATOM     18  C   UNL     1      -3.269   0.160  -8.357  0.00  0.00    +0.270 C 
ATOM     19  O   UNL     1      -3.018   1.366  -7.622  0.00  0.00    -0.485 OA
ENDBRANCH   8  10
BRANCH   1  21
ATOM     20  C   UNL     1      -0.019   1.526   0.010  0.00  0.00    +0.028 C 
ATOM     21  C   UNL     1       0.002  -0.004   0.002  0.00  0.00    +0.074 C 
BRANCH  21  22
ATOM     22  C   UNL     1       0.742  -0.511   1.242  0.00  0.00    +0.003 C 
ATOM     23  C   UNL     1       0.026  -0.018   2.500  0.00  0.00    +0.009 C 
ATOM     24  C   UNL     1       0.763  -2.041   1.233  0.00  0.00    +0.009 C 
ENDBRANCH  21  22
ENDBRANCH   1  21
TORSDOF 3
