REMARK  Name = ZINC51632441
REMARK  6 active torsions:
REMARK  status: ('A' for Active; 'I' for Inactive)
REMARK    1  A    between atoms: C_1  and  C_2
REMARK    2  A    between atoms: C_2  and  C_3
REMARK    3  A    between atoms: C_2  and  C_4
REMARK    4  A    between atoms: C_4  and  C_6
REMARK    5  A    between atoms: C_4  and  C_8
REMARK    6  A    between atoms: N_10  and  C_11
REMARK                            x       y       z     vdW  Elec       q    Type
REMARK                         _______ _______ _______ _____ _____    ______ ____
ROOT
ATOM      1  C   UNL     1      -2.162  -0.034  -1.208  0.00  0.00    +0.230 C 
ATOM      2  O   UNL     1      -1.590   0.675  -2.008  0.00  0.00    -0.274 OA
ATOM      3  N   UNL     1      -3.450  -0.376  -1.411  0.00  0.00    -0.311 N 
ATOM      4  H   UNL     1      -3.908  -0.944  -0.771  0.00  0.00    +0.149 HD
ENDROOT
BRANCH   3   5
ATOM      5  C   UNL     1      -4.159   0.109  -2.598  0.00  0.00    +0.078 C 
ATOM      6  C   UNL     1      -5.667   0.128  -2.326  0.00  0.00    +0.027 C 
ATOM      7  C   UNL     1      -6.355   0.857  -3.479  0.00  0.00    +0.037 C 
ATOM      8  C   UNL     1      -5.917   0.285  -4.803  0.00  0.00    -0.044 A 
ATOM      9  C   UNL     1      -6.704   0.555  -5.915  0.00  0.00    +0.004 A 
ATOM     10  C   UNL     1      -6.354   0.065  -7.156  0.00  0.00    +0.000 A 
ATOM     11  C   UNL     1      -5.210  -0.699  -7.295  0.00  0.00    +0.000 A 
ATOM     12  C   UNL     1      -4.429  -0.970  -6.191  0.00  0.00    +0.004 A 
ATOM     13  C   UNL     1      -4.782  -0.481  -4.939  0.00  0.00    -0.042 A 
ATOM     14  C   UNL     1      -3.892  -0.827  -3.775  0.00  0.00    +0.057 C 
ENDBRANCH   3   5
BRANCH   1  15
ATOM     15  C   UNL     1      -1.433  -0.534   0.013  0.00  0.00    +0.179 C 
BRANCH  15  17
ATOM     16  C   UNL     1      -0.019   1.526   0.010  0.00  0.00    +0.009 C 
ATOM     17  C   UNL     1       0.002  -0.004   0.002  0.00  0.00    +0.009 C 
ATOM     18  C   UNL     1       0.742  -0.511   1.242  0.00  0.00    +0.009 C 
ENDBRANCH  15  17
BRANCH  15  19
ATOM     19  C   UNL     1      -1.413  -2.006   0.005  0.00  0.00    +0.076 C 
ATOM     20  N   UNL     1      -1.398  -3.141  -0.002  0.00  0.00    -0.196 NA
ENDBRANCH  15  19
ENDBRANCH   1  15
TORSDOF 4
