REMARK  Name = ZINC00506840
REMARK  3 active torsions:
REMARK  status: ('A' for Active; 'I' for Inactive)
REMARK    1  A    between atoms: C_4  and  N_7
REMARK    2  A    between atoms: C_10  and  C_15
REMARK    3  A    between atoms: C_15  and  C_16
REMARK                            x       y       z     vdW  Elec       q    Type
REMARK                         _______ _______ _______ _____ _____    ______ ____
ROOT
ATOM      1  N   UNL     1       3.623  -0.652  -0.037  0.00  0.00    -0.220 N 
ATOM      2  C   UNL     1       3.744  -1.992   0.046  0.00  0.00    +0.246 C 
ATOM      3  O   UNL     1       2.849  -2.803   0.145  0.00  0.00    -0.273 OA
ATOM      4  C   UNL     1       5.232  -2.273  -0.011  0.00  0.00    +0.163 C 
ATOM      5  N   UNL     1       5.834  -0.934  -0.132  0.00  0.00    -0.314 N 
ATOM      6  C   UNL     1       4.816  -0.055  -0.143  0.00  0.00    +0.144 C 
ATOM      7  S   UNL     1       5.023   1.640  -0.275  0.00  0.00    -0.018 S 
ATOM      8  H   UNL     1       6.779  -0.727  -0.194  0.00  0.00    +0.149 HD
ENDROOT
BRANCH   1  12
ATOM      9  C   UNL     1      -0.017   1.377   0.011  0.00  0.00    +0.000 A 
ATOM     10  C   UNL     1       0.749   1.362  -1.141  0.00  0.00    +0.002 A 
ATOM     11  C   UNL     1       1.956   0.690  -1.159  0.00  0.00    +0.024 A 
ATOM     12  C   UNL     1       2.399   0.031  -0.021  0.00  0.00    +0.043 A 
ATOM     13  C   UNL     1       1.628   0.049   1.133  0.00  0.00    +0.024 A 
ATOM     14  C   UNL     1       0.422   0.722   1.146  0.00  0.00    +0.002 A 
ENDBRANCH   1  12
BRANCH   4  15
ATOM     15  C   UNL     1       5.700  -2.963   1.272  0.00  0.00    +0.067 C 
BRANCH  15  16
ATOM     16  C   UNL     1       7.152  -3.342   1.138  0.00  0.00    -0.044 A 
ATOM     17  C   UNL     1       7.496  -4.580   0.614  0.00  0.00    +0.006 A 
ATOM     18  C   UNL     1       8.818  -4.946   0.484  0.00  0.00    +0.026 A 
ATOM     19  C   UNL     1       9.820  -4.066   0.881  0.00  0.00    +0.046 A 
ATOM     20  C   UNL     1       9.467  -2.812   1.411  0.00  0.00    -0.000 A 
ATOM     21  C   UNL     1       8.120  -2.460   1.529  0.00  0.00    +0.013 A 
ATOM     22  C   UNL     1      10.727  -2.136   1.726  0.00  0.00    +0.027 A 
ATOM     23  C   UNL     1      11.718  -2.975   1.387  0.00  0.00    +0.083 A 
ATOM     24  N   UNL     1      11.195  -4.134   0.880  0.00  0.00    -0.361 N 
ATOM     25  H   UNL     1      11.716  -4.890   0.566  0.00  0.00    +0.165 HD
ENDBRANCH  15  16
ENDBRANCH   4  15
TORSDOF 3
