REMARK  Name = ZINC14549630
REMARK  3 active torsions:
REMARK  status: ('A' for Active; 'I' for Inactive)
REMARK    1  A    between atoms: C_6  and  C_7
REMARK    2  A    between atoms: C_18  and  N_24
REMARK    3  A    between atoms: C_20  and  O_23
REMARK                            x       y       z     vdW  Elec       q    Type
REMARK                         _______ _______ _______ _____ _____    ______ ____
ROOT
ATOM      1  C   UNL     1       1.710   3.198   0.734  0.00  0.00    +0.105 C 
ATOM      2  C   UNL     1       1.484   1.886  -0.002  0.00  0.00    +0.029 C 
ATOM      3  C   UNL     1      -0.018   1.513   0.010  0.00  0.00    +0.033 C 
ATOM      4  C   UNL     1       0.002  -0.004   0.002  0.00  0.00    -0.030 C 
ATOM      5  C   UNL     1       1.153  -0.450   0.438  0.00  0.00    -0.023 C 
ATOM      6  C   UNL     1       2.070   0.707   0.800  0.00  0.00    +0.049 C 
ATOM      7  C   UNL     1       1.970   0.932   2.286  0.00  0.00    -0.014 A 
ATOM      8  C   UNL     1       2.376  -0.076   3.131  0.00  0.00    +0.039 A 
ATOM      9  C   UNL     1       2.302   0.072   4.500  0.00  0.00    +0.130 A 
ATOM     10  C   UNL     1       1.806   1.243   5.045  0.00  0.00    +0.080 A 
ATOM     11  C   UNL     1       1.385   2.262   4.211  0.00  0.00    +0.140 A 
ATOM     12  C   UNL     1       1.460   2.112   2.823  0.00  0.00    +0.074 A 
ATOM     13  N   UNL     1       1.019   3.172   2.024  0.00  0.00    -0.334 N 
ATOM     14  H   UNL     1       1.120   4.053   2.506  0.00  0.00    +0.147 HD
ENDROOT
BRANCH   1  20
ATOM     15  C   UNL     1      -0.183   4.605  -0.103  0.00  0.00    +0.008 A 
ATOM     16  C   UNL     1      -0.676   5.651  -0.860  0.00  0.00    +0.038 A 
ATOM     17  C   UNL     1       0.187   6.423  -1.619  0.00  0.00    +0.123 A 
ATOM     18  C   UNL     1       1.544   6.149  -1.615  0.00  0.00    +0.038 A 
ATOM     19  C   UNL     1       2.035   5.105  -0.854  0.00  0.00    +0.008 A 
ATOM     20  C   UNL     1       1.173   4.335  -0.096  0.00  0.00    -0.027 A 
ATOM     21  F   UNL     1      -0.295   7.443  -2.363  0.00  0.00    -0.205 F 
ENDBRANCH   1  20
BRANCH   9  22
ATOM     22  N   UNL     1       2.753  -1.023   5.388  0.00  0.00    +0.057 N 
ATOM     23  O   UNL     1       2.687  -0.893   6.597  0.00  0.00    -0.126 OA
ATOM     24  O   UNL     1       3.190  -2.054   4.909  0.00  0.00    -0.126 OA
ENDBRANCH   9  22
BRANCH  11  25
ATOM     25  O   UNL     1       0.897   3.415   4.743  0.00  0.00    -0.505 OA
ATOM     26  H   UNL     1      -0.059   3.407   4.890  0.00  0.00    +0.292 HD
ENDBRANCH  11  25
TORSDOF 3
