REMARK  Name = ZINC46643048
REMARK  12 active torsions:
REMARK  status: ('A' for Active; 'I' for Inactive)
REMARK    1  A    between atoms: C_1  and  C_2
REMARK    2  A    between atoms: C_2  and  C_4
REMARK    3  A    between atoms: C_2  and  O_25
REMARK    4  A    between atoms: N_6  and  N_7
REMARK    5  A    between atoms: C_8  and  C_10
REMARK    6  A    between atoms: C_14  and  S_16
REMARK    7  A    between atoms: S_16  and  N_19
REMARK    8  A    between atoms: N_19  and  C_20
REMARK    9  A    between atoms: C_20  and  C_21
REMARK   10  A    between atoms: C_20  and  C_22
REMARK   11  A    between atoms: C_20  and  C_23
REMARK   12  A    between atoms: O_25  and  C_26
REMARK                            x       y       z     vdW  Elec       q    Type
REMARK                         _______ _______ _______ _____ _____    ______ ____
ROOT
ATOM      1  N   UNL     1      -5.242  -1.308   1.965  0.00  0.00    -0.230 N 
ATOM      2  C   UNL     1      -6.045  -0.966   2.992  0.00  0.00    +0.260 C 
ATOM      3  O   UNL     1      -5.600  -0.325   3.924  0.00  0.00    -0.269 OA
ATOM      4  H   UNL     1      -5.598  -1.818   1.221  0.00  0.00    +0.173 HD
ENDROOT
BRANCH   2   5
ATOM      5  C   UNL     1      -7.467  -1.369   2.984  0.00  0.00    +0.040 A 
ATOM      6  C   UNL     1      -7.979  -2.109   1.917  0.00  0.00    +0.016 A 
ATOM      7  C   UNL     1      -9.306  -2.483   1.915  0.00  0.00    +0.041 A 
ATOM      8  C   UNL     1     -10.131  -2.125   2.970  0.00  0.00    +0.150 A 
ATOM      9  C   UNL     1      -9.627  -1.390   4.032  0.00  0.00    +0.141 A 
ATOM     10  C   UNL     1      -8.301  -1.016   4.047  0.00  0.00    +0.044 A 
ATOM     11  F   UNL     1     -11.431  -2.493   2.963  0.00  0.00    -0.203 F 
BRANCH   9  12
ATOM     12  S   UNL     1     -10.683  -0.939   5.369  0.00  0.00    +0.062 S 
ATOM     13  O   UNL     1     -11.365  -2.121   5.765  0.00  0.00    -0.153 OA
ATOM     14  O   UNL     1      -9.893  -0.177   6.271  0.00  0.00    -0.153 OA
BRANCH  12  15
ATOM     15  N   UNL     1     -11.831   0.088   4.761  0.00  0.00    -0.185 NA
ATOM     16  H   UNL     1     -12.758  -0.195   4.710  0.00  0.00    +0.149 HD
BRANCH  15  17
ATOM     17  C   UNL     1     -11.448   1.425   4.300  0.00  0.00    +0.032 C 
ATOM     18  C   UNL     1     -10.327   1.306   3.266  0.00  0.00    +0.029 C 
ATOM     19  C   UNL     1     -12.659   2.112   3.664  0.00  0.00    +0.029 C 
ATOM     20  C   UNL     1     -10.958   2.253   5.490  0.00  0.00    +0.029 C 
ENDBRANCH  15  17
ENDBRANCH  12  15
ENDBRANCH   9  12
ENDBRANCH   2   5
BRANCH   1  23
ATOM     21  C   UNL     1      -3.092  -1.267   0.945  0.00  0.00    +0.270 C 
ATOM     22  O   UNL     1      -3.536  -1.906   0.015  0.00  0.00    -0.270 OA
ATOM     23  N   UNL     1      -3.895  -0.925   1.972  0.00  0.00    -0.231 N 
ATOM     24  H   UNL     1      -3.539  -0.414   2.716  0.00  0.00    +0.173 HD
BRANCH  21  26
ATOM     25  C   UNL     1      -1.544   0.669   0.879  0.00  0.00    +0.062 C 
ATOM     26  C   UNL     1      -1.642  -0.856   0.953  0.00  0.00    +0.257 C 
BRANCH  26  27
ATOM     27  O   UNL     1      -0.978  -1.430  -0.175  0.00  0.00    -0.480 OA
BRANCH  27  28
ATOM     28  C   UNL     1       0.371  -1.579  -0.087  0.00  0.00    +0.122 A 
ATOM     29  C   UNL     1       1.033  -1.231   1.081  0.00  0.00    +0.048 A 
ATOM     30  C   UNL     1       2.403  -1.382   1.169  0.00  0.00    +0.042 A 
ATOM     31  C   UNL     1       3.116  -1.880   0.091  0.00  0.00    +0.124 A 
ATOM     32  C   UNL     1       2.456  -2.227  -1.076  0.00  0.00    +0.042 A 
ATOM     33  C   UNL     1       1.085  -2.083  -1.164  0.00  0.00    +0.048 A 
ATOM     34  F   UNL     1       4.456  -2.026   0.178  0.00  0.00    -0.205 F 
ENDBRANCH  27  28
ENDBRANCH  26  27
ENDBRANCH  21  26
ENDBRANCH   1  23
TORSDOF 8
