REMARK  Name = ZINC65717491
REMARK  6 active torsions:
REMARK  status: ('A' for Active; 'I' for Inactive)
REMARK    1  A    between atoms: C_1  and  C_2
REMARK    2  A    between atoms: C_6  and  C_8
REMARK    3  A    between atoms: C_6  and  C_9
REMARK    4  A    between atoms: C_10  and  C_12
REMARK    5  A    between atoms: N_14  and  C_15
REMARK    6  A    between atoms: C_18  and  N_21
REMARK                            x       y       z     vdW  Elec       q    Type
REMARK                         _______ _______ _______ _____ _____    ______ ____
ROOT
ATOM      1  C   UNL     1      -0.243  -2.220  -3.318  0.00  0.00    +0.303 C 
ATOM      2  O   UNL     1      -0.474  -1.031  -3.395  0.00  0.00    -0.265 OA
ATOM      3  N   UNL     1      -0.623  -3.046  -4.313  0.00  0.00    -0.278 N 
ATOM      4  H   UNL     1      -0.511  -4.005  -4.217  0.00  0.00    +0.155 HD
ENDROOT
BRANCH   1  14
ATOM      5  C   UNL     1      -0.675   1.260   0.320  0.00  0.00    +0.039 C 
ATOM      6  C   UNL     1      -0.427  -0.245   0.214  0.00  0.00    +0.133 C 
ATOM      7  C   UNL     1       0.336  -0.549  -1.081  0.00  0.00    +0.139 C 
ATOM      8  N   UNL     1       0.725  -1.968  -1.069  0.00  0.00    -0.289 N 
ATOM      9  C   UNL     1       1.409  -2.488   0.125  0.00  0.00    +0.142 C 
ATOM     10  C   UNL     1       0.594  -2.090   1.361  0.00  0.00    +0.080 C 
ATOM     11  O   UNL     1       0.350  -0.682   1.331  0.00  0.00    -0.368 OA
ATOM     12  C   UNL     1      -0.740  -2.839   1.356  0.00  0.00    +0.043 C 
ATOM     13  C   UNL     1       1.377  -2.447   2.626  0.00  0.00    +0.043 C 
ATOM     14  C   UNL     1       0.462  -2.768  -2.121  0.00  0.00    +0.302 C 
ATOM     15  O   UNL     1       0.798  -3.934  -2.096  0.00  0.00    -0.265 OA
ENDBRANCH   1  14
BRANCH   3  16
ATOM     16  C   UNL     1      -1.179  -2.520  -5.485  0.00  0.00    +0.034 A 
ATOM     17  C   UNL     1      -2.096  -3.267  -6.214  0.00  0.00    +0.025 A 
ATOM     18  C   UNL     1      -2.645  -2.748  -7.370  0.00  0.00    +0.026 A 
ATOM     19  C   UNL     1      -2.279  -1.480  -7.803  0.00  0.00    +0.051 A 
ATOM     20  C   UNL     1      -1.362  -0.734  -7.074  0.00  0.00    +0.026 A 
ATOM     21  C   UNL     1      -0.818  -1.250  -5.916  0.00  0.00    +0.025 A 
BRANCH  19  22
ATOM     22  N   UNL     1      -2.834  -0.955  -8.975  0.00  0.00    -0.207 N 
ATOM     23  C   UNL     1      -3.389  -1.711 -10.111  0.00  0.00    +0.133 C 
ATOM     24  C   UNL     1      -4.497  -0.906 -10.817  0.00  0.00    +0.045 C 
ATOM     25  C   UNL     1      -3.918   0.533 -10.966  0.00  0.00    +0.190 C 
ATOM     26  S   UNL     1      -3.011   0.664  -9.371  0.00  0.00    +0.046 S 
ATOM     27  O   UNL     1      -3.846   1.213  -8.360  0.00  0.00    -0.155 OA
ATOM     28  O   UNL     1      -1.693   1.150  -9.582  0.00  0.00    -0.155 OA
ENDBRANCH  19  22
ENDBRANCH   3  16
TORSDOF 3
