REMARK  Name = ZINC01427242
REMARK  2 active torsions:
REMARK  status: ('A' for Active; 'I' for Inactive)
REMARK    1  A    between atoms: C_12  and  C_18
REMARK    2  A    between atoms: C_23  and  N_24
REMARK                            x       y       z     vdW  Elec       q    Type
REMARK                         _______ _______ _______ _____ _____    ______ ____
ROOT
ATOM      1  C   UNL     1       3.774   7.058  -0.040  0.00  0.00    +0.001 A 
ATOM      2  C   UNL     1       5.085   7.143  -0.485  0.00  0.00    +0.004 A 
ATOM      3  C   UNL     1       5.796   6.004  -0.799  0.00  0.00    +0.047 A 
ATOM      4  C   UNL     1       5.199   4.757  -0.671  0.00  0.00    +0.143 A 
ATOM      5  C   UNL     1       3.872   4.669  -0.222  0.00  0.00    +0.060 A 
ATOM      6  C   UNL     1       3.163   5.831   0.094  0.00  0.00    +0.015 A 
ATOM      7  C   UNL     1       3.247   3.341  -0.091  0.00  0.00    +0.153 A 
ATOM      8  C   UNL     1       3.992   2.247  -0.404  0.00  0.00    +0.088 A 
ATOM      9  C   UNL     1       5.317   2.417  -0.853  0.00  0.00    +0.345 A 
ATOM     10  O   UNL     1       5.974   1.432  -1.139  0.00  0.00    -0.245 OA
ATOM     11  O   UNL     1       5.877   3.629  -0.974  0.00  0.00    -0.422 OA
ATOM     12  C   UNL     1       3.443   0.848  -0.285  0.00  0.00    +0.072 C 
ATOM     13  C   UNL     1       1.912   0.892  -0.270  0.00  0.00    +0.134 C 
ATOM     14  C   UNL     1       1.500   2.031   0.642  0.00  0.00    +0.313 C 
ATOM     15  O   UNL     1       0.790   1.849   1.602  0.00  0.00    -0.250 OA
ATOM     16  O   UNL     1       1.966   3.258   0.330  0.00  0.00    -0.425 OA
ENDROOT
BRANCH  12  17
ATOM     17  C   UNL     1       3.909   0.027  -1.460  0.00  0.00    -0.009 A 
ATOM     18  C   UNL     1       3.683   0.473  -2.748  0.00  0.00    +0.006 A 
ATOM     19  C   UNL     1       4.115  -0.278  -3.826  0.00  0.00    +0.000 A 
ATOM     20  C   UNL     1       4.763  -1.480  -3.614  0.00  0.00    +0.002 A 
ATOM     21  C   UNL     1       4.984  -1.929  -2.326  0.00  0.00    +0.033 A 
ATOM     22  C   UNL     1       4.557  -1.175  -1.248  0.00  0.00    +0.130 A 
BRANCH  22  23
ATOM     23  N   UNL     1       4.794  -1.657   0.131  0.00  0.00    +0.057 N 
ATOM     24  O   UNL     1       5.842  -2.211   0.412  0.00  0.00    -0.126 OA
ATOM     25  O   UNL     1       3.941  -1.498   0.986  0.00  0.00    -0.126 OA
ENDBRANCH  22  23
ENDBRANCH  12  17
TORSDOF 2
