REMARK  Name = ZINC22192132
REMARK  2 active torsions:
REMARK  status: ('A' for Active; 'I' for Inactive)
REMARK    1  A    between atoms: C_1  and  C_2
REMARK    2  A    between atoms: C_2  and  C_7
REMARK                            x       y       z     vdW  Elec       q    Type
REMARK                         _______ _______ _______ _____ _____    ______ ____
ROOT
ATOM      1  C   UNL     1      -1.068   3.147   1.403  0.00  0.00    +0.229 C 
ATOM      2  O   UNL     1      -0.001   3.713   1.519  0.00  0.00    -0.275 OA
ATOM      3  N   UNL     1      -2.202   3.759   1.800  0.00  0.00    -0.260 N 
ATOM      4  C   UNL     1      -3.498   3.066   1.741  0.00  0.00    +0.209 C 
ATOM      5  C   UNL     1      -4.543   4.023   1.227  0.00  0.00    +0.235 C 
ATOM      6  O   UNL     1      -5.497   3.594   0.614  0.00  0.00    -0.274 OA
ATOM      7  N   UNL     1      -4.431   5.347   1.441  0.00  0.00    -0.283 N 
ATOM      8  C   UNL     1      -3.315   5.873   2.102  0.00  0.00    +0.055 A 
ATOM      9  C   UNL     1      -2.182   5.074   2.289  0.00  0.00    +0.058 A 
ATOM     10  C   UNL     1      -1.071   5.585   2.929  0.00  0.00    +0.025 A 
ATOM     11  C   UNL     1      -1.085   6.887   3.398  0.00  0.00    +0.002 A 
ATOM     12  C   UNL     1      -2.207   7.677   3.223  0.00  0.00    +0.002 A 
ATOM     13  C   UNL     1      -3.321   7.175   2.576  0.00  0.00    +0.025 A 
ATOM     14  H   UNL     1      -5.221   6.029   1.094  0.00  0.00    +0.155 HD
ENDROOT
BRANCH   1  16
ATOM     15  C   UNL     1      -1.803   0.702   1.687  0.00  0.00    +0.024 C 
ATOM     16  C   UNL     1      -1.125   1.761   0.815  0.00  0.00    +0.080 C 
ATOM     17  C   UNL     1       0.051   1.313  -0.055  0.00  0.00    +0.058 C 
ATOM     18  C   UNL     1      -1.296   1.643  -0.701  0.00  0.00    +0.133 C 
ATOM     19 CL   UNL     1      -1.413   3.174  -1.647  0.00  0.00    -0.100 Cl
ATOM     20 CL   UNL     1      -2.280   0.267  -1.325  0.00  0.00    -0.100 Cl
ENDBRANCH   1  16
TORSDOF 1
