REMARK  Name = ZINC15985903
REMARK  8 active torsions:
REMARK  status: ('A' for Active; 'I' for Inactive)
REMARK    1  A    between atoms: C_1  and  C_2
REMARK    2  A    between atoms: C_2  and  C_3
REMARK    3  A    between atoms: C_2  and  N_4
REMARK    4  A    between atoms: N_4  and  S_5
REMARK    5  A    between atoms: S_5  and  C_8
REMARK    6  A    between atoms: C_12  and  C_14
REMARK    7  A    between atoms: N_16  and  N_17
REMARK    8  A    between atoms: C_18  and  C_20
REMARK                            x       y       z     vdW  Elec       q    Type
REMARK                         _______ _______ _______ _____ _____    ______ ____
ROOT
ATOM      1  C   UNL     1       3.485   6.334   0.002  0.00  0.00    +0.260 C 
ATOM      2  O   UNL     1       4.543   5.735  -0.011  0.00  0.00    -0.269 OA
ATOM      3  N   UNL     1       2.323   5.651   0.009  0.00  0.00    -0.230 N 
ATOM      4  H   UNL     1       1.479   6.129   0.020  0.00  0.00    +0.173 HD
ENDROOT
BRANCH   1   9
ATOM      5  C   UNL     1       4.656   9.903   0.008  0.00  0.00    +0.106 A 
ATOM      6  C   UNL     1       3.450  10.582   0.022  0.00  0.00    +0.028 A 
ATOM      7  C   UNL     1       2.256   9.883   0.030  0.00  0.00    +0.003 A 
ATOM      8  C   UNL     1       2.260   8.504   0.018  0.00  0.00    +0.013 A 
ATOM      9  C   UNL     1       3.473   7.813   0.009  0.00  0.00    +0.040 A 
ATOM     10  C   UNL     1       4.674   8.524   0.002  0.00  0.00    +0.041 A 
BRANCH   5  11
ATOM     11  S   UNL     1       6.171  10.802  -0.001  0.00  0.00    +0.059 S 
ATOM     12  O   UNL     1       5.890  12.078   0.558  0.00  0.00    -0.153 OA
ATOM     13  O   UNL     1       7.161   9.936   0.536  0.00  0.00    -0.153 OA
BRANCH  11  14
ATOM     14  N   UNL     1       6.578  11.060  -1.586  0.00  0.00    -0.187 NA
ATOM     15  H   UNL     1       7.378  10.653  -1.953  0.00  0.00    +0.148 HD
BRANCH  14  17
ATOM     16  C   UNL     1       6.274  13.331  -2.441  0.00  0.00    +0.025 C 
ATOM     17  C   UNL     1       5.729  11.902  -2.432  0.00  0.00    +0.070 C 
ATOM     18  C   UNL     1       5.724  11.349  -3.859  0.00  0.00    +0.025 C 
ENDBRANCH  14  17
ENDBRANCH  11  14
ENDBRANCH   5  11
ENDBRANCH   1   9
BRANCH   3  19
ATOM     19  N   UNL     1       2.335   4.250   0.002  0.00  0.00    -0.230 N 
ATOM     20  C   UNL     1       1.173   3.567   0.009  0.00  0.00    +0.262 C 
ATOM     21  O   UNL     1       0.116   4.166   0.022  0.00  0.00    -0.269 OA
ATOM     22  H   UNL     1       3.179   3.772  -0.008  0.00  0.00    +0.173 HD
BRANCH  20  23
ATOM     23  C   UNL     1       1.185   2.089   0.002  0.00  0.00    +0.058 A 
ATOM     24  C   UNL     1       2.398   1.398  -0.014  0.00  0.00    +0.034 A 
ATOM     25  C   UNL     1       2.402   0.018  -0.022  0.00  0.00    +0.042 A 
ATOM     26  C   UNL     1       1.207  -0.682  -0.014  0.00  0.00    +0.021 A 
ATOM     27  C   UNL     1       0.002  -0.004   0.002  0.00  0.00    +0.022 A 
ATOM     28  C   UNL     1      -0.017   1.377   0.010  0.00  0.00    +0.053 A 
ATOM     29 CL   UNL     1      -1.530   2.227   0.021  0.00  0.00    -0.083 Cl
ATOM     30 CL   UNL     1       3.910  -0.844  -0.041  0.00  0.00    -0.084 Cl
ENDBRANCH  20  23
ENDBRANCH   3  19
TORSDOF 6
