REMARK  Name = ZINC06512577
REMARK  3 active torsions:
REMARK  status: ('A' for Active; 'I' for Inactive)
REMARK    1  A    between atoms: C_6  and  O_7
REMARK    2  A    between atoms: O_7  and  C_8
REMARK    3  A    between atoms: C_13  and  O_15
REMARK                            x       y       z     vdW  Elec       q    Type
REMARK                         _______ _______ _______ _____ _____    ______ ____
ROOT
ATOM      1  C   UNL     1       3.483   1.872  -0.126  0.00  0.00    +0.199 C 
ATOM      2  C   UNL     1       3.558   3.217  -0.131  0.00  0.00    +0.169 C 
ATOM      3  C   UNL     1       4.905   3.616  -0.266  0.00  0.00    +0.357 C 
ATOM      4  O   UNL     1       5.282   4.772  -0.301  0.00  0.00    -0.244 OA
ATOM      5  O   UNL     1       5.716   2.545  -0.350  0.00  0.00    -0.423 OA
ATOM      6  C   UNL     1       4.902   1.369  -0.263  0.00  0.00    +0.378 C 
ATOM      7 CL   UNL     1       2.205   4.295   0.009  0.00  0.00    -0.072 Cl
ENDROOT
BRANCH   6   8
ATOM      8  O   UNL     1       5.038   0.588  -1.453  0.00  0.00    -0.352 OA
ATOM      9  H   UNL     1       5.928   0.238  -1.594  0.00  0.00    +0.214 HD
ENDBRANCH   6   8
BRANCH   1  10
ATOM     10  O   UNL     1       2.366   1.124  -0.014  0.00  0.00    -0.452 OA
BRANCH  10  16
ATOM     11  C   UNL     1       0.508   2.114  -1.123  0.00  0.00    +0.047 A 
ATOM     12  C   UNL     1      -0.693   2.794  -1.060  0.00  0.00    +0.023 A 
ATOM     13  C   UNL     1      -1.229   3.141   0.167  0.00  0.00    +0.041 A 
ATOM     14  C   UNL     1      -0.558   2.818   1.334  0.00  0.00    +0.023 A 
ATOM     15  C   UNL     1       0.645   2.143   1.275  0.00  0.00    +0.047 A 
ATOM     16  C   UNL     1       1.182   1.789   0.046  0.00  0.00    +0.128 A 
ATOM     17 CL   UNL     1      -2.742   3.989   0.244  0.00  0.00    -0.084 Cl
ENDBRANCH  10  16
ENDBRANCH   1  10
TORSDOF 3
