REMARK  Name = ZINC58584019
REMARK  11 active torsions:
REMARK  status: ('A' for Active; 'I' for Inactive)
REMARK    1  A    between atoms: C_1  and  C_2
REMARK    2  A    between atoms: C_2  and  O_3
REMARK    3  A    between atoms: O_3  and  C_4
REMARK    4  A    between atoms: C_4  and  C_6
REMARK    5  A    between atoms: C_7  and  C_29
REMARK    6  A    between atoms: C_8  and  C_28
REMARK    7  A    between atoms: C_10  and  N_11
REMARK    8  A    between atoms: C_12  and  C_14
REMARK    9  A    between atoms: C_16  and  C_25
REMARK   10  A    between atoms: C_20  and  C_24
REMARK   11  A    between atoms: N_22  and  C_23
REMARK                            x       y       z     vdW  Elec       q    Type
REMARK                         _______ _______ _______ _____ _____    ______ ____
ROOT
ATOM      1  N   UNL     1       3.932  -3.163   1.448  0.00  0.00    -0.275 N 
ATOM      2  C   UNL     1       5.265  -3.284   1.612  0.00  0.00    +0.249 C 
ATOM      3  O   UNL     1       5.715  -3.645   2.682  0.00  0.00    -0.270 OA
ATOM      4  H   UNL     1       3.573  -2.875   0.594  0.00  0.00    +0.156 HD
ENDROOT
BRANCH   2   5
ATOM      5  C   UNL     1       6.178  -2.976   0.492  0.00  0.00    +0.051 A 
ATOM      6  C   UNL     1       5.848  -3.313  -0.820  0.00  0.00    +0.037 A 
ATOM      7  C   UNL     1       6.731  -3.008  -1.843  0.00  0.00    +0.047 A 
ATOM      8  N   UNL     1       7.877  -2.407  -1.610  0.00  0.00    -0.232 NA
ATOM      9  C   UNL     1       8.251  -2.060  -0.387  0.00  0.00    +0.159 A 
ATOM     10  C   UNL     1       7.412  -2.326   0.714  0.00  0.00    +0.054 A 
ATOM     11  C   UNL     1       8.069  -1.840   1.864  0.00  0.00    +0.070 A 
ATOM     12  N   UNL     1       9.207  -1.317   1.503  0.00  0.00    -0.174 NA
ATOM     13  N   UNL     1       9.364  -1.439   0.117  0.00  0.00    -0.249 N 
ATOM     14  C   UNL     1      10.514  -0.970  -0.661  0.00  0.00    +0.174 C 
ATOM     15  C   UNL     1       7.543  -1.913   3.275  0.00  0.00    +0.068 C 
BRANCH   7  16
ATOM     16  C   UNL     1       6.369  -3.375  -3.260  0.00  0.00    +0.038 C 
ATOM     17  C   UNL     1       5.244  -4.392  -3.461  0.00  0.00    +0.010 C 
ATOM     18  C   UNL     1       6.696  -4.794  -3.727  0.00  0.00    +0.010 C 
ENDBRANCH   7  16
ENDBRANCH   2   5
BRANCH   1  23
ATOM     19  C   UNL     1       1.690  -3.385   2.512  0.00  0.00    +0.091 A 
ATOM     20  C   UNL     1       1.038  -3.749   3.750  0.00  0.00    -0.025 A 
ATOM     21  C   UNL     1       1.854  -4.109   4.758  0.00  0.00    -0.008 A 
ATOM     22  S   UNL     1       3.478  -3.958   4.046  0.00  0.00    -0.078 S 
ATOM     23  C   UNL     1       3.077  -3.451   2.498  0.00  0.00    +0.087 A 
ATOM     24  C   UNL     1       1.481  -4.536   6.154  0.00  0.00    +0.052 C 
ATOM     25  C   UNL     1      -0.461  -3.726   3.902  0.00  0.00    +0.045 C 
BRANCH  19  26
ATOM     26  C   UNL     1       0.926  -2.973   1.332  0.00  0.00    +0.342 C 
ATOM     27  O   UNL     1       0.558  -3.805   0.525  0.00  0.00    -0.245 OA
BRANCH  26  28
ATOM     28  O   UNL     1       0.632  -1.671   1.140  0.00  0.00    -0.461 OA
BRANCH  28  30
ATOM     29  C   UNL     1      -0.352   0.170  -0.078  0.00  0.00    +0.048 C 
ATOM     30  C   UNL     1      -0.116  -1.341  -0.032  0.00  0.00    +0.229 C 
ENDBRANCH  28  30
ENDBRANCH  26  28
ENDBRANCH  19  26
ENDBRANCH   1  23
TORSDOF 6
