REMARK  Name = ZINC18205879
REMARK  5 active torsions:
REMARK  status: ('A' for Active; 'I' for Inactive)
REMARK    1  A    between atoms: C_1  and  C_2
REMARK    2  A    between atoms: C_3  and  N_9
REMARK    3  A    between atoms: C_14  and  C_16
REMARK    4  A    between atoms: C_16  and  C_18
REMARK    5  A    between atoms: N_21  and  C_24
REMARK                            x       y       z     vdW  Elec       q    Type
REMARK                         _______ _______ _______ _____ _____    ______ ____
ROOT
ATOM      1  N   UNL     1      -0.010   0.008  -2.411  0.00  0.00    -0.211 N 
ATOM      2  C   UNL     1       0.975  -0.161  -3.490  0.00  0.00    +0.202 C 
ATOM      3  C   UNL     1       0.477   0.844  -4.566  0.00  0.00    +0.161 C 
ATOM      4  C   UNL     1      -0.745   1.439  -3.896  0.00  0.00    +0.116 C 
ATOM      5  N   UNL     1      -0.884   0.882  -2.732  0.00  0.00    -0.179 NA
ATOM      6  C   UNL     1       1.589   1.866  -4.629  0.00  0.00    +0.238 C 
ATOM      7  O   UNL     1       1.605   2.841  -5.350  0.00  0.00    -0.274 OA
ATOM      8  N   UNL     1       2.553   1.529  -3.765  0.00  0.00    -0.207 N 
ATOM      9  C   UNL     1       2.308   0.401  -3.051  0.00  0.00    +0.250 C 
ATOM     10  O   UNL     1       3.038  -0.094  -2.220  0.00  0.00    -0.273 OA
ENDROOT
BRANCH   1  13
ATOM     11  C   UNL     1      -0.018   1.503   0.010  0.00  0.00    +0.047 C 
ATOM     12  C   UNL     1       0.002  -0.004   0.002  0.00  0.00    -0.009 A 
ATOM     13  C   UNL     1       0.006  -0.693  -1.205  0.00  0.00    +0.057 A 
ATOM     14  C   UNL     1       0.025  -2.083  -1.208  0.00  0.00    +0.025 A 
ATOM     15  C   UNL     1       0.040  -2.775  -0.012  0.00  0.00    +0.003 A 
ATOM     16  C   UNL     1       0.036  -2.087   1.187  0.00  0.00    +0.020 A 
ATOM     17  C   UNL     1       0.023  -0.702   1.194  0.00  0.00    +0.046 A 
ATOM     18 CL   UNL     1       0.026   0.157   2.703  0.00  0.00    -0.083 Cl
ENDBRANCH   1  13
BRANCH   8  19
ATOM     19  C   UNL     1       3.721   2.287  -3.597  0.00  0.00    +0.062 A 
ATOM     20  C   UNL     1       3.760   3.304  -2.653  0.00  0.00    +0.025 A 
ATOM     21  C   UNL     1       4.912   4.049  -2.490  0.00  0.00    +0.002 A 
ATOM     22  C   UNL     1       6.025   3.784  -3.265  0.00  0.00    +0.002 A 
ATOM     23  C   UNL     1       5.990   2.772  -4.207  0.00  0.00    +0.022 A 
ATOM     24  C   UNL     1       4.843   2.018  -4.371  0.00  0.00    +0.063 A 
ATOM     25 CL   UNL     1       4.801   0.742  -5.548  0.00  0.00    -0.082 Cl
ENDBRANCH   8  19
BRANCH   4  26
ATOM     26  C   UNL     1      -1.588   2.425  -4.444  0.00  0.00    +0.176 C 
ATOM     27  O   UNL     1      -1.360   2.872  -5.550  0.00  0.00    -0.291 OA
ATOM     28  C   UNL     1      -2.772   2.925  -3.658  0.00  0.00    +0.093 C 
ENDBRANCH   4  26
TORSDOF 3
