REMARK  Name = ZINC51364632
REMARK  6 active torsions:
REMARK  status: ('A' for Active; 'I' for Inactive)
REMARK    1  A    between atoms: C_1  and  C_2
REMARK    2  A    between atoms: C_5  and  N_9
REMARK    3  A    between atoms: C_6  and  C_8
REMARK    4  A    between atoms: C_13  and  N_17
REMARK    5  A    between atoms: C_20  and  C_23
REMARK    6  A    between atoms: C_20  and  C_29
REMARK                            x       y       z     vdW  Elec       q    Type
REMARK                         _______ _______ _______ _____ _____    ______ ____
ROOT
ATOM      1  N   UNL     1       1.867  -6.698  -1.264  0.00  0.00    +0.388 N 
ATOM      2  C   UNL     1       3.317  -6.884  -1.396  0.00  0.00    -0.077 C 
ATOM      3  C   UNL     1       3.622  -7.646  -2.687  0.00  0.00    -0.002 C 
ATOM      4  C   UNL     1       2.933  -9.013  -2.641  0.00  0.00    +0.046 C 
ATOM      5  C   UNL     1       1.430  -8.809  -2.429  0.00  0.00    -0.002 C 
ATOM      6  C   UNL     1       1.206  -8.004  -1.148  0.00  0.00    -0.077 C 
ATOM      7  H   UNL     1       1.516  -6.217  -2.079  0.00  0.00    -0.081 HD
ENDROOT
BRANCH   1  12
ATOM      8  N   UNL     1       1.121  -3.620  -0.153  0.00  0.00    -0.212 N 
ATOM      9  C   UNL     1      -0.085  -4.175   0.019  0.00  0.00    +0.225 C 
ATOM     10  O   UNL     1      -1.132  -3.569   0.100  0.00  0.00    -0.275 OA
ATOM     11  C   UNL     1       0.065  -5.679   0.095  0.00  0.00    +0.090 C 
ATOM     12  C   UNL     1       1.583  -5.899  -0.065  0.00  0.00    +0.029 C 
ATOM     13  C   UNL     1       2.130  -4.497  -0.220  0.00  0.00    +0.213 C 
ATOM     14  O   UNL     1       3.298  -4.212  -0.377  0.00  0.00    -0.277 OA
BRANCH   8  19
ATOM     15  C   UNL     1       1.885   1.987  -0.587  0.00  0.00    +0.044 C 
ATOM     16  C   UNL     1       1.682   0.498  -0.472  0.00  0.00    -0.050 A 
ATOM     17  C   UNL     1       1.449  -0.256  -1.607  0.00  0.00    +0.005 A 
ATOM     18  C   UNL     1       1.262  -1.621  -1.505  0.00  0.00    +0.024 A 
ATOM     19  C   UNL     1       1.310  -2.235  -0.260  0.00  0.00    +0.047 A 
ATOM     20  C   UNL     1       1.545  -1.475   0.877  0.00  0.00    -0.028 A 
ATOM     21  C   UNL     1       1.736  -0.111   0.768  0.00  0.00    +0.008 A 
ATOM     22  C   UNL     1       1.598  -2.138   2.229  0.00  0.00    +0.046 C 
ENDBRANCH   8  19
ENDBRANCH   1  12
BRANCH   4  23
ATOM     23  C   UNL     1       3.169  -9.749  -3.961  0.00  0.00    +0.004 C 
ATOM     24  C   UNL     1       2.591  -8.926  -5.114  0.00  0.00    +0.004 C 
ATOM     25  C   UNL     1       2.827  -9.662  -6.434  0.00  0.00    +0.000 C 
ATOM     26  C   UNL     1       2.138 -11.028  -6.387  0.00  0.00    +0.000 C 
ATOM     27  C   UNL     1       2.715 -11.851  -5.234  0.00  0.00    +0.000 C 
ATOM     28  C   UNL     1       2.480 -11.115  -3.914  0.00  0.00    +0.004 C 
ENDBRANCH   4  23
BRANCH   4  29
ATOM     29  C   UNL     1       3.497  -9.824  -1.502  0.00  0.00    +0.217 C 
ATOM     30  O   UNL     1       2.753 -10.309  -0.677  0.00  0.00    -0.275 OA
ATOM     31  N   UNL     1       4.828 -10.010  -1.402  0.00  0.00    -0.329 N 
ATOM     32  H   UNL     1       5.428  -9.563  -2.019  0.00  0.00    +0.145 HD
ATOM     33  H   UNL     1       5.186 -10.591  -0.712  0.00  0.00    +0.145 HD
ENDBRANCH   4  29
TORSDOF 4
