REMARK  Name = ZINC56078831
REMARK  10 active torsions:
REMARK  status: ('A' for Active; 'I' for Inactive)
REMARK    1  A    between atoms: C_1  and  C_2
REMARK    2  A    between atoms: C_5  and  C_8
REMARK    3  A    between atoms: C_9  and  S_10
REMARK    4  A    between atoms: S_10  and  N_13
REMARK    5  A    between atoms: C_16  and  N_19
REMARK    6  A    between atoms: C_20  and  O_22
REMARK    7  A    between atoms: O_22  and  C_23
REMARK    8  A    between atoms: C_23  and  C_24
REMARK    9  A    between atoms: C_23  and  C_25
REMARK   10  A    between atoms: C_23  and  C_26
REMARK                            x       y       z     vdW  Elec       q    Type
REMARK                         _______ _______ _______ _____ _____    ______ ____
ROOT
ATOM      1  N   UNL     1      -1.113  -4.617   3.531  0.00  0.00    -0.177 NA
ATOM      2  C   UNL     1      -2.434  -3.984   3.419  0.00  0.00    +0.111 C 
ATOM      3  C   UNL     1      -2.920  -3.604   4.821  0.00  0.00    +0.039 C 
ATOM      4  C   UNL     1      -2.891  -4.842   5.720  0.00  0.00    +0.079 C 
ATOM      5  C   UNL     1      -1.455  -5.360   5.830  0.00  0.00    +0.039 C 
ATOM      6  C   UNL     1      -0.953  -5.764   4.435  0.00  0.00    +0.111 C 
ENDROOT
BRANCH   4   7
ATOM      7  N   UNL     1      -3.386  -4.490   7.052  0.00  0.00    -0.278 N 
ATOM      8  C   UNL     1      -3.925  -5.439   7.844  0.00  0.00    +0.401 C 
ATOM      9  O   UNL     1      -4.000  -6.586   7.452  0.00  0.00    -0.226 OA
ATOM     10  H   UNL     1      -3.327  -3.574   7.365  0.00  0.00    +0.152 HD
BRANCH   8  11
ATOM     11  O   UNL     1      -4.381  -5.115   9.069  0.00  0.00    -0.445 OA
BRANCH  11  12
ATOM     12  C   UNL     1      -4.939  -6.170   9.853  0.00  0.00    +0.107 C 
ATOM     13  C   UNL     1      -3.881  -7.252  10.081  0.00  0.00    +0.055 C 
ATOM     14  C   UNL     1      -5.399  -5.615  11.202  0.00  0.00    +0.055 C 
ATOM     15  C   UNL     1      -6.136  -6.775   9.116  0.00  0.00    +0.055 C 
ENDBRANCH  11  12
ENDBRANCH   8  11
ENDBRANCH   4   7
BRANCH   1  16
ATOM     16  S   UNL     1       0.171  -4.051   2.652  0.00  0.00    +0.054 S 
ATOM     17  O   UNL     1       1.346  -4.449   3.346  0.00  0.00    -0.153 OA
ATOM     18  O   UNL     1      -0.111  -2.692   2.349  0.00  0.00    -0.153 OA
BRANCH  16  20
ATOM     19  C   UNL     1       0.017  -4.255  -0.019  0.00  0.00    +0.028 C 
ATOM     20  C   UNL     1       0.174  -4.918   1.118  0.00  0.00    +0.153 C 
BRANCH  19  25
ATOM     21  C   UNL     1       0.794   1.444  -0.156  0.00  0.00    +0.044 C 
ATOM     22  C   UNL     1       0.591  -0.048  -0.120  0.00  0.00    -0.050 A 
ATOM     23  C   UNL     1      -0.489  -0.612  -0.775  0.00  0.00    +0.004 A 
ATOM     24  C   UNL     1      -0.682  -1.978  -0.746  0.00  0.00    +0.008 A 
ATOM     25  C   UNL     1       0.217  -2.791  -0.054  0.00  0.00    -0.024 A 
ATOM     26  C   UNL     1       1.304  -2.216   0.604  0.00  0.00    +0.008 A 
ATOM     27  C   UNL     1       1.488  -0.850   0.563  0.00  0.00    +0.004 A 
ENDBRANCH  19  25
ENDBRANCH  16  20
ENDBRANCH   1  16
TORSDOF 6
