REMARK  Name = ZINC07487666
REMARK  11 active torsions:
REMARK  status: ('A' for Active; 'I' for Inactive)
REMARK    1  A    between atoms: C_1  and  C_2
REMARK    2  A    between atoms: C_2  and  N_3
REMARK    3  A    between atoms: C_7  and  S_22
REMARK    4  A    between atoms: C_11  and  C_12
REMARK    5  A    between atoms: C_12  and  N_53
REMARK    6  A    between atoms: C_13  and  N_53
REMARK    7  A    between atoms: C_14  and  C_15
REMARK    8  A    between atoms: C_14  and  N_53
REMARK    9  A    between atoms: S_22  and  N_25
REMARK   10  A    between atoms: N_25  and  C_26
REMARK   11  A    between atoms: N_25  and  C_27
REMARK                            x       y       z     vdW  Elec       q    Type
REMARK                         _______ _______ _______ _____ _____    ______ ____
ROOT
ATOM      1  N   UNL     1       0.978   4.251  -1.745  0.00  0.00    -0.329 N 
ATOM      2  C   UNL     1       0.865   5.582  -1.394  0.00  0.00    +0.069 A 
ATOM      3  C   UNL     1       0.633   6.752  -2.103  0.00  0.00    +0.030 A 
ATOM      4  C   UNL     1       0.583   7.957  -1.435  0.00  0.00    +0.030 A 
ATOM      5  C   UNL     1       0.763   8.007  -0.060  0.00  0.00    +0.108 A 
ATOM      6  C   UNL     1       0.991   6.865   0.654  0.00  0.00    +0.058 A 
ATOM      7  C   UNL     1       1.046   5.633  -0.002  0.00  0.00    +0.091 A 
ATOM      8  N   UNL     1       1.251   4.357   0.417  0.00  0.00    -0.234 NA
ATOM      9  C   UNL     1       1.207   3.550  -0.602  0.00  0.00    +0.094 A 
ENDROOT
BRANCH   5  10
ATOM     10  S   UNL     1       0.695   9.558   0.773  0.00  0.00    +0.060 S 
ATOM     11  O   UNL     1       1.435   9.405   1.976  0.00  0.00    -0.153 OA
ATOM     12  O   UNL     1       1.009  10.552  -0.193  0.00  0.00    -0.153 OA
BRANCH  10  13
ATOM     13  N   UNL     1      -0.881   9.808   1.215  0.00  0.00    -0.183 NA
ATOM     14  C   UNL     1      -1.361   9.335   2.515  0.00  0.00    +0.131 C 
ATOM     15  C   UNL     1      -1.795  10.503   0.305  0.00  0.00    +0.131 C 
ENDBRANCH  10  13
ENDBRANCH   5  10
BRANCH   1  17
ATOM     16  C   UNL     1      -0.606   3.451  -3.428  0.00  0.00    +0.027 C 
ATOM     17  C   UNL     1       0.868   3.697  -3.096  0.00  0.00    +0.120 C 
ENDBRANCH   1  17
BRANCH   9  18
ATOM     18  C   UNL     1       1.391   2.056  -0.528  0.00  0.00    -0.003 C 
BRANCH  18  20
ATOM     19  C   UNL     1       3.498   2.108   0.664  0.00  0.00    -0.095 C 
ATOM     20  N   UNL     1       2.835   1.750  -0.608  0.00  0.00    +0.385 N 
ATOM     21  H   UNL     1       3.251   2.302  -1.367  0.00  0.00    -0.081 HD
BRANCH  20  22
ATOM     22  C   UNL     1       3.032   0.314  -0.894  0.00  0.00    -0.041 C 
BRANCH  22  23
ATOM     23  C   UNL     1       4.457   0.100  -1.336  0.00  0.00    -0.046 A 
ATOM     24  C   UNL     1       4.775   0.125  -2.681  0.00  0.00    +0.003 A 
ATOM     25  C   UNL     1       6.083  -0.067  -3.086  0.00  0.00    +0.000 A 
ATOM     26  C   UNL     1       7.072  -0.294  -2.147  0.00  0.00    +0.001 A 
ATOM     27  C   UNL     1       6.754  -0.325  -0.802  0.00  0.00    +0.020 A 
ATOM     28  C   UNL     1       5.446  -0.128  -0.396  0.00  0.00    +0.042 A 
ATOM     29 CL   UNL     1       5.046  -0.167   1.293  0.00  0.00    -0.083 Cl
ENDBRANCH  22  23
ENDBRANCH  20  22
ENDBRANCH  18  20
ENDBRANCH   9  18
TORSDOF 7
