REMARK  Name = ZINC08691754
REMARK  3 active torsions:
REMARK  status: ('A' for Active; 'I' for Inactive)
REMARK    1  A    between atoms: C_1  and  C_2
REMARK    2  A    between atoms: C_2  and  C_3
REMARK    3  A    between atoms: C_2  and  C_4
REMARK                            x       y       z     vdW  Elec       q    Type
REMARK                         _______ _______ _______ _____ _____    ______ ____
ROOT
ATOM      1  C   UNL     1      -1.412  -0.526   0.013  0.00  0.00    +0.049 A 
ATOM      2  C   UNL     1      -1.857  -1.329  -1.030  0.00  0.00    -0.022 A 
ATOM      3  C   UNL     1      -3.147  -1.808  -1.022  0.00  0.00    -0.031 A 
ATOM      4  C   UNL     1      -4.004  -1.474   0.051  0.00  0.00    +0.037 A 
ATOM      5  C   UNL     1      -5.406  -1.882   0.247  0.00  0.00    +0.094 A 
ATOM      6  C   UNL     1      -6.026  -1.407   1.400  0.00  0.00    +0.104 A 
ATOM      7  C   UNL     1      -7.358  -1.729   1.693  0.00  0.00    +0.266 A 
ATOM      8  N   UNL     1      -8.029  -2.518   0.821  0.00  0.00    -0.313 N 
ATOM      9  C   UNL     1      -7.394  -2.965  -0.293  0.00  0.00    +0.199 A 
ATOM     10  N   UNL     1      -6.163  -2.670  -0.570  0.00  0.00    -0.236 NA
ATOM     11  O   UNL     1      -7.897  -1.310   2.703  0.00  0.00    -0.267 OA
ATOM     12  S   UNL     1      -4.784  -0.440   2.215  0.00  0.00    -0.062 S 
ATOM     13  C   UNL     1      -3.455  -0.654   1.056  0.00  0.00    +0.112 A 
ATOM     14  N   UNL     1      -2.213  -0.220   1.013  0.00  0.00    -0.244 NA
ATOM     15  C   UNL     1      -3.398  -2.650  -2.251  0.00  0.00    +0.036 C 
ATOM     16  C   UNL     1      -2.258  -2.284  -3.227  0.00  0.00    +0.009 C 
ATOM     17  C   UNL     1      -1.140  -1.819  -2.270  0.00  0.00    +0.037 C 
ATOM     18  H   UNL     1      -8.952  -2.763   0.991  0.00  0.00    +0.170 HD
ENDROOT
BRANCH   1  20
ATOM     19  C   UNL     1      -0.019   1.526   0.010  0.00  0.00    +0.014 C 
ATOM     20  C   UNL     1       0.002  -0.004   0.002  0.00  0.00    +0.032 C 
ATOM     21  C   UNL     1       0.742  -0.511   1.242  0.00  0.00    +0.014 C 
ENDBRANCH   1  20
TORSDOF 1
