REMARK  Name = ZINC56653073
REMARK  6 active torsions:
REMARK  status: ('A' for Active; 'I' for Inactive)
REMARK    1  A    between atoms: C_1  and  C_2
REMARK    2  A    between atoms: C_2  and  C_3
REMARK    3  A    between atoms: N_15  and  C_16
REMARK    4  A    between atoms: C_21  and  C_22
REMARK    5  A    between atoms: N_24  and  C_25
REMARK    6  A    between atoms: N_24  and  C_26
REMARK                            x       y       z     vdW  Elec       q    Type
REMARK                         _______ _______ _______ _____ _____    ______ ____
ROOT
ATOM      1  C   UNL     1      -2.897  -1.711   3.121  0.00  0.00    +0.108 C 
ATOM      2  C   UNL     1      -1.449  -2.170   2.964  0.00  0.00    -0.017 A 
ATOM      3  C   UNL     1      -0.612  -2.439   4.046  0.00  0.00    +0.013 A 
ATOM      4  C   UNL     1       0.660  -2.847   3.832  0.00  0.00    +0.046 A 
ATOM      5  S   UNL     1       0.743  -2.873   2.047  0.00  0.00    -0.101 S 
ATOM      6  C   UNL     1      -0.916  -2.337   1.723  0.00  0.00    -0.004 A 
ATOM      7  C   UNL     1      -1.578  -2.114   0.402  0.00  0.00    +0.062 C 
ATOM      8  C   UNL     1      -3.098  -2.049   0.618  0.00  0.00    +0.115 C 
ATOM      9  N   UNL     1      -3.361  -1.230   1.812  0.00  0.00    -0.278 N 
ATOM     10  C   UNL     1      -4.017  -0.058   1.708  0.00  0.00    +0.307 C 
ATOM     11  O   UNL     1      -4.307   0.381   0.612  0.00  0.00    -0.252 OA
ATOM     12  N   UNL     1      -4.352   0.628   2.819  0.00  0.00    -0.269 N 
ATOM     13  H   UNL     1      -4.042   0.326   3.687  0.00  0.00    +0.156 HD
ENDROOT
BRANCH  12  14
ATOM     14  C   UNL     1      -5.141   1.771   2.720  0.00  0.00    +0.048 A 
ATOM     15  C   UNL     1      -6.030   1.916   1.663  0.00  0.00    +0.044 A 
ATOM     16  C   UNL     1      -6.812   3.050   1.567  0.00  0.00    +0.043 A 
ATOM     17  C   UNL     1      -6.716   4.052   2.522  0.00  0.00    +0.021 A 
ATOM     18  C   UNL     1      -5.840   3.925   3.577  0.00  0.00    +0.016 A 
ATOM     19  C   UNL     1      -5.047   2.780   3.691  0.00  0.00    +0.058 A 
ATOM     20 CL   UNL     1      -7.921   3.224   0.243  0.00  0.00    -0.083 Cl
BRANCH  19  21
ATOM     21  C   UNL     1      -4.111   2.635   4.821  0.00  0.00    +0.248 C 
ATOM     22  O   UNL     1      -4.078   1.597   5.454  0.00  0.00    -0.270 OA
ATOM     23  N   UNL     1      -3.293   3.653   5.154  0.00  0.00    -0.304 N 
ATOM     24  C   UNL     1      -2.306   3.481   6.222  0.00  0.00    +0.132 C 
ATOM     25  C   UNL     1      -3.392   4.933   4.447  0.00  0.00    +0.132 C 
ENDBRANCH  19  21
ENDBRANCH  12  14
BRANCH   1  27
ATOM     26  C   UNL     1      -5.192  -2.391   3.836  0.00  0.00    +0.006 C 
ATOM     27  C   UNL     1      -3.766  -2.883   3.581  0.00  0.00    +0.024 C 
ENDBRANCH   1  27
TORSDOF 3
