REMARK  Name = ZINC06414782
REMARK  6 active torsions:
REMARK  status: ('A' for Active; 'I' for Inactive)
REMARK    1  A    between atoms: C_1  and  S_2
REMARK    2  A    between atoms: S_2  and  C_5
REMARK    3  A    between atoms: N_13  and  C_14
REMARK    4  A    between atoms: C_14  and  C_16
REMARK    5  A    between atoms: N_22  and  C_23
REMARK    6  A    between atoms: C_23  and  C_24
REMARK                            x       y       z     vdW  Elec       q    Type
REMARK                         _______ _______ _______ _____ _____    ______ ____
ROOT
ATOM      1  C   UNL     1      -6.646  -1.216   0.026  0.00  0.00    +0.089 A 
ATOM      2  C   UNL     1      -6.997   0.124   0.035  0.00  0.00    +0.029 A 
ATOM      3  C   UNL     1      -6.042   1.111   0.035  0.00  0.00    +0.029 A 
ATOM      4  C   UNL     1      -4.673   0.791   0.028  0.00  0.00    +0.059 A 
ATOM      5  C   UNL     1      -4.350  -0.574   0.019  0.00  0.00    +0.041 A 
ATOM      6  C   UNL     1      -5.307  -1.561   0.018  0.00  0.00    +0.044 A 
ATOM      7  S   UNL     1      -2.574  -0.576   0.003  0.00  0.00    -0.052 S 
ATOM      8  C   UNL     1      -2.325   1.191   0.019  0.00  0.00    +0.168 A 
ATOM      9  N   UNL     1      -1.184   1.870   0.018  0.00  0.00    -0.152 NA
ATOM     10  N   UNL     1      -3.602   1.667   0.028  0.00  0.00    -0.310 N 
ENDROOT
BRANCH   1  12
ATOM     11  C   UNL     1      -8.211  -2.803   1.778  0.00  0.00    +0.200 C 
ATOM     12  S   UNL     1      -7.890  -2.464   0.025  0.00  0.00    -0.006 S 
ATOM     13  O   UNL     1      -9.024  -1.846  -0.570  0.00  0.00    -0.170 OA
ATOM     14  O   UNL     1      -7.274  -3.589  -0.587  0.00  0.00    -0.170 OA
ENDBRANCH   1  12
BRANCH   9  15
ATOM     15  C   UNL     1      -0.015   1.216   0.009  0.00  0.00    +0.276 C 
ATOM     16  O   UNL     1       0.002  -0.004   0.002  0.00  0.00    -0.267 OA
BRANCH  15  17
ATOM     17  C   UNL     1       1.248   1.968   0.001  0.00  0.00    +0.077 A 
ATOM     18  C   UNL     1       2.548   1.491  -0.009  0.00  0.00    +0.022 A 
ATOM     19  C   UNL     1       3.557   2.422  -0.019  0.00  0.00    +0.028 A 
ATOM     20  C   UNL     1       3.239   3.744  -0.009  0.00  0.00    +0.079 A 
ATOM     21  S   UNL     1       1.505   3.733   0.008  0.00  0.00    -0.072 S 
ATOM     22 CL   UNL     1       4.308   5.112  -0.011  0.00  0.00    -0.076 Cl
ENDBRANCH  15  17
ENDBRANCH   9  15
BRANCH  10  23
ATOM     23  C   UNL     1      -3.842   3.112   0.037  0.00  0.00    +0.212 C 
BRANCH  23  24
ATOM     24  C   UNL     1      -3.929   3.604  -1.348  0.00  0.00    -0.084 C 
ATOM     25  C   UNL     1      -3.998   3.996  -2.452  0.00  0.00    +0.005 C 
ENDBRANCH  23  24
ENDBRANCH  10  23
TORSDOF 5
