REMARK  Name = ZINC44027395
REMARK  5 active torsions:
REMARK  status: ('A' for Active; 'I' for Inactive)
REMARK    1  A    between atoms: C_3  and  C_10
REMARK    2  A    between atoms: C_5  and  N_7
REMARK    3  A    between atoms: C_11  and  C_12
REMARK    4  A    between atoms: C_11  and  C_14
REMARK    5  A    between atoms: C_14  and  C_16
REMARK                            x       y       z     vdW  Elec       q    Type
REMARK                         _______ _______ _______ _____ _____    ______ ____
ROOT
ATOM      1  C   UNL     1       3.656   2.153   0.015  0.00  0.00    +0.030 C 
ATOM      2  C   UNL     1       3.640   3.524  -0.095  0.00  0.00    +0.100 C 
ENDROOT
BRANCH   1   5
ATOM      3  C   UNL     1       0.104   1.195  -0.702  0.00  0.00    +0.003 A 
ATOM      4  C   UNL     1       1.284   1.908  -0.689  0.00  0.00    +0.008 A 
ATOM      5  C   UNL     1       2.396   1.401  -0.005  0.00  0.00    -0.022 A 
ATOM      6  C   UNL     1       2.299   0.172   0.661  0.00  0.00    +0.040 A 
ATOM      7  C   UNL     1       1.111  -0.527   0.637  0.00  0.00    +0.127 A 
ATOM      8  C   UNL     1       0.017  -0.019  -0.042  0.00  0.00    +0.033 A 
BRANCH   7   9
ATOM      9  N   UNL     1       1.006  -1.826   1.339  0.00  0.00    +0.056 N 
ATOM     10  O   UNL     1       1.961  -2.272   1.933  0.00  0.00    -0.126 OA
ATOM     11  O   UNL     1      -0.035  -2.441   1.319  0.00  0.00    -0.126 OA
ENDBRANCH   7   9
ENDBRANCH   1   5
BRANCH   2  12
ATOM     12  C   UNL     1       2.395   4.231  -0.070  0.00  0.00    +0.103 C 
ATOM     13  N   UNL     1       1.407   4.791  -0.050  0.00  0.00    -0.191 NA
ENDBRANCH   2  12
BRANCH   2  14
ATOM     14  C   UNL     1       4.905   4.266  -0.238  0.00  0.00    +0.205 C 
ATOM     15  O   UNL     1       5.954   3.661  -0.362  0.00  0.00    -0.286 OA
BRANCH  14  16
ATOM     16  C   UNL     1       4.899   5.735  -0.231  0.00  0.00    +0.048 A 
ATOM     17  C   UNL     1       3.803   6.548  -0.217  0.00  0.00    +0.095 A 
ATOM     18  N   UNL     1       4.195   7.845  -0.213  0.00  0.00    -0.360 N 
ATOM     19  H   UNL     1       3.593   8.605  -0.204  0.00  0.00    +0.165 HD
ATOM     20  C   UNL     1       5.572   7.932  -0.226  0.00  0.00    +0.049 A 
ATOM     21  C   UNL     1       6.077   6.622  -0.231  0.00  0.00    +0.011 A 
ATOM     22  C   UNL     1       7.452   6.403  -0.238  0.00  0.00    +0.012 A 
ATOM     23  C   UNL     1       8.315   7.478  -0.236  0.00  0.00    +0.021 A 
ATOM     24  C   UNL     1       7.817   8.774  -0.227  0.00  0.00    +0.043 A 
ATOM     25  C   UNL     1       6.457   9.005  -0.229  0.00  0.00    +0.046 A 
ATOM     26 CL   UNL     1       8.917  10.117  -0.224  0.00  0.00    -0.083 Cl
ENDBRANCH  14  16
ENDBRANCH   2  14
TORSDOF 5
