REMARK  Name = ZINC33363561
REMARK  5 active torsions:
REMARK  status: ('A' for Active; 'I' for Inactive)
REMARK    1  A    between atoms: C_4  and  O_15
REMARK    2  A    between atoms: C_5  and  N_7
REMARK    3  A    between atoms: C_8  and  C_10
REMARK    4  A    between atoms: C_11  and  C_12
REMARK    5  A    between atoms: O_15  and  C_16
REMARK                            x       y       z     vdW  Elec       q    Type
REMARK                         _______ _______ _______ _____ _____    ______ ____
ROOT
ATOM      1  C   UNL     1       3.077   8.514  -2.031  0.00  0.00    +0.002 A 
ATOM      2  C   UNL     1       1.768   8.075  -1.951  0.00  0.00    +0.004 A 
ATOM      3  C   UNL     1       1.486   6.810  -1.469  0.00  0.00    +0.048 A 
ATOM      4  C   UNL     1       2.517   5.982  -1.053  0.00  0.00    +0.150 A 
ATOM      5  C   UNL     1       3.836   6.423  -1.133  0.00  0.00    +0.076 A 
ATOM      6  C   UNL     1       4.111   7.692  -1.623  0.00  0.00    +0.027 A 
ENDROOT
BRANCH   5   7
ATOM      7  N   UNL     1       4.881   5.590  -0.720  0.00  0.00    -0.279 N 
ATOM      8  C   UNL     1       5.982   6.120  -0.151  0.00  0.00    +0.241 C 
ATOM      9  O   UNL     1       6.104   7.327  -0.073  0.00  0.00    -0.270 OA
ATOM     10  H   UNL     1       4.805   4.502  -0.861  0.00  0.00    +0.155 HD
BRANCH   8  11
ATOM     11  C   UNL     1       7.038   5.235   0.379  0.00  0.00    +0.075 C 
ATOM     12  C   UNL     1       8.058   5.754   1.083  0.00  0.00    +0.101 C 
BRANCH  12  13
ATOM     13  C   UNL     1       7.878   7.019   1.819  0.00  0.00    +0.380 C 
ATOM     14  O   UNL     1       6.775   7.519   1.905  0.00  0.00    -0.241 OA
ATOM     15  O   UNL     1       8.938   7.620   2.395  0.00  0.00    -0.241 OA
ENDBRANCH  12  13
ENDBRANCH   8  11
ENDBRANCH   5   7
BRANCH   4  16
ATOM     16  O   UNL     1       2.241   4.740  -0.574  0.00  0.00    -0.453 OA
BRANCH  16  17
ATOM     17  C   UNL     1       0.953   4.308  -0.623  0.00  0.00    +0.147 A 
ATOM     18  C   UNL     1       0.152   4.385   0.507  0.00  0.00    +0.049 A 
ATOM     19  C   UNL     1      -1.156   3.946   0.457  0.00  0.00    +0.023 A 
ATOM     20  C   UNL     1      -1.671   3.434  -0.722  0.00  0.00    +0.043 A 
ATOM     21  C   UNL     1      -0.872   3.351  -1.849  0.00  0.00    +0.043 A 
ATOM     22  C   UNL     1       0.438   3.789  -1.802  0.00  0.00    +0.085 A 
ATOM     23 CL   UNL     1       1.437   3.692  -3.219  0.00  0.00    -0.080 Cl
ATOM     24 CL   UNL     1      -3.318   2.889  -0.784  0.00  0.00    -0.083 Cl
ENDBRANCH  16  17
ENDBRANCH   4  16
TORSDOF 5
