REMARK  Name = ZINC67088640
REMARK  2 active torsions:
REMARK  status: ('A' for Active; 'I' for Inactive)
REMARK    1  A    between atoms: C_8  and  C_12
REMARK    2  A    between atoms: N_14  and  C_15
REMARK                            x       y       z     vdW  Elec       q    Type
REMARK                         _______ _______ _______ _____ _____    ______ ____
ROOT
ATOM      1  C   UNL     1       2.621  -4.183   0.279  0.00  0.00    +0.255 C 
ATOM      2  O   UNL     1       1.639  -4.883   0.122  0.00  0.00    -0.270 OA
ATOM      3  N   UNL     1       3.825  -4.750   0.493  0.00  0.00    -0.279 N 
ATOM      4  H   UNL     1       4.619  -4.196   0.553  0.00  0.00    +0.155 HD
ENDROOT
BRANCH   1  12
ATOM      5  C   UNL     1      -0.011   1.359  -0.052  0.00  0.00    +0.001 A 
ATOM      6  C   UNL     1       1.175   2.081  -0.059  0.00  0.00    +0.004 A 
ATOM      7  C   UNL     1       2.392   1.432  -0.076  0.00  0.00    +0.047 A 
ATOM      8  C   UNL     1       2.435   0.044  -0.080  0.00  0.00    +0.139 A 
ATOM      9  C   UNL     1       1.233  -0.686  -0.045  0.00  0.00    +0.018 A 
ATOM     10  C   UNL     1       0.007  -0.006  -0.050  0.00  0.00    +0.011 A 
ATOM     11  C   UNL     1       1.270  -2.103   0.017  0.00  0.00    +0.031 A 
ATOM     12  C   UNL     1       2.496  -2.717   0.235  0.00  0.00    +0.122 A 
ATOM     13  C   UNL     1       3.667  -1.841   0.422  0.00  0.00    +0.350 A 
ATOM     14  O   UNL     1       4.641  -2.219   1.047  0.00  0.00    -0.244 OA
ATOM     15  O   UNL     1       3.624  -0.605  -0.125  0.00  0.00    -0.422 OA
ENDBRANCH   1  12
BRANCH   3  16
ATOM     16  C   UNL     1       3.930  -6.139   0.629  0.00  0.00    +0.072 A 
ATOM     17  C   UNL     1       3.095  -6.975  -0.102  0.00  0.00    +0.026 A 
ATOM     18  C   UNL     1       3.200  -8.345   0.034  0.00  0.00    +0.005 A 
ATOM     19  C   UNL     1       4.134  -8.889   0.896  0.00  0.00    +0.041 A 
ATOM     20  C   UNL     1       4.969  -8.060   1.628  0.00  0.00    +0.160 A 
ATOM     21  C   UNL     1       4.873  -6.686   1.491  0.00  0.00    +0.179 A 
ATOM     22  F   UNL     1       5.691  -5.877   2.200  0.00  0.00    -0.201 F 
ATOM     23  F   UNL     1       5.881  -8.594   2.470  0.00  0.00    -0.202 F 
ENDBRANCH   3  16
TORSDOF 2
