REMARK  Name = ZINC00244505
REMARK  5 active torsions:
REMARK  status: ('A' for Active; 'I' for Inactive)
REMARK    1  A    between atoms: C_1  and  C_2
REMARK    2  A    between atoms: C_7  and  N_8
REMARK    3  A    between atoms: C_9  and  C_11
REMARK    4  A    between atoms: C_11  and  C_13
REMARK    5  A    between atoms: C_11  and  N_14
REMARK                            x       y       z     vdW  Elec       q    Type
REMARK                         _______ _______ _______ _____ _____    ______ ____
ROOT
ATOM      1  C   UNL     1      -0.168   0.052   4.882  0.00  0.00    +0.168 C 
ATOM      2  C   UNL     1      -1.431   0.915   4.870  0.00  0.00    +0.038 C 
ENDROOT
BRANCH   1   3
ATOM      3  N   UNL     1      -0.241  -0.905   5.988  0.00  0.00    -0.222 N 
ATOM      4  C   UNL     1      -1.200  -1.839   6.125  0.00  0.00    +0.254 C 
ATOM      5  O   UNL     1      -2.128  -2.018   5.362  0.00  0.00    -0.270 OA
ATOM      6  C   UNL     1      -0.935  -2.610   7.358  0.00  0.00    +0.049 A 
ATOM      7  C   UNL     1      -1.568  -3.667   7.993  0.00  0.00    +0.014 A 
ATOM      8  C   UNL     1      -1.044  -4.172   9.172  0.00  0.00    +0.001 A 
ATOM      9  C   UNL     1       0.104  -3.629   9.719  0.00  0.00    +0.001 A 
ATOM     10  C   UNL     1       0.747  -2.571   9.095  0.00  0.00    +0.014 A 
ATOM     11  C   UNL     1       0.235  -2.056   7.915  0.00  0.00    +0.049 A 
ATOM     12  C   UNL     1       0.644  -0.971   6.999  0.00  0.00    +0.254 C 
ATOM     13  O   UNL     1       1.617  -0.256   7.136  0.00  0.00    -0.270 OA
ENDBRANCH   1   3
BRANCH   1  15
ATOM     14  N   UNL     1       0.025  -0.015   2.417  0.00  0.00    -0.284 N 
ATOM     15  C   UNL     1      -0.056  -0.694   3.578  0.00  0.00    +0.238 C 
ATOM     16  O   UNL     1      -0.040  -1.907   3.573  0.00  0.00    -0.273 OA
ATOM     17  H   UNL     1       0.078   0.954   2.425  0.00  0.00    +0.155 HD
BRANCH  14  24
ATOM     18  C   UNL     1      -1.264   1.184   0.181  0.00  0.00    +0.045 C 
ATOM     19  C   UNL     1      -0.584  -0.158   0.084  0.00  0.00    -0.029 A 
ATOM     20  C   UNL     1      -0.569  -0.840  -1.117  0.00  0.00    +0.005 A 
ATOM     21  C   UNL     1       0.055  -2.071  -1.206  0.00  0.00    +0.000 A 
ATOM     22  C   UNL     1       0.666  -2.622  -0.095  0.00  0.00    +0.002 A 
ATOM     23  C   UNL     1       0.655  -1.945   1.108  0.00  0.00    +0.023 A 
ATOM     24  C   UNL     1       0.034  -0.706   1.201  0.00  0.00    +0.036 A 
ENDBRANCH  14  24
ENDBRANCH   1  15
TORSDOF 3
