REMARK  Name = ZINC08691515
REMARK  4 active torsions:
REMARK  status: ('A' for Active; 'I' for Inactive)
REMARK    1  A    between atoms: C_4  and  C_7
REMARK    2  A    between atoms: C_7  and  C_9
REMARK    3  A    between atoms: N_11  and  C_28
REMARK    4  A    between atoms: N_18  and  C_21
REMARK                            x       y       z     vdW  Elec       q    Type
REMARK                         _______ _______ _______ _____ _____    ______ ____
ROOT
ATOM      1  C   UNL     1       3.728  -2.101   0.067  0.00  0.00    +0.121 C 
ATOM      2  N   UNL     1       2.686  -2.929   0.086  0.00  0.00    -0.179 NA
ATOM      3  N   UNL     1       3.004  -4.197   0.057  0.00  0.00    -0.211 N 
ATOM      4  C   UNL     1       4.346  -4.286  -0.491  0.00  0.00    +0.202 C 
ATOM      5  C   UNL     1       4.879  -2.952   0.153  0.00  0.00    +0.161 C 
ATOM      6  C   UNL     1       6.298  -3.092   0.008  0.00  0.00    +0.238 C 
ATOM      7  O   UNL     1       7.109  -2.210  -0.171  0.00  0.00    -0.274 OA
ATOM      8  N   UNL     1       6.542  -4.440   0.114  0.00  0.00    -0.207 N 
ATOM      9  C   UNL     1       5.385  -5.197   0.090  0.00  0.00    +0.250 C 
ATOM     10  O   UNL     1       5.234  -6.344   0.451  0.00  0.00    -0.273 OA
ENDROOT
BRANCH   8  11
ATOM     11  C   UNL     1       7.825  -4.994   0.230  0.00  0.00    +0.062 A 
ATOM     12  C   UNL     1       8.386  -5.194   1.484  0.00  0.00    +0.025 A 
ATOM     13  C   UNL     1       9.649  -5.740   1.595  0.00  0.00    +0.002 A 
ATOM     14  C   UNL     1      10.357  -6.087   0.458  0.00  0.00    +0.002 A 
ATOM     15  C   UNL     1       9.802  -5.890  -0.792  0.00  0.00    +0.022 A 
ATOM     16  C   UNL     1       8.535  -5.350  -0.910  0.00  0.00    +0.063 A 
ATOM     17 CL   UNL     1       7.835  -5.109  -2.481  0.00  0.00    -0.082 Cl
ENDBRANCH   8  11
BRANCH   3  18
ATOM     18  C   UNL     1       2.205  -5.263   0.474  0.00  0.00    +0.052 A 
ATOM     19  C   UNL     1       2.414  -6.535  -0.044  0.00  0.00    +0.025 A 
ATOM     20  C   UNL     1       1.622  -7.587   0.371  0.00  0.00    +0.002 A 
ATOM     21  C   UNL     1       0.621  -7.376   1.301  0.00  0.00    +0.000 A 
ATOM     22  C   UNL     1       0.409  -6.111   1.819  0.00  0.00    +0.002 A 
ATOM     23  C   UNL     1       1.201  -5.055   1.413  0.00  0.00    +0.025 A 
ENDBRANCH   3  18
BRANCH   1  24
ATOM     24  C   UNL     1       3.705  -0.686  -0.025  0.00  0.00    +0.209 C 
ATOM     25  O   UNL     1       4.748  -0.066  -0.128  0.00  0.00    -0.285 OA
BRANCH  24  29
ATOM     26  C   UNL     1      -0.002   1.388   0.059  0.00  0.00    +0.000 A 
ATOM     27  C   UNL     1       1.186   2.099   0.070  0.00  0.00    +0.001 A 
ATOM     28  C   UNL     1       2.393   1.431   0.043  0.00  0.00    +0.012 A 
ATOM     29  C   UNL     1       2.414   0.036   0.005  0.00  0.00    +0.024 A 
ATOM     30  C   UNL     1       1.213  -0.675  -0.005  0.00  0.00    +0.012 A 
ATOM     31  C   UNL     1       0.013   0.005   0.022  0.00  0.00    +0.001 A 
ENDBRANCH  24  29
ENDBRANCH   1  24
TORSDOF 4
