REMARK  Name = ZINC00203694
REMARK  5 active torsions:
REMARK  status: ('A' for Active; 'I' for Inactive)
REMARK    1  A    between atoms: C_1  and  C_2
REMARK    2  A    between atoms: C_6  and  N_8
REMARK    3  A    between atoms: C_16  and  C_22
REMARK    4  A    between atoms: C_22  and  O_24
REMARK    5  A    between atoms: O_24  and  C_25
REMARK                            x       y       z     vdW  Elec       q    Type
REMARK                         _______ _______ _______ _____ _____    ______ ____
ROOT
ATOM      1  N   UNL     1      -0.613   5.516  -0.590  0.00  0.00    -0.268 N 
ATOM      2  C   UNL     1      -1.348   4.480   0.174  0.00  0.00    +0.153 C 
ATOM      3  C   UNL     1      -0.549   3.234  -0.044  0.00  0.00    +0.116 C 
ATOM      4  C   UNL     1      -1.102   1.855   0.017  0.00  0.00    +0.008 C 
ATOM      5  C   UNL     1      -0.013   1.076   0.008  0.00  0.00    +0.004 C 
ATOM      6  C   UNL     1       1.210   2.001   0.001  0.00  0.00    +0.157 C 
ATOM      7  O   UNL     1       0.677   3.148   0.758  0.00  0.00    -0.359 OA
ATOM      8  C   UNL     1       1.303   2.620  -1.431  0.00  0.00    +0.145 C 
ATOM      9  C   UNL     1       0.014   3.459  -1.496  0.00  0.00    +0.129 C 
ATOM     10  C   UNL     1       0.226   4.947  -1.492  0.00  0.00    +0.227 C 
ATOM     11  O   UNL     1       1.023   5.544  -2.185  0.00  0.00    -0.275 OA
ENDROOT
BRANCH   1  17
ATOM     12  C   UNL     1       0.625  10.111  -1.827  0.00  0.00    +0.044 C 
ATOM     13  C   UNL     1      -0.175   9.145  -0.992  0.00  0.00    -0.049 A 
ATOM     14  C   UNL     1      -1.060   9.622  -0.042  0.00  0.00    +0.003 A 
ATOM     15  C   UNL     1      -1.797   8.739   0.726  0.00  0.00    +0.002 A 
ATOM     16  C   UNL     1      -1.655   7.377   0.543  0.00  0.00    +0.023 A 
ATOM     17  C   UNL     1      -0.763   6.895  -0.406  0.00  0.00    +0.037 A 
ATOM     18  C   UNL     1      -0.025   7.785  -1.176  0.00  0.00    +0.027 A 
ENDBRANCH   1  17
BRANCH   8  19
ATOM     19  C   UNL     1       1.299   1.543  -2.485  0.00  0.00    +0.314 C 
ATOM     20  O   UNL     1       0.413   1.504  -3.305  0.00  0.00    -0.250 OA
BRANCH  19  21
ATOM     21  O   UNL     1       2.280   0.628  -2.513  0.00  0.00    -0.468 OA
ATOM     22  C   UNL     1       2.212  -0.380  -3.556  0.00  0.00    +0.280 C 
ENDBRANCH  19  21
ENDBRANCH   8  19
TORSDOF 3
