REMARK  Name = ZINC63137252
REMARK  6 active torsions:
REMARK  status: ('A' for Active; 'I' for Inactive)
REMARK    1  A    between atoms: C_1  and  C_2
REMARK    2  A    between atoms: C_5  and  C_8
REMARK    3  A    between atoms: N_27  and  C_30
REMARK    4  A    between atoms: C_30  and  C_31
REMARK    5  A    between atoms: C_31  and  C_32
REMARK    6  A    between atoms: C_32  and  N_33
REMARK                            x       y       z     vdW  Elec       q    Type
REMARK                         _______ _______ _______ _____ _____    ______ ____
ROOT
ATOM      1  C   UNL     1       0.059  -4.275  -0.021  0.00  0.00    +0.133 C 
ATOM      2  C   UNL     1      -1.317  -4.814   0.377  0.00  0.00    +0.131 C 
ATOM      3  C   UNL     1      -1.500  -4.502   1.856  0.00  0.00    -0.034 C 
ATOM      4  C   UNL     1      -2.628  -3.809   1.957  0.00  0.00    -0.001 A 
ATOM      5  C   UNL     1      -3.359  -3.293   3.126  0.00  0.00    +0.010 A 
ATOM      6  C   UNL     1      -4.500  -2.602   2.861  0.00  0.00    +0.001 A 
ATOM      7  C   UNL     1      -4.979  -2.375   1.568  0.00  0.00    +0.002 A 
ATOM      8  C   UNL     1      -4.375  -2.818   0.436  0.00  0.00    +0.026 A 
ATOM      9  C   UNL     1      -3.168  -3.562   0.586  0.00  0.00    +0.043 A 
ATOM     10  N   UNL     1      -2.400  -4.125  -0.328  0.00  0.00    -0.375 N 
ATOM     11  C   UNL     1      -0.477  -4.889   2.896  0.00  0.00    +0.065 C 
ATOM     12  C   UNL     1       0.887  -4.401   2.374  0.00  0.00    +0.167 C 
ATOM     13  N   UNL     1       1.041  -4.770   0.970  0.00  0.00    -0.279 N 
ATOM     14  C   UNL     1       2.039  -5.546   0.530  0.00  0.00    +0.234 C 
ATOM     15  O   UNL     1       2.067  -5.811  -0.653  0.00  0.00    -0.274 OA
ATOM     16  C   UNL     1       3.120  -6.108   1.392  0.00  0.00    +0.203 C 
ATOM     17  N   UNL     1       2.977  -5.710   2.782  0.00  0.00    -0.291 N 
ATOM     18  C   UNL     1       1.979  -4.946   3.234  0.00  0.00    +0.237 C 
ATOM     19  O   UNL     1       1.959  -4.676   4.416  0.00  0.00    -0.274 OA
ATOM     20  H   UNL     1      -2.518  -4.089  -1.290  0.00  0.00    +0.160 HD
ENDROOT
BRANCH   1  25
ATOM     21  C   UNL     1      -0.018   1.503   0.009  0.00  0.00    +0.044 C 
ATOM     22  C   UNL     1       0.002  -0.004   0.001  0.00  0.00    -0.050 A 
ATOM     23  C   UNL     1       0.320  -0.685  -1.159  0.00  0.00    +0.004 A 
ATOM     24  C   UNL     1       0.339  -2.067  -1.166  0.00  0.00    +0.006 A 
ATOM     25  C   UNL     1       0.040  -2.768  -0.013  0.00  0.00    -0.025 A 
ATOM     26  C   UNL     1      -0.277  -2.088   1.147  0.00  0.00    +0.006 A 
ATOM     27  C   UNL     1      -0.291  -0.705   1.156  0.00  0.00    +0.004 A 
ENDBRANCH   1  25
BRANCH  17  28
ATOM     28  C   UNL     1       3.982  -6.174   3.742  0.00  0.00    +0.109 C 
BRANCH  28  29
ATOM     29  C   UNL     1       5.121  -5.155   3.820  0.00  0.00    +0.034 C 
BRANCH  29  30
ATOM     30  C   UNL     1       6.171  -5.640   4.822  0.00  0.00    +0.086 C 
BRANCH  30  31
ATOM     31  N   UNL     1       7.265  -4.662   4.897  0.00  0.00    -0.298 NA
ATOM     32  C   UNL     1       8.005  -4.602   3.628  0.00  0.00    +0.112 C 
ATOM     33  C   UNL     1       9.094  -3.532   3.729  0.00  0.00    +0.175 C 
ATOM     34  O   UNL     1       9.946  -3.829   4.838  0.00  0.00    -0.377 OA
ATOM     35  C   UNL     1       9.258  -3.895   6.091  0.00  0.00    +0.175 C 
ATOM     36  C   UNL     1       8.170  -4.969   6.013  0.00  0.00    +0.112 C 
ENDBRANCH  30  31
ENDBRANCH  29  30
ENDBRANCH  28  29
ENDBRANCH  17  28
TORSDOF 5
