REMARK  Name = ZINC06732659
REMARK  5 active torsions:
REMARK  status: ('A' for Active; 'I' for Inactive)
REMARK    1  A    between atoms: C_1  and  C_2
REMARK    2  A    between atoms: C_2  and  O_3
REMARK    3  A    between atoms: O_3  and  C_4
REMARK    4  A    between atoms: C_17  and  C_20
REMARK    5  A    between atoms: C_23  and  C_26
REMARK                            x       y       z     vdW  Elec       q    Type
REMARK                         _______ _______ _______ _____ _____    ______ ____
ROOT
ATOM      1  C   UNL     1       0.801  -1.812   1.304  0.00  0.00    +0.403 C 
ATOM      2  O   UNL     1       0.321  -2.554   0.470  0.00  0.00    -0.226 OA
ATOM      3  N   UNL     1       1.441  -2.324   2.374  0.00  0.00    -0.262 N 
ATOM      4  C   UNL     1       1.580  -3.777   2.556  0.00  0.00    +0.116 C 
ATOM      5  C   UNL     1       3.059  -4.162   2.494  0.00  0.00    +0.056 C 
ATOM      6  C   UNL     1       3.858  -3.221   3.384  0.00  0.00    -0.020 A 
ATOM      7  C   UNL     1       3.365  -2.022   3.765  0.00  0.00    +0.013 A 
ATOM      8  S   UNL     1       4.635  -1.302   4.768  0.00  0.00    -0.076 S 
ATOM      9  C   UNL     1       5.761  -2.519   4.701  0.00  0.00    +0.080 A 
ATOM     10  C   UNL     1       5.189  -3.513   3.893  0.00  0.00    +0.068 A 
ATOM     11  C   UNL     1       5.984  -4.735   3.637  0.00  0.00    +0.248 C 
ATOM     12  O   UNL     1       5.635  -5.557   2.810  0.00  0.00    -0.270 OA
ATOM     13  N   UNL     1       7.112  -4.901   4.361  0.00  0.00    -0.289 N 
ATOM     14  C   UNL     1       7.491  -4.032   5.470  0.00  0.00    +0.190 C 
ATOM     15  N   UNL     1       7.006  -2.656   5.265  0.00  0.00    -0.316 N 
ATOM     16  C   UNL     1       2.034  -1.447   3.404  0.00  0.00    +0.153 C 
ATOM     17  H   UNL     1       7.702  -5.636   4.130  0.00  0.00    +0.151 HD
ATOM     18  H   UNL     1       7.539  -1.885   5.515  0.00  0.00    +0.149 HD
ENDROOT
BRANCH  14  19
ATOM     19  C   UNL     1       6.902  -4.577   6.746  0.00  0.00    -0.009 A 
ATOM     20  C   UNL     1       6.559  -3.716   7.771  0.00  0.00    +0.007 A 
ATOM     21  C   UNL     1       6.018  -4.215   8.941  0.00  0.00    +0.004 A 
ATOM     22  C   UNL     1       5.820  -5.575   9.086  0.00  0.00    -0.050 A 
ATOM     23  C   UNL     1       6.162  -6.436   8.060  0.00  0.00    +0.004 A 
ATOM     24  C   UNL     1       6.699  -5.937   6.888  0.00  0.00    +0.007 A 
ATOM     25  C   UNL     1       5.232  -6.120  10.362  0.00  0.00    +0.044 C 
ENDBRANCH  14  19
BRANCH   1  26
ATOM     26  O   UNL     1       0.693  -0.477   1.160  0.00  0.00    -0.451 OA
BRANCH  26  28
ATOM     27  C   UNL     1      -0.019   1.526   0.010  0.00  0.00    +0.048 C 
ATOM     28  C   UNL     1       0.002  -0.004   0.002  0.00  0.00    +0.230 C 
ENDBRANCH  26  28
ENDBRANCH   1  26
TORSDOF 3
