REMARK  Name = ZINC19656148
REMARK  5 active torsions:
REMARK  status: ('A' for Active; 'I' for Inactive)
REMARK    1  A    between atoms: C_1  and  C_2
REMARK    2  A    between atoms: C_2  and  C_3
REMARK    3  A    between atoms: C_11  and  C_13
REMARK    4  A    between atoms: C_17  and  C_23
REMARK    5  A    between atoms: N_21  and  C_22
REMARK                            x       y       z     vdW  Elec       q    Type
REMARK                         _______ _______ _______ _____ _____    ______ ____
ROOT
ATOM      1  C   UNL     1       3.666   1.523   1.886  0.00  0.00    +0.162 C 
ATOM      2  C   UNL     1       4.411   2.264   0.815  0.00  0.00    +0.234 C 
ATOM      3  O   UNL     1       5.598   2.464   0.969  0.00  0.00    -0.274 OA
ATOM      4  N   UNL     1       3.829   2.716  -0.296  0.00  0.00    -0.312 N 
ATOM      5  C   UNL     1       2.402   2.630  -0.575  0.00  0.00    +0.123 C 
ATOM      6  C   UNL     1       1.752   1.523   0.257  0.00  0.00    +0.127 C 
ATOM      7  N   UNL     1       2.221   1.657   1.646  0.00  0.00    -0.283 N 
ATOM      8  C   UNL     1       1.361   1.897   2.656  0.00  0.00    +0.264 C 
ATOM      9  O   UNL     1       1.785   2.126   3.774  0.00  0.00    -0.268 OA
ATOM     10  H   UNL     1       4.505   3.180  -1.029  0.00  0.00    +0.149 HD
ENDROOT
BRANCH   8  11
ATOM     11  C   UNL     1      -0.088   1.883   2.408  0.00  0.00    +0.105 A 
ATOM     12  C   UNL     1      -0.709   1.203   1.409  0.00  0.00    +0.041 A 
ATOM     13  C   UNL     1      -2.099   1.450   1.518  0.00  0.00    +0.001 A 
ATOM     14  C   UNL     1      -3.212   1.027   0.781  0.00  0.00    +0.013 A 
ATOM     15  C   UNL     1      -4.463   1.432   1.148  0.00  0.00    -0.050 A 
ATOM     16  C   UNL     1      -4.643   2.273   2.239  0.00  0.00    +0.005 A 
ATOM     17  C   UNL     1      -3.564   2.708   2.975  0.00  0.00    +0.026 A 
ATOM     18  C   UNL     1      -2.279   2.301   2.626  0.00  0.00    +0.049 A 
ATOM     19  N   UNL     1      -1.035   2.558   3.153  0.00  0.00    -0.339 N 
ATOM     20  C   UNL     1      -0.760   3.403   4.318  0.00  0.00    +0.149 C 
ATOM     21  C   UNL     1      -5.659   0.970   0.356  0.00  0.00    +0.044 C 
ENDBRANCH   8  11
BRANCH   1  23
ATOM     22  C   UNL     1       3.386  -0.691   3.009  0.00  0.00    +0.006 C 
ATOM     23  C   UNL     1       4.057   0.045   1.848  0.00  0.00    +0.028 C 
ENDBRANCH   1  23
TORSDOF 2
