REMARK  Name = ZINC02732578
REMARK  7 active torsions:
REMARK  status: ('A' for Active; 'I' for Inactive)
REMARK    1  A    between atoms: C_1  and  C_2
REMARK    2  A    between atoms: C_2  and  N_3
REMARK    3  A    between atoms: C_6  and  C_8
REMARK    4  A    between atoms: C_9  and  C_20
REMARK    5  A    between atoms: C_11  and  C_13
REMARK    6  A    between atoms: N_16  and  C_19
REMARK    7  A    between atoms: C_17  and  C_18
REMARK                            x       y       z     vdW  Elec       q    Type
REMARK                         _______ _______ _______ _____ _____    ______ ____
ROOT
ATOM      1  N   UNL     1      -0.698   1.558   1.213  0.00  0.00    -0.246 N 
ATOM      2  C   UNL     1      -1.702   0.902   1.875  0.00  0.00    +0.160 A 
ATOM      3  C   UNL     1      -2.058   1.718   2.967  0.00  0.00    +0.050 A 
ATOM      4  C   UNL     1      -1.230   2.864   2.916  0.00  0.00    +0.070 A 
ATOM      5  N   UNL     1      -0.436   2.755   1.891  0.00  0.00    -0.174 NA
ATOM      6  C   UNL     1      -1.257   4.013   3.890  0.00  0.00    +0.068 C 
ATOM      7  C   UNL     1      -3.076   1.295   3.836  0.00  0.00    +0.032 A 
ATOM      8  C   UNL     1      -3.688   0.099   3.585  0.00  0.00    +0.038 A 
ATOM      9  C   UNL     1      -3.288  -0.665   2.483  0.00  0.00    +0.077 A 
ATOM     10  N   UNL     1      -2.326  -0.251   1.674  0.00  0.00    -0.227 NA
ENDROOT
BRANCH   9  11
ATOM     11  C   UNL     1      -3.954  -1.962   2.217  0.00  0.00    +0.041 A 
ATOM     12  C   UNL     1      -4.986  -2.542   2.983  0.00  0.00    +0.144 A 
ATOM     13  N   UNL     1      -5.310  -3.680   2.429  0.00  0.00    -0.179 NA
ATOM     14  N   UNL     1      -4.501  -3.875   1.304  0.00  0.00    -0.271 N 
ATOM     15  C   UNL     1      -3.677  -2.816   1.187  0.00  0.00    +0.045 A 
ATOM     16  C   UNL     1      -2.638  -2.610   0.115  0.00  0.00    +0.066 C 
ATOM     17  C   UNL     1      -4.543  -5.033   0.407  0.00  0.00    +0.172 C 
ENDBRANCH   9  11
BRANCH   7  18
ATOM     18  C   UNL     1      -3.486   2.139   5.015  0.00  0.00    +0.372 C 
ATOM     19  F   UNL     1      -2.387   2.320   5.862  0.00  0.00    -0.204 F 
ATOM     20  F   UNL     1      -3.937   3.384   4.564  0.00  0.00    -0.204 F 
ENDBRANCH   7  18
BRANCH   1  22
ATOM     21  C   UNL     1      -0.753   1.593  -1.232  0.00  0.00    +0.029 C 
ATOM     22  C   UNL     1      -0.013   1.086   0.008  0.00  0.00    +0.142 C 
ENDBRANCH   1  22
TORSDOF 3
