REMARK  Name = ZINC01019425
REMARK  9 active torsions:
REMARK  status: ('A' for Active; 'I' for Inactive)
REMARK    1  A    between atoms: C_1  and  C_2
REMARK    2  A    between atoms: C_6  and  N_9
REMARK    3  A    between atoms: C_7  and  C_8
REMARK    4  A    between atoms: C_10  and  C_12
REMARK    5  A    between atoms: C_12  and  S_13
REMARK    6  A    between atoms: S_13  and  C_14
REMARK    7  A    between atoms: C_17  and  C_20
REMARK    8  A    between atoms: N_18  and  C_19
REMARK    9  A    between atoms: C_24  and  N_26
REMARK                            x       y       z     vdW  Elec       q    Type
REMARK                         _______ _______ _______ _____ _____    ______ ____
ROOT
ATOM      1  C   UNL     1      -0.474   6.859  -0.275  0.00  0.00    +0.192 A 
ATOM      2  N   UNL     1       0.760   6.790   0.174  0.00  0.00    -0.122 NA
ATOM      3  N   UNL     1       1.112   5.562   0.309  0.00  0.00    -0.128 NA
ATOM      4  C   UNL     1       0.129   4.771  -0.054  0.00  0.00    +0.165 A 
ATOM      5  N   UNL     1      -0.918   5.578  -0.435  0.00  0.00    -0.305 N 
ATOM      6  C   UNL     1      -2.235   5.151  -0.914  0.00  0.00    +0.153 C 
ENDROOT
BRANCH   4   7
ATOM      7  C   UNL     1       0.143   3.293  -0.048  0.00  0.00    +0.021 A 
ATOM      8  C   UNL     1      -1.059   2.581  -0.040  0.00  0.00    +0.012 A 
ATOM      9  C   UNL     1      -1.043   1.201  -0.040  0.00  0.00    +0.002 A 
ATOM     10  C   UNL     1       0.159   0.519  -0.037  0.00  0.00    +0.023 A 
ATOM     11  C   UNL     1       1.360   1.218  -0.045  0.00  0.00    +0.025 A 
ATOM     12  C   UNL     1       1.355   2.604  -0.051  0.00  0.00    +0.034 A 
BRANCH  11  13
ATOM     13  N   UNL     1       2.572   0.523  -0.048  0.00  0.00    -0.358 N 
ATOM     14  H   UNL     1       2.576  -0.447  -0.043  0.00  0.00    +0.142 HD
ATOM     15  H   UNL     1       3.411   1.011  -0.054  0.00  0.00    +0.142 HD
ENDBRANCH  11  13
ENDBRANCH   4   7
BRANCH   1  16
ATOM     16  S   UNL     1      -1.385   8.330  -0.606  0.00  0.00    -0.077 S 
BRANCH  16  17
ATOM     17  C   UNL     1      -0.148   9.574  -0.157  0.00  0.00    +0.173 C 
BRANCH  17  19
ATOM     18  N   UNL     1       0.024  12.040  -0.096  0.00  0.00    -0.285 N 
ATOM     19  C   UNL     1      -0.722  10.951  -0.366  0.00  0.00    +0.227 C 
ATOM     20  O   UNL     1      -1.856  11.080  -0.778  0.00  0.00    -0.275 OA
ATOM     21  H   UNL     1       0.948  11.938   0.181  0.00  0.00    +0.155 HD
BRANCH  18  27
ATOM     22  C   UNL     1      -0.275  16.689   1.476  0.00  0.00    +0.044 C 
ATOM     23  C   UNL     1      -0.698  15.590   0.536  0.00  0.00    -0.046 A 
ATOM     24  C   UNL     1      -1.638  15.845  -0.446  0.00  0.00    +0.004 A 
ATOM     25  C   UNL     1      -2.028  14.839  -1.311  0.00  0.00    +0.002 A 
ATOM     26  C   UNL     1      -1.479  13.577  -1.198  0.00  0.00    +0.023 A 
ATOM     27  C   UNL     1      -0.534  13.318  -0.213  0.00  0.00    +0.037 A 
ATOM     28  C   UNL     1      -0.149  14.329   0.658  0.00  0.00    -0.026 A 
ATOM     29  C   UNL     1       0.871  14.051   1.732  0.00  0.00    +0.046 C 
ENDBRANCH  18  27
ENDBRANCH  17  19
ENDBRANCH  16  17
ENDBRANCH   1  16
TORSDOF 6
