REMARK  Name = ZINC65335881
REMARK  4 active torsions:
REMARK  status: ('A' for Active; 'I' for Inactive)
REMARK    1  A    between atoms: C_1  and  S_2
REMARK    2  A    between atoms: S_2  and  C_3
REMARK    3  A    between atoms: C_7  and  C_16
REMARK    4  A    between atoms: N_9  and  C_10
REMARK                            x       y       z     vdW  Elec       q    Type
REMARK                         _______ _______ _______ _____ _____    ______ ____
ROOT
ATOM      1  C   UNL     1       1.018  -0.599   1.661  0.00  0.00    +0.275 C 
ATOM      2  N   UNL     1       2.310   0.088   1.598  0.00  0.00    -0.156 NA
ATOM      3  N   UNL     1       2.362   1.036   2.378  0.00  0.00    -0.164 NA
ATOM      4  C   UNL     1       1.117   1.189   3.132  0.00  0.00    +0.245 C 
ATOM      5  N   UNL     1       0.217   0.116   2.671  0.00  0.00    -0.273 N 
ENDROOT
BRANCH   4   6
ATOM      6  C   UNL     1       0.494   2.558   2.847  0.00  0.00    +0.177 C 
ATOM      7  C   UNL     1       1.432   3.660   3.286  0.00  0.00    +0.051 C 
ATOM      8  C   UNL     1       0.782   4.357   4.220  0.00  0.00    +0.151 A 
ATOM      9  C   UNL     1      -0.558   3.764   4.423  0.00  0.00    +0.104 A 
ATOM     10  N   UNL     1      -0.729   2.733   3.639  0.00  0.00    -0.269 NA
ATOM     11  C   UNL     1      -1.173   4.606   5.461  0.00  0.00    +0.069 A 
ATOM     12  C   UNL     1      -0.272   5.543   5.780  0.00  0.00    +0.198 A 
ATOM     13  O   UNL     1       0.860   5.410   5.071  0.00  0.00    -0.462 OA
ENDBRANCH   4   6
BRANCH   5  14
ATOM     14  C   UNL     1      -1.086  -0.160   3.091  0.00  0.00    +0.034 A 
ATOM     15  C   UNL     1      -1.321  -0.606   4.386  0.00  0.00    +0.023 A 
ATOM     16  C   UNL     1      -2.611  -0.877   4.798  0.00  0.00    +0.002 A 
ATOM     17  C   UNL     1      -3.668  -0.705   3.924  0.00  0.00    +0.000 A 
ATOM     18  C   UNL     1      -3.438  -0.261   2.634  0.00  0.00    +0.002 A 
ATOM     19  C   UNL     1      -2.151   0.017   2.217  0.00  0.00    +0.023 A 
ENDBRANCH   5  14
BRANCH   1  21
ATOM     20  C   UNL     1       0.061   1.250  -0.298  0.00  0.00    +0.088 C 
ATOM     21  S   UNL     1       0.194  -0.526   0.047  0.00  0.00    -0.117 S 
ENDBRANCH   1  21
TORSDOF 3
