REMARK  Name = ZINC66625277
REMARK  8 active torsions:
REMARK  status: ('A' for Active; 'I' for Inactive)
REMARK    1  A    between atoms: C_1  and  C_2
REMARK    2  A    between atoms: C_5  and  N_9
REMARK    3  A    between atoms: C_6  and  C_8
REMARK    4  A    between atoms: C_11  and  C_25
REMARK    5  A    between atoms: C_12  and  C_14
REMARK    6  A    between atoms: N_16  and  C_17
REMARK    7  A    between atoms: C_17  and  C_18
REMARK    8  A    between atoms: N_22  and  C_23
REMARK                            x       y       z     vdW  Elec       q    Type
REMARK                         _______ _______ _______ _____ _____    ______ ____
ROOT
ATOM      1  N   UNL     1       0.443  -4.131   0.220  0.00  0.00    -0.149 N 
ATOM      2  N   UNL     1       0.551  -4.843   1.422  0.00  0.00    -0.152 NA
ATOM      3  C   UNL     1       0.745  -6.103   1.110  0.00  0.00    +0.093 A 
ATOM      4  C   UNL     1       0.757  -6.172  -0.294  0.00  0.00    +0.170 A 
ATOM      5  N   UNL     1       0.564  -4.953  -0.763  0.00  0.00    -0.142 NA
ATOM      6  C   UNL     1       0.921  -7.251   2.070  0.00  0.00    +0.070 C 
ENDROOT
BRANCH   1  11
ATOM      7  C   UNL     1      -0.416   1.460  -0.240  0.00  0.00    +0.044 C 
ATOM      8  C   UNL     1      -0.188  -0.025  -0.118  0.00  0.00    -0.050 A 
ATOM      9  C   UNL     1       0.791  -0.637  -0.878  0.00  0.00    +0.005 A 
ATOM     10  C   UNL     1       1.003  -1.997  -0.768  0.00  0.00    +0.030 A 
ATOM     11  C   UNL     1       0.231  -2.750   0.107  0.00  0.00    +0.089 A 
ATOM     12  C   UNL     1      -0.752  -2.132   0.869  0.00  0.00    -0.023 A 
ATOM     13  C   UNL     1      -0.955  -0.770   0.758  0.00  0.00    +0.008 A 
ATOM     14  C   UNL     1      -1.592  -2.946   1.819  0.00  0.00    +0.046 C 
ENDBRANCH   1  11
BRANCH   4  15
ATOM     15  C   UNL     1       0.945  -7.395  -1.103  0.00  0.00    +0.266 C 
ATOM     16  O   UNL     1       1.110  -8.467  -0.554  0.00  0.00    -0.268 OA
ATOM     17  N   UNL     1       0.935  -7.321  -2.448  0.00  0.00    -0.303 N 
ATOM     18  H   UNL     1       0.804  -6.465  -2.886  0.00  0.00    +0.150 HD
BRANCH  17  19
ATOM     19  C   UNL     1       1.122  -8.533  -3.250  0.00  0.00    +0.181 C 
BRANCH  19  20
ATOM     20  C   UNL     1       1.069  -8.180  -4.714  0.00  0.00    +0.149 A 
ATOM     21  N   UNL     1       0.892  -6.992  -5.196  0.00  0.00    -0.157 NA
ATOM     22  N   UNL     1       0.905  -7.083  -6.595  0.00  0.00    -0.254 N 
ATOM     23  C   UNL     1       1.097  -8.381  -6.911  0.00  0.00    +0.175 A 
ATOM     24  N   UNL     1       1.205  -9.066  -5.755  0.00  0.00    -0.309 N 
ATOM     25  C   UNL     1       1.427 -10.508  -5.630  0.00  0.00    +0.152 C 
ATOM     26  S   UNL     1       1.193  -9.036  -8.489  0.00  0.00    -0.011 S 
ATOM     27  H   UNL     1       0.795  -6.349  -7.220  0.00  0.00    +0.191 HD
ENDBRANCH  19  20
ENDBRANCH  17  19
ENDBRANCH   4  15
TORSDOF 4
