REMARK  Name = ZINC08858074
REMARK  7 active torsions:
REMARK  status: ('A' for Active; 'I' for Inactive)
REMARK    1  A    between atoms: C_1  and  C_2
REMARK    2  A    between atoms: C_2  and  N_63
REMARK    3  A    between atoms: N_5  and  C_8
REMARK    4  A    between atoms: C_9  and  C_20
REMARK    5  A    between atoms: C_14  and  C_19
REMARK    6  A    between atoms: N_24  and  C_28
REMARK    7  A    between atoms: C_28  and  C_29
REMARK                            x       y       z     vdW  Elec       q    Type
REMARK                         _______ _______ _______ _____ _____    ______ ____
ROOT
ATOM      1  C   UNL     1      -3.436  -1.444  -0.025  0.00  0.00    +0.136 A 
ATOM      2  C   UNL     1      -2.412  -0.479   0.129  0.00  0.00    +0.081 A 
ATOM      3  C   UNL     1      -2.761   0.890   0.047  0.00  0.00    +0.267 A 
ATOM      4  O   UNL     1      -1.912   1.755   0.179  0.00  0.00    -0.267 OA
ATOM      5  N   UNL     1      -4.050   1.222  -0.183  0.00  0.00    -0.267 N 
ATOM      6  C   UNL     1      -4.394   2.538  -0.268  0.00  0.00    +0.099 A 
ATOM      7  C   UNL     1      -5.676   2.905  -0.492  0.00  0.00    -0.034 A 
ATOM      8  C   UNL     1      -6.671   1.929  -0.642  0.00  0.00    +0.008 A 
ATOM      9  C   UNL     1      -6.336   0.610  -0.559  0.00  0.00    +0.047 A 
ATOM     10  C   UNL     1      -4.998   0.247  -0.325  0.00  0.00    +0.142 A 
ATOM     11  N   UNL     1      -4.680  -1.046  -0.245  0.00  0.00    -0.214 NA
ATOM     12  C   UNL     1      -6.036   4.365  -0.583  0.00  0.00    +0.045 C 
ENDROOT
BRANCH   2  13
ATOM     13  C   UNL     1      -1.074  -0.873   0.364  0.00  0.00    +0.037 C 
ATOM     14  C   UNL     1      -0.776  -1.673   1.429  0.00  0.00    +0.077 C 
ATOM     15  C   UNL     1       0.464  -2.273   1.792  0.00  0.00    +0.258 C 
ATOM     16  O   UNL     1       1.463  -2.107   1.115  0.00  0.00    -0.269 OA
ATOM     17  N   UNL     1       0.500  -3.016   2.885  0.00  0.00    -0.253 N 
ATOM     18  C   UNL     1      -0.609  -3.201   3.636  0.00  0.00    +0.121 C 
ATOM     19  S   UNL     1      -0.791  -4.113   5.074  0.00  0.00    -0.027 S 
ATOM     20  S   UNL     1      -1.835  -2.253   2.748  0.00  0.00    -0.061 S 
BRANCH  17  21
ATOM     21  C   UNL     1       1.759  -3.648   3.287  0.00  0.00    +0.146 C 
BRANCH  21  22
ATOM     22  C   UNL     1       2.532  -2.703   4.209  0.00  0.00    +0.136 C 
ATOM     23  C   UNL     1       3.862  -3.356   4.632  0.00  0.00    +0.035 C 
ATOM     24  C   UNL     1       4.945  -2.363   4.142  0.00  0.00    +0.031 C 
ATOM     25  C   UNL     1       4.138  -1.048   3.999  0.00  0.00    +0.160 C 
ATOM     26  O   UNL     1       2.852  -1.490   3.507  0.00  0.00    -0.375 OA
ENDBRANCH  21  22
ENDBRANCH  17  21
ENDBRANCH   2  13
BRANCH   1  29
ATOM     27  C   UNL     1      -4.000  -5.072   0.230  0.00  0.00    -0.060 C 
ATOM     28  C   UNL     1      -4.367  -3.596   0.063  0.00  0.00    +0.088 C 
ATOM     29  N   UNL     1      -3.140  -2.787   0.053  0.00  0.00    -0.318 N 
ATOM     30  C   UNL     1      -2.253  -3.196  -1.045  0.00  0.00    +0.088 C 
ATOM     31  C   UNL     1      -1.886  -4.672  -0.878  0.00  0.00    -0.060 C 
ATOM     32  N   UNL     1      -3.126  -5.476  -0.891  0.00  0.00    +0.382 N 
ATOM     33  H   UNL     1      -3.621  -5.312  -1.776  0.00  0.00    -0.082 HD
BRANCH  32  35
ATOM     34  C   UNL     1      -2.086  -7.355  -2.065  0.00  0.00    -0.017 C 
ATOM     35  C   UNL     1      -2.798  -6.914  -0.784  0.00  0.00    -0.082 C 
ENDBRANCH  32  35
ENDBRANCH   1  29
TORSDOF 5
