REMARK  Name = ZINC13689564
REMARK  5 active torsions:
REMARK  status: ('A' for Active; 'I' for Inactive)
REMARK    1  A    between atoms: C_3  and  C_14
REMARK    2  A    between atoms: N_4  and  C_6
REMARK    3  A    between atoms: C_6  and  C_7
REMARK    4  A    between atoms: N_21  and  C_24
REMARK    5  A    between atoms: C_24  and  C_25
REMARK                            x       y       z     vdW  Elec       q    Type
REMARK                         _______ _______ _______ _____ _____    ______ ____
ROOT
ATOM      1  C   UNL     1       1.497   4.256  -0.119  0.00  0.00    +0.044 C 
ATOM      2  C   UNL     1       2.870   4.081  -0.249  0.00  0.00    +0.101 C 
ATOM      3  C   UNL     1       3.796   5.227  -0.228  0.00  0.00    +0.257 C 
ATOM      4  O   UNL     1       3.381   6.363  -0.097  0.00  0.00    -0.270 OA
ATOM      5  N   UNL     1       5.117   4.982  -0.353  0.00  0.00    -0.236 N 
ATOM      6  C   UNL     1       5.587   3.736  -0.504  0.00  0.00    +0.316 C 
ATOM      7  O   UNL     1       6.787   3.583  -0.618  0.00  0.00    -0.252 OA
ATOM      8  N   UNL     1       4.802   2.649  -0.537  0.00  0.00    -0.214 N 
ATOM      9  C   UNL     1       3.462   2.743  -0.418  0.00  0.00    +0.260 C 
ATOM     10  O   UNL     1       2.761   1.749  -0.449  0.00  0.00    -0.269 OA
ATOM     11  H   UNL     1       5.740   5.725  -0.338  0.00  0.00    +0.159 HD
ENDROOT
BRANCH   1  14
ATOM     12  C   UNL     1      -0.957   1.631  -0.383  0.00  0.00    +0.020 A 
ATOM     13  C   UNL     1      -0.406   2.821  -0.855  0.00  0.00    +0.027 A 
ATOM     14  C   UNL     1       0.653   3.138  -0.012  0.00  0.00    +0.043 A 
ATOM     15  N   UNL     1       0.723   2.150   0.949  0.00  0.00    -0.343 N 
ATOM     16  C   UNL     1      -0.256   1.251   0.717  0.00  0.00    +0.086 A 
BRANCH  15  17
ATOM     17  C   UNL     1       1.697   2.089   2.042  0.00  0.00    +0.157 C 
BRANCH  17  18
ATOM     18  C   UNL     1       1.226   2.953   3.183  0.00  0.00    -0.028 A 
ATOM     19  C   UNL     1       1.696   4.247   3.309  0.00  0.00    +0.008 A 
ATOM     20  C   UNL     1       1.261   5.043   4.352  0.00  0.00    +0.038 A 
ATOM     21  C   UNL     1       0.362   4.540   5.277  0.00  0.00    +0.123 A 
ATOM     22  C   UNL     1      -0.103   3.242   5.154  0.00  0.00    +0.038 A 
ATOM     23  C   UNL     1       0.329   2.450   4.107  0.00  0.00    +0.008 A 
ATOM     24  F   UNL     1      -0.059   5.315   6.301  0.00  0.00    -0.205 F 
ENDBRANCH  17  18
ENDBRANCH  15  17
ENDBRANCH   1  14
BRANCH   8  25
ATOM     25  C   UNL     1       5.415   1.329  -0.707  0.00  0.00    +0.192 C 
BRANCH  25  26
ATOM     26  C   UNL     1       5.509   1.004  -2.176  0.00  0.00    +0.123 A 
ATOM     27  C   UNL     1       6.542   1.303  -2.983  0.00  0.00    +0.046 A 
ATOM     28  C   UNL     1       6.212   0.815  -4.269  0.00  0.00    +0.041 A 
ATOM     29  C   UNL     1       4.993   0.255  -4.172  0.00  0.00    +0.195 A 
ATOM     30  O   UNL     1       4.572   0.373  -2.902  0.00  0.00    -0.466 OA
ENDBRANCH  25  26
ENDBRANCH   8  25
TORSDOF 5
