REMARK  Name = ZINC22059469
REMARK  6 active torsions:
REMARK  status: ('A' for Active; 'I' for Inactive)
REMARK    1  A    between atoms: C_1  and  C_2
REMARK    2  A    between atoms: C_2  and  N_3
REMARK    3  A    between atoms: N_3  and  C_4
REMARK    4  A    between atoms: C_9  and  C_10
REMARK    5  A    between atoms: C_11  and  C_13
REMARK    6  A    between atoms: C_13  and  N_14
REMARK                            x       y       z     vdW  Elec       q    Type
REMARK                         _______ _______ _______ _____ _____    ______ ____
ROOT
ATOM      1  N   UNL     1       0.250   6.891   1.269  0.00  0.00    -0.215 N 
ATOM      2  C   UNL     1       1.122   5.919   0.924  0.00  0.00    +0.251 C 
ATOM      3  O   UNL     1       1.716   5.167   1.666  0.00  0.00    -0.272 OA
ATOM      4  C   UNL     1       1.199   5.971  -0.580  0.00  0.00    +0.138 C 
ATOM      5  C   UNL     1       2.631   6.253  -1.053  0.00  0.00    +0.045 C 
ATOM      6  C   UNL     1       3.161   4.832  -1.351  0.00  0.00    +0.038 C 
ATOM      7  C   UNL     1       1.931   4.004  -1.657  0.00  0.00    -0.042 A 
ATOM      8  C   UNL     1       0.799   4.661  -1.202  0.00  0.00    -0.012 A 
ATOM      9  C   UNL     1      -0.446   4.079  -1.370  0.00  0.00    +0.006 A 
ATOM     10  C   UNL     1      -0.563   2.851  -1.991  0.00  0.00    +0.000 A 
ATOM     11  C   UNL     1       0.566   2.198  -2.448  0.00  0.00    +0.000 A 
ATOM     12  C   UNL     1       1.810   2.775  -2.280  0.00  0.00    +0.004 A 
ATOM     13  N   UNL     1       0.290   7.053  -0.959  0.00  0.00    -0.281 N 
ATOM     14  C   UNL     1      -0.222   7.534   0.193  0.00  0.00    +0.310 C 
ATOM     15  O   UNL     1      -1.021   8.448   0.247  0.00  0.00    -0.252 OA
ATOM     16  H   UNL     1       0.152   7.310  -2.019  0.00  0.00    +0.152 HD
ENDROOT
BRANCH   1  17
ATOM     17  C   UNL     1      -0.134   7.202   2.648  0.00  0.00    +0.214 C 
BRANCH  17  19
ATOM     18  N   UNL     1      -1.867   6.498   4.266  0.00  0.00    -0.270 N 
ATOM     19  C   UNL     1      -1.335   6.378   3.034  0.00  0.00    +0.238 C 
ATOM     20  O   UNL     1      -1.823   5.607   2.235  0.00  0.00    -0.274 OA
BRANCH  18  21
ATOM     21  C   UNL     1      -2.983   5.733   4.624  0.00  0.00    +0.039 A 
ATOM     22  C   UNL     1      -4.262   6.185   4.326  0.00  0.00    +0.024 A 
ATOM     23  C   UNL     1      -5.360   5.428   4.681  0.00  0.00    +0.002 A 
ATOM     24  C   UNL     1      -5.188   4.220   5.332  0.00  0.00    +0.000 A 
ATOM     25  C   UNL     1      -3.916   3.767   5.630  0.00  0.00    +0.005 A 
ATOM     26  C   UNL     1      -2.813   4.517   5.273  0.00  0.00    -0.029 A 
ATOM     27  C   UNL     1      -1.427   4.019   5.592  0.00  0.00    +0.045 C 
ENDBRANCH  18  21
BRANCH  18  29
ATOM     28  C   UNL     1      -1.913   8.812   5.059  0.00  0.00    +0.025 C 
ATOM     29  C   UNL     1      -1.278   7.430   5.231  0.00  0.00    +0.110 C 
ENDBRANCH  18  29
ENDBRANCH  17  19
ENDBRANCH   1  17
TORSDOF 4
