REMARK  Name = ZINC09576075
REMARK  3 active torsions:
REMARK  status: ('A' for Active; 'I' for Inactive)
REMARK    1  A    between atoms: C_2  and  C_3
REMARK    2  A    between atoms: C_3  and  N_4
REMARK    3  A    between atoms: C_23  and  C_25
REMARK                            x       y       z     vdW  Elec       q    Type
REMARK                         _______ _______ _______ _____ _____    ______ ____
ROOT
ATOM      1  N   UNL     1      -3.270   1.577   0.995  0.00  0.00    -0.263 N 
ATOM      2  C   UNL     1      -3.141   0.862   2.173  0.00  0.00    +0.045 A 
ATOM      3  C   UNL     1      -2.291  -0.203   2.474  0.00  0.00    +0.024 A 
ATOM      4  C   UNL     1      -2.375  -0.740   3.749  0.00  0.00    +0.002 A 
ATOM      5  C   UNL     1      -3.257  -0.251   4.691  0.00  0.00    +0.001 A 
ATOM      6  C   UNL     1      -4.101   0.817   4.408  0.00  0.00    +0.010 A 
ATOM      7  C   UNL     1      -4.027   1.354   3.141  0.00  0.00    +0.034 A 
ATOM      8  C   UNL     1      -4.777   2.471   2.490  0.00  0.00    +0.249 C 
ATOM      9  C   UNL     1      -4.215   2.537   1.087  0.00  0.00    +0.276 C 
ATOM     10  O   UNL     1      -4.549   3.305   0.211  0.00  0.00    -0.270 OA
ATOM     11  N   UNL     1      -6.214   2.188   2.445  0.00  0.00    -0.230 N 
ATOM     12  C   UNL     1      -6.977   2.470   3.589  0.00  0.00    +0.045 A 
ATOM     13  C   UNL     1      -8.279   2.003   3.691  0.00  0.00    +0.024 A 
ATOM     14  C   UNL     1      -9.026   2.294   4.817  0.00  0.00    +0.002 A 
ATOM     15  C   UNL     1      -8.474   3.046   5.838  0.00  0.00    +0.000 A 
ATOM     16  C   UNL     1      -7.175   3.508   5.739  0.00  0.00    +0.008 A 
ATOM     17  C   UNL     1      -6.420   3.220   4.616  0.00  0.00    -0.000 A 
ATOM     18  C   UNL     1      -5.003   3.720   4.522  0.00  0.00    +0.200 C 
ATOM     19  O   UNL     1      -4.561   3.710   3.164  0.00  0.00    -0.339 OA
ATOM     20  C   UNL     1      -6.786   1.672   1.338  0.00  0.00    +0.226 C 
ATOM     21  O   UNL     1      -7.986   1.499   1.300  0.00  0.00    -0.275 OA
ENDROOT
BRANCH  20  22
ATOM     22  C   UNL     1      -5.934   1.311   0.149  0.00  0.00    +0.076 C 
ATOM     23  C   UNL     1      -6.087   2.161  -1.114  0.00  0.00    +0.013 C 
ATOM     24  C   UNL     1      -6.644   0.737  -1.079  0.00  0.00    +0.013 C 
ENDBRANCH  20  22
BRANCH   1  25
ATOM     25  C   UNL     1      -2.480   1.317  -0.210  0.00  0.00    +0.140 C 
BRANCH  25  27
ATOM     26  C   UNL     1      -0.054   1.579  -0.297  0.00  0.00    +0.005 C 
ATOM     27  C   UNL     1      -1.226   2.152  -0.178  0.00  0.00    -0.015 C 
ENDBRANCH  25  27
ENDBRANCH   1  25
TORSDOF 3
