REMARK  Name = ZINC55186141
REMARK  4 active torsions:
REMARK  status: ('A' for Active; 'I' for Inactive)
REMARK    1  A    between atoms: C_3  and  N_13
REMARK    2  A    between atoms: C_4  and  C_9
REMARK    3  A    between atoms: C_6  and  C_7
REMARK    4  A    between atoms: C_14  and  C_16
REMARK                            x       y       z     vdW  Elec       q    Type
REMARK                         _______ _______ _______ _____ _____    ______ ____
ROOT
ATOM      1  C   UNL     1      -0.019   1.405  -0.018  0.00  0.00    +0.021 A 
ATOM      2  C   UNL     1       1.167   2.105  -0.016  0.00  0.00    +0.025 A 
ATOM      3  C   UNL     1       2.379   1.421  -0.024  0.00  0.00    +0.045 A 
ATOM      4  C   UNL     1       2.397   0.030  -0.033  0.00  0.00    +0.077 A 
ATOM      5  C   UNL     1       1.214  -0.675  -0.035  0.00  0.00    +0.033 A 
ATOM      6  C   UNL     1      -0.005   0.008  -0.028  0.00  0.00    +0.052 A 
ENDROOT
BRANCH   4   7
ATOM      7  C   UNL     1       3.712  -0.706  -0.040  0.00  0.00    +0.419 C 
ATOM      8  F   UNL     1       3.475  -2.084  -0.049  0.00  0.00    -0.166 F 
ATOM      9  F   UNL     1       4.438  -0.350  -1.182  0.00  0.00    -0.166 F 
ATOM     10  F   UNL     1       4.444  -0.365   1.103  0.00  0.00    -0.166 F 
ENDBRANCH   4   7
BRANCH   3  11
ATOM     11  N   UNL     1       3.578   2.133  -0.022  0.00  0.00    -0.280 N 
ATOM     12  C   UNL     1       3.619   3.384   0.477  0.00  0.00    +0.267 C 
ATOM     13  O   UNL     1       2.636   3.856   1.017  0.00  0.00    -0.268 OA
ATOM     14  H   UNL     1       4.383   1.727  -0.380  0.00  0.00    +0.155 HD
BRANCH  12  15
ATOM     15  C   UNL     1       4.852   4.179   0.369  0.00  0.00    +0.135 A 
ATOM     16  C   UNL     1       4.907   5.452   0.878  0.00  0.00    +0.081 A 
ATOM     17  S   UNL     1       6.588   5.904   0.469  0.00  0.00    -0.060 S 
ATOM     18  C   UNL     1       7.047   4.372  -0.330  0.00  0.00    +0.156 A 
ATOM     19  N   UNL     1       5.937   3.671  -0.221  0.00  0.00    -0.221 NA
ATOM     20  N   UNL     1       8.254   4.015  -0.906  0.00  0.00    -0.338 N 
ATOM     21  H   UNL     1       8.994   4.641  -0.909  0.00  0.00    +0.144 HD
ATOM     22  H   UNL     1       8.359   3.138  -1.308  0.00  0.00    +0.144 HD
ENDBRANCH  12  15
ENDBRANCH   3  11
BRANCH   6  23
ATOM     23  C   UNL     1      -1.237  -0.722  -0.030  0.00  0.00    +0.099 C 
ATOM     24  N   UNL     1      -2.214  -1.302  -0.031  0.00  0.00    -0.191 NA
ENDBRANCH   6  23
TORSDOF 4
