REMARK  Name = ZINC39272118
REMARK  3 active torsions:
REMARK  status: ('A' for Active; 'I' for Inactive)
REMARK    1  A    between atoms: C_1  and  C_2
REMARK    2  A    between atoms: C_9  and  C_13
REMARK    3  A    between atoms: C_16  and  C_19
REMARK                            x       y       z     vdW  Elec       q    Type
REMARK                         _______ _______ _______ _____ _____    ______ ____
ROOT
ATOM      1  C   UNL     1       2.711  -3.091   1.778  0.00  0.00    +0.322 C 
ATOM      2  N   UNL     1       3.403  -4.144   2.537  0.00  0.00    -0.287 N 
ATOM      3  C   UNL     1       4.407  -3.522   3.257  0.00  0.00    +0.169 C 
ATOM      4  N   UNL     1       4.418  -2.248   3.041  0.00  0.00    -0.067 NA
ATOM      5  O   UNL     1       3.397  -1.879   2.129  0.00  0.00    -0.367 OA
ATOM      6  H   UNL     1       3.195  -5.091   2.534  0.00  0.00    +0.151 HD
ENDROOT
BRANCH   1  14
ATOM      7  C   UNL     1      -0.019   1.526   0.010  0.00  0.00    +0.008 C 
ATOM      8  C   UNL     1       0.002  -0.004   0.002  0.00  0.00    -0.010 C 
ATOM      9  C   UNL     1      -1.434  -0.535   0.016  0.00  0.00    +0.010 C 
ATOM     10  C   UNL     1      -1.428  -2.048  -0.229  0.00  0.00    +0.057 C 
ATOM     11  C   UNL     1      -0.442  -2.686   0.725  0.00  0.00    +0.065 C 
ATOM     12  C   UNL     1       0.504  -1.991   1.365  0.00  0.00    -0.015 C 
ATOM     13  C   UNL     1       0.742  -0.514   1.247  0.00  0.00    +0.038 C 
ATOM     14  C   UNL     1       1.241  -3.011   2.194  0.00  0.00    +0.217 C 
ATOM     15  N   UNL     1       0.532  -4.264   1.868  0.00  0.00    -0.174 NA
ATOM     16  N   UNL     1      -0.366  -3.991   1.064  0.00  0.00    -0.158 NA
ENDBRANCH   1  14
BRANCH   3  17
ATOM     17  C   UNL     1       5.347  -4.225   4.160  0.00  0.00    +0.036 A 
ATOM     18  C   UNL     1       5.258  -5.608   4.324  0.00  0.00    +0.013 A 
ATOM     19  C   UNL     1       6.137  -6.257   5.166  0.00  0.00    +0.001 A 
ATOM     20  C   UNL     1       7.106  -5.541   5.847  0.00  0.00    +0.001 A 
ATOM     21  C   UNL     1       7.200  -4.170   5.689  0.00  0.00    +0.021 A 
ATOM     22  C   UNL     1       6.329  -3.509   4.845  0.00  0.00    +0.051 A 
ATOM     23 CL   UNL     1       6.453  -1.789   4.641  0.00  0.00    -0.083 Cl
ENDBRANCH   3  17
TORSDOF 2
