REMARK  Name = ZINC04497487
REMARK  4 active torsions:
REMARK  status: ('A' for Active; 'I' for Inactive)
REMARK    1  A    between atoms: C_3  and  N_24
REMARK    2  A    between atoms: C_6  and  C_7
REMARK    3  A    between atoms: N_9  and  C_10
REMARK    4  A    between atoms: N_15  and  C_17
REMARK                            x       y       z     vdW  Elec       q    Type
REMARK                         _______ _______ _______ _____ _____    ______ ____
ROOT
ATOM      1  C   UNL     1       3.688  -0.680  -0.002  0.00  0.00    +0.244 C 
ATOM      2  O   UNL     1       3.708  -1.896  -0.018  0.00  0.00    -0.270 OA
ATOM      3  N   UNL     1       4.844   0.013  -0.017  0.00  0.00    -0.307 N 
ATOM      4  H   UNL     1       4.828   0.983  -0.004  0.00  0.00    +0.149 HD
ENDROOT
BRANCH   1  10
ATOM      5  C   UNL     1       1.197  -0.677   0.049  0.00  0.00    +0.015 A 
ATOM      6  C   UNL     1      -0.005  -0.001   0.083  0.00  0.00    +0.033 A 
ATOM      7  C   UNL     1      -0.024   1.382   0.102  0.00  0.00    +0.126 A 
ATOM      8  C   UNL     1       1.161   2.096   0.087  0.00  0.00    +0.033 A 
ATOM      9  C   UNL     1       2.370   1.433   0.053  0.00  0.00    +0.015 A 
ATOM     10  C   UNL     1       2.396   0.037   0.034  0.00  0.00    +0.037 A 
BRANCH   7  11
ATOM     11  N   UNL     1      -1.318   2.101   0.132  0.00  0.00    +0.056 N 
ATOM     12  O   UNL     1      -2.362   1.474   0.141  0.00  0.00    -0.126 OA
ATOM     13  O   UNL     1      -1.337   3.318   0.149  0.00  0.00    -0.126 OA
ENDBRANCH   7  11
ENDBRANCH   1  10
BRANCH   3  14
ATOM     14  C   UNL     1       6.124  -0.699  -0.052  0.00  0.00    +0.100 C 
ATOM     15  C   UNL     1       6.594  -1.064   1.375  0.00  0.00    +0.120 C 
ATOM     16  C   UNL     1       7.488   0.088   1.778  0.00  0.00    +0.222 C 
ATOM     17  O   UNL     1       7.835   0.333   2.914  0.00  0.00    -0.275 OA
ATOM     18  N   UNL     1       7.841   0.800   0.694  0.00  0.00    -0.270 N 
ATOM     19  C   UNL     1       7.261   0.233  -0.529  0.00  0.00    +0.136 C 
BRANCH  18  20
ATOM     20  C   UNL     1       8.658   1.936   0.727  0.00  0.00    +0.036 A 
ATOM     21  C   UNL     1       9.057   2.471   1.945  0.00  0.00    +0.025 A 
ATOM     22  C   UNL     1       9.866   3.589   1.975  0.00  0.00    +0.022 A 
ATOM     23  C   UNL     1      10.272   4.183   0.792  0.00  0.00    +0.041 A 
ATOM     24  C   UNL     1       9.871   3.655  -0.423  0.00  0.00    +0.022 A 
ATOM     25  C   UNL     1       9.066   2.534  -0.458  0.00  0.00    +0.025 A 
ATOM     26 CL   UNL     1      11.284   5.593   0.833  0.00  0.00    -0.084 Cl
ENDBRANCH  18  20
ENDBRANCH   3  14
TORSDOF 4
