REMARK  Name = ZINC35391996
REMARK  5 active torsions:
REMARK  status: ('A' for Active; 'I' for Inactive)
REMARK    1  A    between atoms: C_4  and  C_35
REMARK    2  A    between atoms: C_5  and  C_7
REMARK    3  A    between atoms: C_7  and  N_8
REMARK    4  A    between atoms: C_10  and  C_17
REMARK    5  A    between atoms: N_18  and  N_19
REMARK                            x       y       z     vdW  Elec       q    Type
REMARK                         _______ _______ _______ _____ _____    ______ ____
ROOT
ATOM      1  N   UNL     1       1.357  -2.704   1.344  0.00  0.00    -0.342 N 
ATOM      2  C   UNL     1       2.538  -3.042   1.931  0.00  0.00    +0.096 A 
ATOM      3  C   UNL     1       2.314  -3.451   3.210  0.00  0.00    +0.020 A 
ATOM      4  C   UNL     1       0.860  -3.358   3.433  0.00  0.00    +0.009 A 
ATOM      5  C   UNL     1       0.315  -2.879   2.230  0.00  0.00    +0.050 A 
ATOM      6  C   UNL     1      -1.059  -2.680   2.135  0.00  0.00    +0.026 A 
ATOM      7  C   UNL     1      -1.869  -2.950   3.217  0.00  0.00    +0.002 A 
ATOM      8  C   UNL     1      -1.328  -3.419   4.405  0.00  0.00    +0.001 A 
ATOM      9  C   UNL     1       0.029  -3.631   4.516  0.00  0.00    +0.010 A 
ENDROOT
BRANCH   3  10
ATOM     10  C   UNL     1       3.326  -3.899   4.180  0.00  0.00    +0.141 C 
ATOM     11  N   UNL     1       2.964  -4.264   5.373  0.00  0.00    -0.178 NA
BRANCH  11  12
ATOM     12  N   UNL     1       3.911  -4.790   6.261  0.00  0.00    -0.127 N 
ATOM     13  C   UNL     1       3.582  -5.289   7.458  0.00  0.00    +0.246 C 
ATOM     14  O   UNL     1       2.457  -5.346   7.907  0.00  0.00    -0.273 OA
ATOM     15  C   UNL     1       4.828  -5.772   8.163  0.00  0.00    +0.097 C 
ATOM     16  C   UNL     1       5.116  -4.814   9.362  0.00  0.00    +0.025 C 
ATOM     17  C   UNL     1       6.688  -4.823   9.364  0.00  0.00    +0.016 C 
ATOM     18  C   UNL     1       6.784  -4.326   7.875  0.00  0.00    +0.025 C 
ATOM     19  C   UNL     1       5.961  -5.460   7.141  0.00  0.00    +0.097 C 
ATOM     20  C   UNL     1       5.218  -4.840   5.979  0.00  0.00    +0.246 C 
ATOM     21  O   UNL     1       5.728  -4.447   4.952  0.00  0.00    -0.273 OA
ATOM     22  C   UNL     1       5.823  -3.132   7.935  0.00  0.00    -0.027 C 
ATOM     23  C   UNL     1       4.840  -3.415   8.798  0.00  0.00    -0.027 C 
ENDBRANCH  11  12
ENDBRANCH   3  10
BRANCH   1  24
ATOM     24  C   UNL     1       1.214  -2.220  -0.032  0.00  0.00    +0.158 C 
BRANCH  24  29
ATOM     25  C   UNL     1      -0.004   1.354  -0.023  0.00  0.00    +0.000 A 
ATOM     26  C   UNL     1       1.185   2.062  -0.041  0.00  0.00    +0.001 A 
ATOM     27  C   UNL     1       2.390   1.391  -0.056  0.00  0.00    +0.019 A 
ATOM     28  C   UNL     1       2.408  -0.006  -0.053  0.00  0.00    +0.057 A 
ATOM     29  C   UNL     1       1.205  -0.713  -0.035  0.00  0.00    -0.010 A 
ATOM     30  C   UNL     1       0.007  -0.029  -0.020  0.00  0.00    +0.006 A 
BRANCH  28  31
ATOM     31  C   UNL     1       3.656  -0.709  -0.069  0.00  0.00    +0.099 C 
ATOM     32  N   UNL     1       4.645  -1.267  -0.081  0.00  0.00    -0.191 NA
ENDBRANCH  28  31
ENDBRANCH  24  29
ENDBRANCH   1  24
TORSDOF 5
