REMARK  Name = ZINC32553409
REMARK  3 active torsions:
REMARK  status: ('A' for Active; 'I' for Inactive)
REMARK    1  A    between atoms: C_1  and  C_2
REMARK    2  A    between atoms: C_2  and  C_4
REMARK    3  A    between atoms: C_2  and  N_15
REMARK                            x       y       z     vdW  Elec       q    Type
REMARK                         _______ _______ _______ _____ _____    ______ ____
ROOT
ATOM      1  C   UNL     1       1.891   5.724  -1.488  0.00  0.00    +0.035 C 
ATOM      2  C   UNL     1       2.252   5.602  -0.007  0.00  0.00    +0.132 C 
ENDROOT
BRANCH   2   3
ATOM      3  N   UNL     1       1.216   6.249   0.803  0.00  0.00    -0.292 N 
ATOM      4  C   UNL     1      -0.067   5.808   0.731  0.00  0.00    +0.203 A 
ATOM      5  N   UNL     1      -1.039   6.324   1.421  0.00  0.00    -0.237 NA
ATOM      6  C   UNL     1      -0.836   7.366   2.266  0.00  0.00    +0.078 A 
ATOM      7  C   UNL     1      -1.882   7.925   3.003  0.00  0.00    +0.028 A 
ATOM      8  C   UNL     1      -1.631   8.981   3.850  0.00  0.00    +0.002 A 
ATOM      9  C   UNL     1      -0.348   9.499   3.980  0.00  0.00    +0.001 A 
ATOM     10  C   UNL     1       0.700   8.964   3.263  0.00  0.00    +0.015 A 
ATOM     11  C   UNL     1       0.466   7.895   2.401  0.00  0.00    +0.065 A 
ATOM     12  C   UNL     1       1.545   7.283   1.611  0.00  0.00    +0.262 A 
ATOM     13  O   UNL     1       2.690   7.691   1.681  0.00  0.00    -0.267 OA
ENDBRANCH   2   3
BRANCH   2  14
ATOM     14  C   UNL     1       2.348   4.123   0.375  0.00  0.00    +0.233 C 
ATOM     15  C   UNL     1       3.513   3.469  -0.379  0.00  0.00    +0.275 C 
ATOM     16  O   UNL     1       3.566   2.086  -0.011  0.00  0.00    -0.485 OA
ATOM     17  C   UNL     1       2.386   1.408  -0.010  0.00  0.00    +0.162 A 
ATOM     18  C   UNL     1       2.397   0.021  -0.019  0.00  0.00    +0.049 A 
ATOM     19  C   UNL     1       1.207  -0.681  -0.013  0.00  0.00    +0.004 A 
ATOM     20  C   UNL     1       0.002  -0.004   0.002  0.00  0.00    +0.004 A 
ATOM     21  C   UNL     1      -0.017   1.378   0.010  0.00  0.00    +0.049 A 
ATOM     22  C   UNL     1       1.174   2.089   0.002  0.00  0.00    +0.163 A 
ATOM     23  O   UNL     1       1.140   3.450   0.004  0.00  0.00    -0.480 OA
ENDBRANCH   2  14
TORSDOF 2
