REMARK  Name = ZINC09502827
REMARK  8 active torsions:
REMARK  status: ('A' for Active; 'I' for Inactive)
REMARK    1  A    between atoms: C_1  and  C_2
REMARK    2  A    between atoms: C_2  and  C_4
REMARK    3  A    between atoms: C_2  and  N_55
REMARK    4  A    between atoms: C_13  and  N_55
REMARK    5  A    between atoms: C_14  and  C_15
REMARK    6  A    between atoms: C_14  and  N_55
REMARK    7  A    between atoms: N_17  and  C_18
REMARK    8  A    between atoms: N_17  and  C_24
REMARK                            x       y       z     vdW  Elec       q    Type
REMARK                         _______ _______ _______ _____ _____    ______ ____
ROOT
ATOM      1  C   UNL     1      -2.162  -0.169  -1.354  0.00  0.00    +0.204 C 
ATOM      2  O   UNL     1      -3.313  -0.550  -1.399  0.00  0.00    -0.277 OA
ATOM      3  N   UNL     1      -1.374  -0.526  -0.321  0.00  0.00    -0.268 N 
ENDROOT
BRANCH   3   4
ATOM      4  C   UNL     1      -0.032   0.047  -0.191  0.00  0.00    +0.104 C 
ATOM      5  C   UNL     1       1.008  -1.082  -0.097  0.00  0.00    +0.047 C 
ATOM      6  C   UNL     1       2.371  -0.507   0.358  0.00  0.00    +0.168 C 
ATOM      7  S   UNL     1       1.880   0.962   1.349  0.00  0.00    -0.029 S 
ATOM      8  O   UNL     1       2.385   2.133   0.722  0.00  0.00    -0.174 OA
ATOM      9  O   UNL     1       2.177   0.717   2.717  0.00  0.00    -0.174 OA
ATOM     10  C   UNL     1       0.054   0.894   1.111  0.00  0.00    +0.188 C 
ENDBRANCH   3   4
BRANCH   3  11
ATOM     11  C   UNL     1      -1.838  -1.443   0.629  0.00  0.00    +0.037 A 
ATOM     12  C   UNL     1      -1.093  -1.697   1.773  0.00  0.00    +0.023 A 
ATOM     13  C   UNL     1      -1.556  -2.599   2.711  0.00  0.00    +0.002 A 
ATOM     14  C   UNL     1      -2.754  -3.257   2.506  0.00  0.00    +0.000 A 
ATOM     15  C   UNL     1      -3.496  -3.011   1.365  0.00  0.00    +0.002 A 
ATOM     16  C   UNL     1      -3.041  -2.106   0.426  0.00  0.00    +0.023 A 
ENDBRANCH   3  11
BRANCH   1  17
ATOM     17  C   UNL     1      -1.613   0.702  -2.454  0.00  0.00    +0.020 C 
BRANCH  17  19
ATOM     18  C   UNL     1      -2.863  -0.448  -4.180  0.00  0.00    -0.095 C 
ATOM     19  N   UNL     1      -2.643   0.848  -3.505  0.00  0.00    +0.389 N 
ATOM     20  H   UNL     1      -3.522   1.151  -3.070  0.00  0.00    -0.081 HD
BRANCH  19  22
ATOM     21  C   UNL     1      -1.023   1.360  -5.301  0.00  0.00    -0.006 C 
ATOM     22  C   UNL     1      -2.218   1.865  -4.490  0.00  0.00    -0.014 C 
BRANCH  22  23
ATOM     23  C   UNL     1      -3.370   2.153  -5.418  0.00  0.00    +0.066 A 
ATOM     24  N   UNL     1      -4.155   1.304  -6.019  0.00  0.00    -0.246 NA
ATOM     25  C   UNL     1      -5.162   1.696  -6.829  0.00  0.00    +0.078 A 
ATOM     26  C   UNL     1      -6.091   0.905  -7.540  0.00  0.00    +0.029 A 
ATOM     27  C   UNL     1      -7.043   1.485  -8.320  0.00  0.00    +0.002 A 
ATOM     28  C   UNL     1      -7.138   2.864  -8.448  0.00  0.00    +0.001 A 
ATOM     29  C   UNL     1      -6.247   3.672  -7.768  0.00  0.00    +0.017 A 
ATOM     30  C   UNL     1      -5.283   3.096  -6.978  0.00  0.00    +0.039 A 
ATOM     31  S   UNL     1      -3.965   3.695  -5.950  0.00  0.00    -0.074 S 
ENDBRANCH  22  23
ENDBRANCH  19  22
ENDBRANCH  17  19
ENDBRANCH   1  17
TORSDOF 6
