REMARK  Name = ZINC08236718
REMARK  5 active torsions:
REMARK  status: ('A' for Active; 'I' for Inactive)
REMARK    1  A    between atoms: C_1  and  C_2
REMARK    2  A    between atoms: C_2  and  C_27
REMARK    3  A    between atoms: C_7  and  C_11
REMARK    4  A    between atoms: N_13  and  N_14
REMARK    5  A    between atoms: C_15  and  C_17
REMARK                            x       y       z     vdW  Elec       q    Type
REMARK                         _______ _______ _______ _____ _____    ______ ____
ROOT
ATOM      1  C   UNL     1      -2.708   9.728   0.857  0.00  0.00    +0.239 C 
ATOM      2  O   UNL     1      -1.672  10.358   0.882  0.00  0.00    -0.273 OA
ATOM      3  N   UNL     1      -2.690   8.393   1.039  0.00  0.00    -0.233 N 
ATOM      4  H   UNL     1      -3.518   7.889   1.019  0.00  0.00    +0.173 HD
ENDROOT
BRANCH   1  10
ATOM      5  C   UNL     1      -7.227  10.726  -0.828  0.00  0.00    +0.016 C 
ATOM      6  C   UNL     1      -5.776  11.205  -0.900  0.00  0.00    -0.010 C 
ATOM      7  C   UNL     1      -5.479  12.212   0.253  0.00  0.00    +0.000 C 
ATOM      8  C   UNL     1      -6.033  11.510   1.531  0.00  0.00    +0.006 C 
ATOM      9  C   UNL     1      -5.065  10.329   1.773  0.00  0.00    +0.021 C 
ATOM     10  C   UNL     1      -4.017  10.439   0.624  0.00  0.00    +0.070 C 
ATOM     11  C   UNL     1      -3.937  11.996   0.450  0.00  0.00    +0.025 C 
ATOM     12  C   UNL     1      -4.785  10.027  -0.640  0.00  0.00    -0.056 C 
ATOM     13  C   UNL     1      -4.642   8.924  -1.333  0.00  0.00    +0.009 C 
ATOM     14  C   UNL     1      -5.497  11.852  -2.258  0.00  0.00    +0.016 C 
ENDBRANCH   1  10
BRANCH   3  15
ATOM     15  N   UNL     1      -1.473   7.733   1.256  0.00  0.00    -0.230 N 
ATOM     16  C   UNL     1      -1.455   6.397   1.438  0.00  0.00    +0.261 C 
ATOM     17  O   UNL     1      -2.493   5.766   1.413  0.00  0.00    -0.269 OA
ATOM     18  H   UNL     1      -0.645   8.236   1.276  0.00  0.00    +0.173 HD
BRANCH  16  19
ATOM     19  C   UNL     1      -0.174   5.702   1.667  0.00  0.00    +0.046 A 
ATOM     20  C   UNL     1       1.025   6.392   1.572  0.00  0.00    +0.014 A 
ATOM     21  C   UNL     1       2.234   5.743   1.786  0.00  0.00    +0.001 A 
ATOM     22  C   UNL     1       2.278   4.416   2.094  0.00  0.00    +0.008 A 
ATOM     23  C   UNL     1       1.087   3.677   2.200  0.00  0.00    -0.017 A 
ATOM     24  C   UNL     1      -0.155   4.321   1.985  0.00  0.00    -0.006 A 
ATOM     25  C   UNL     1      -1.342   3.583   2.090  0.00  0.00    +0.009 A 
ATOM     26  C   UNL     1      -1.286   2.256   2.392  0.00  0.00    +0.001 A 
ATOM     27  C   UNL     1      -0.066   1.621   2.610  0.00  0.00    +0.001 A 
ATOM     28  C   UNL     1       1.107   2.307   2.516  0.00  0.00    +0.008 A 
ENDBRANCH  16  19
ENDBRANCH   3  15
TORSDOF 3
