REMARK  Name = ZINC20559101
REMARK  8 active torsions:
REMARK  status: ('A' for Active; 'I' for Inactive)
REMARK    1  A    between atoms: C_1  and  C_2
REMARK    2  A    between atoms: C_2  and  O_3
REMARK    3  A    between atoms: O_3  and  C_4
REMARK    4  A    between atoms: C_4  and  C_6
REMARK    5  A    between atoms: C_7  and  C_19
REMARK    6  A    between atoms: C_12  and  C_14
REMARK    7  A    between atoms: C_19  and  N_20
REMARK    8  A    between atoms: C_23  and  N_26
REMARK                            x       y       z     vdW  Elec       q    Type
REMARK                         _______ _______ _______ _____ _____    ______ ____
ROOT
ATOM      1  C   UNL     1       4.956   2.425  -0.650  0.00  0.00    +0.080 C 
ATOM      2  C   UNL     1       4.250   1.970  -1.706  0.00  0.00    +0.038 C 
ATOM      3  N   UNL     1       2.972   1.512  -1.554  0.00  0.00    -0.271 N 
ATOM      4  C   UNL     1       2.331   1.477  -0.379  0.00  0.00    +0.304 C 
ATOM      5  O   UNL     1       1.193   1.051  -0.342  0.00  0.00    -0.252 OA
ATOM      6  N   UNL     1       2.906   1.898   0.765  0.00  0.00    -0.288 N 
ATOM      7  C   UNL     1       4.285   2.412   0.708  0.00  0.00    +0.150 C 
ATOM      8  H   UNL     1       2.412   1.145  -2.426  0.00  0.00    +0.156 HD
ATOM      9  H   UNL     1       2.370   1.865   1.725  0.00  0.00    +0.151 HD
ENDROOT
BRANCH   7  10
ATOM     10  C   UNL     1       5.130   1.577   1.636  0.00  0.00    +0.015 A 
ATOM     11  C   UNL     1       6.073   1.977   2.524  0.00  0.00    +0.013 A 
ATOM     12  C   UNL     1       6.734   1.024   3.274  0.00  0.00    +0.008 A 
ATOM     13  C   UNL     1       6.413  -0.283   3.108  0.00  0.00    +0.045 A 
ATOM     14  S   UNL     1       5.150  -0.195   1.850  0.00  0.00    -0.099 S 
ENDBRANCH   7  10
BRANCH   1  15
ATOM     15  C   UNL     1       6.280   2.900  -0.807  0.00  0.00    +0.339 C 
ATOM     16  O   UNL     1       6.759   3.009  -1.920  0.00  0.00    -0.245 OA
BRANCH  15  17
ATOM     17  O   UNL     1       7.010   3.233   0.278  0.00  0.00    -0.462 OA
BRANCH  17  19
ATOM     18  C   UNL     1       9.006   4.030   1.383  0.00  0.00    +0.048 C 
ATOM     19  C   UNL     1       8.339   3.705   0.045  0.00  0.00    +0.229 C 
ENDBRANCH  17  19
ENDBRANCH  15  17
ENDBRANCH   1  15
BRANCH   2  20
ATOM     20  C   UNL     1       4.881   1.965  -3.074  0.00  0.00    +0.135 C 
BRANCH  20  21
ATOM     21  N   UNL     1       4.704   3.283  -3.699  0.00  0.00    -0.297 NA
ATOM     22  C   UNL     1       3.285   3.554  -3.963  0.00  0.00    +0.083 C 
ATOM     23  C   UNL     1       3.125   4.987  -4.477  0.00  0.00    +0.000 C 
ATOM     24  C   UNL     1       3.944   5.159  -5.759  0.00  0.00    -0.066 C 
ATOM     25  C   UNL     1       5.410   4.824  -5.468  0.00  0.00    +0.000 C 
ATOM     26  C   UNL     1       5.503   3.396  -4.926  0.00  0.00    +0.083 C 
BRANCH  24  27
ATOM     27  N   UNL     1       3.841   6.548  -6.225  0.00  0.00    +0.382 N 
ATOM     28  C   UNL     1       4.327   7.483  -5.202  0.00  0.00    -0.078 C 
ATOM     29  C   UNL     1       4.342   8.903  -5.773  0.00  0.00    -0.019 C 
ATOM     30  C   UNL     1       2.926   9.287  -6.211  0.00  0.00    -0.004 C 
ATOM     31  C   UNL     1       2.425   8.269  -7.240  0.00  0.00    -0.019 C 
ATOM     32  C   UNL     1       2.466   6.868  -6.627  0.00  0.00    -0.078 C 
ATOM     33  H   UNL     1       4.484   6.657  -7.111  0.00  0.00    -0.081 HD
ENDBRANCH  24  27
ENDBRANCH  20  21
ENDBRANCH   2  20
TORSDOF 7
