REMARK  Name = ZINC54383215
REMARK  6 active torsions:
REMARK  status: ('A' for Active; 'I' for Inactive)
REMARK    1  A    between atoms: C_1  and  C_2
REMARK    2  A    between atoms: C_2  and  C_4
REMARK    3  A    between atoms: C_2  and  N_10
REMARK    4  A    between atoms: C_13  and  N_16
REMARK    5  A    between atoms: N_19  and  C_20
REMARK    6  A    between atoms: C_23  and  N_26
REMARK                            x       y       z     vdW  Elec       q    Type
REMARK                         _______ _______ _______ _____ _____    ______ ____
ROOT
ATOM      1  N   UNL     1      -0.604  -1.294   4.450  0.00  0.00    -0.298 N 
ATOM      2  C   UNL     1      -0.335  -1.758   5.687  0.00  0.00    +0.304 C 
ATOM      3  O   UNL     1       0.816  -1.957   6.025  0.00  0.00    -0.253 OA
ATOM      4  N   UNL     1      -1.343  -2.003   6.549  0.00  0.00    -0.269 N 
ATOM      5  H   UNL     1      -1.522  -1.136   4.181  0.00  0.00    +0.150 HD
ATOM      6  H   UNL     1      -2.255  -1.784   6.303  0.00  0.00    +0.156 HD
ENDROOT
BRANCH   1  10
ATOM      7  N   UNL     1       0.702  -0.499   1.186  0.00  0.00    +0.385 N 
ATOM      8  C   UNL     1       0.603  -1.980   1.259  0.00  0.00    -0.076 C 
ATOM      9  C   UNL     1       0.861  -2.314   2.744  0.00  0.00    +0.002 C 
ATOM     10  C   UNL     1       0.491  -1.029   3.514  0.00  0.00    +0.056 C 
ATOM     11  C   UNL     1       0.041  -0.027   2.429  0.00  0.00    -0.056 C 
ATOM     12  H   UNL     1       1.668  -0.209   1.168  0.00  0.00    -0.081 HD
BRANCH   7  14
ATOM     13  C   UNL     1      -0.003   1.535   0.019  0.00  0.00    -0.008 C 
ATOM     14  C   UNL     1      -0.008   0.005   0.003  0.00  0.00    -0.041 C 
BRANCH  14  15
ATOM     15  C   UNL     1       0.681  -0.486  -1.244  0.00  0.00    -0.061 A 
ATOM     16  C   UNL     1       2.061  -0.530  -1.300  0.00  0.00    +0.002 A 
ATOM     17  C   UNL     1       2.693  -0.981  -2.443  0.00  0.00    +0.000 A 
ATOM     18  C   UNL     1       1.944  -1.389  -3.532  0.00  0.00    +0.000 A 
ATOM     19  C   UNL     1       0.564  -1.346  -3.476  0.00  0.00    +0.000 A 
ATOM     20  C   UNL     1      -0.068  -0.899  -2.330  0.00  0.00    +0.002 A 
ENDBRANCH  14  15
ENDBRANCH   7  14
ENDBRANCH   1  10
BRANCH   4  21
ATOM     21  C   UNL     1      -1.072  -2.572   7.800  0.00  0.00    +0.035 A 
ATOM     22  C   UNL     1      -1.972  -3.466   8.365  0.00  0.00    +0.025 A 
ATOM     23  C   UNL     1      -1.705  -4.027   9.598  0.00  0.00    +0.025 A 
ATOM     24  C   UNL     1      -0.537  -3.698  10.273  0.00  0.00    +0.036 A 
ATOM     25  C   UNL     1       0.363  -2.804   9.707  0.00  0.00    +0.025 A 
ATOM     26  C   UNL     1       0.099  -2.248   8.472  0.00  0.00    +0.025 A 
BRANCH  24  27
ATOM     27  N   UNL     1      -0.267  -4.266  11.524  0.00  0.00    -0.271 N 
ATOM     28  C   UNL     1       0.872  -3.896  12.373  0.00  0.00    +0.114 C 
ATOM     29  C   UNL     1       0.526  -4.431  13.781  0.00  0.00    +0.029 C 
ATOM     30  C   UNL     1      -0.439  -5.593  13.449  0.00  0.00    +0.098 C 
ATOM     31  C   UNL     1      -1.020  -5.217  12.104  0.00  0.00    +0.220 C 
ATOM     32  O   UNL     1      -2.018  -5.705  11.617  0.00  0.00    -0.275 OA
ENDBRANCH  24  27
ENDBRANCH   4  21
TORSDOF 5
