REMARK  Name = ZINC12576637
REMARK  5 active torsions:
REMARK  status: ('A' for Active; 'I' for Inactive)
REMARK    1  A    between atoms: C_3  and  N_8
REMARK    2  A    between atoms: N_8  and  C_9
REMARK    3  A    between atoms: C_16  and  C_18
REMARK    4  A    between atoms: C_18  and  C_19
REMARK    5  A    between atoms: C_22  and  N_25
REMARK                            x       y       z     vdW  Elec       q    Type
REMARK                         _______ _______ _______ _____ _____    ______ ____
ROOT
ATOM      1  C   UNL     1       4.854   1.431  -0.076  0.00  0.00    +0.088 C 
ATOM      2  C   UNL     1       5.943   2.314   0.539  0.00  0.00    +0.025 C 
ATOM      3  C   UNL     1       7.267   1.548   0.568  0.00  0.00    +0.021 C 
ATOM      4  C   UNL     1       7.681   1.197  -0.865  0.00  0.00    +0.108 C 
ATOM      5  N   UNL     1       6.578   0.472  -1.511  0.00  0.00    -0.299 N 
ATOM      6  C   UNL     1       5.240   1.078  -1.516  0.00  0.00    +0.130 C 
ATOM      7  C   UNL     1       6.791  -0.727  -2.089  0.00  0.00    +0.220 C 
ATOM      8  O   UNL     1       5.872  -1.316  -2.619  0.00  0.00    -0.275 OA
ENDROOT
BRANCH   1   9
ATOM      9  N   UNL     1       3.580   2.154  -0.074  0.00  0.00    -0.339 N 
ATOM     10  H   UNL     1       3.572   3.124  -0.070  0.00  0.00    +0.146 HD
BRANCH   9  13
ATOM     11  C   UNL     1      -0.023   1.428  -0.084  0.00  0.00    +0.005 A 
ATOM     12  C   UNL     1       1.167   2.130  -0.078  0.00  0.00    +0.023 A 
ATOM     13  C   UNL     1       2.376   1.446  -0.080  0.00  0.00    +0.030 A 
ATOM     14  C   UNL     1       2.385   0.057  -0.087  0.00  0.00    +0.061 A 
ATOM     15  C   UNL     1       1.191  -0.640  -0.093  0.00  0.00    +0.125 A 
ATOM     16  C   UNL     1      -0.013   0.046  -0.091  0.00  0.00    +0.038 A 
ATOM     17  F   UNL     1       1.198  -1.991  -0.100  0.00  0.00    -0.205 F 
ENDBRANCH   9  13
ENDBRANCH   1   9
BRANCH   7  18
ATOM     18  C   UNL     1       8.169  -1.336  -2.077  0.00  0.00    +0.131 C 
BRANCH  18  19
ATOM     19  C   UNL     1       8.137  -2.667  -2.783  0.00  0.00    -0.039 A 
ATOM     20  C   UNL     1       7.866  -3.820  -2.069  0.00  0.00    +0.006 A 
ATOM     21  C   UNL     1       7.835  -5.042  -2.714  0.00  0.00    +0.024 A 
ATOM     22  C   UNL     1       8.076  -5.110  -4.080  0.00  0.00    +0.038 A 
ATOM     23  C   UNL     1       8.348  -3.950  -4.793  0.00  0.00    +0.024 A 
ATOM     24  C   UNL     1       8.372  -2.732  -4.144  0.00  0.00    +0.006 A 
BRANCH  22  25
ATOM     25  N   UNL     1       8.046  -6.346  -4.736  0.00  0.00    -0.254 N 
ATOM     26  C   UNL     1       8.171  -6.544  -6.187  0.00  0.00    +0.134 C 
ATOM     27  C   UNL     1       8.072  -8.072  -6.362  0.00  0.00    +0.125 C 
ATOM     28  N   UNL     1       7.902  -8.573  -4.990  0.00  0.00    -0.297 N 
ATOM     29  C   UNL     1       7.905  -7.538  -4.140  0.00  0.00    +0.307 C 
ATOM     30  O   UNL     1       7.785  -7.668  -2.937  0.00  0.00    -0.252 OA
ATOM     31  H   UNL     1       7.808  -9.505  -4.740  0.00  0.00    +0.150 HD
ENDBRANCH  22  25
ENDBRANCH  18  19
ENDBRANCH   7  18
TORSDOF 5
