REMARK  Name = ZINC67081624
REMARK  7 active torsions:
REMARK  status: ('A' for Active; 'I' for Inactive)
REMARK    1  A    between atoms: C_1  and  C_2
REMARK    2  A    between atoms: C_9  and  C_11
REMARK    3  A    between atoms: C_11  and  C_12
REMARK    4  A    between atoms: C_12  and  N_13
REMARK    5  A    between atoms: N_16  and  N_17
REMARK    6  A    between atoms: C_18  and  C_20
REMARK    7  A    between atoms: C_20  and  C_21
REMARK                            x       y       z     vdW  Elec       q    Type
REMARK                         _______ _______ _______ _____ _____    ______ ____
ROOT
ATOM      1  N   UNL     1       3.535   0.548   5.074  0.00  0.00    -0.298 N 
ATOM      2  C   UNL     1       4.020   1.405   5.995  0.00  0.00    +0.316 C 
ATOM      3  O   UNL     1       3.709   2.580   5.955  0.00  0.00    -0.251 OA
ATOM      4  N   UNL     1       4.850   0.960   6.958  0.00  0.00    -0.218 N 
ATOM      5  H   UNL     1       3.784  -0.389   5.105  0.00  0.00    +0.150 HD
ATOM      6  H   UNL     1       5.199   1.577   7.621  0.00  0.00    +0.174 HD
ENDROOT
BRANCH   4   7
ATOM      7  N   UNL     1       5.209  -0.394   7.003  0.00  0.00    -0.233 N 
ATOM      8  C   UNL     1       6.039  -0.839   7.967  0.00  0.00    +0.229 C 
ATOM      9  O   UNL     1       6.476  -0.068   8.796  0.00  0.00    -0.274 OA
ATOM     10  H   UNL     1       4.860  -1.010   6.341  0.00  0.00    +0.173 HD
BRANCH   8  11
ATOM     11  C   UNL     1       6.425  -2.295   8.016  0.00  0.00    +0.101 C 
BRANCH  11  12
ATOM     12  C   UNL     1       7.369  -2.533   9.197  0.00  0.00    -0.002 C 
ATOM     13  C   UNL     1       8.677  -1.775   8.965  0.00  0.00    +0.004 C 
ATOM     14  C   UNL     1       9.620  -2.014  10.146  0.00  0.00    +0.000 C 
ATOM     15  C   UNL     1       9.913  -3.510  10.271  0.00  0.00    +0.000 C 
ATOM     16  C   UNL     1       8.604  -4.268  10.502  0.00  0.00    +0.000 C 
ATOM     17  C   UNL     1       7.661  -4.030   9.321  0.00  0.00    +0.004 C 
ENDBRANCH  11  12
ENDBRANCH   8  11
ENDBRANCH   4   7
BRANCH   1  18
ATOM     18  C   UNL     1       2.633   1.033   4.026  0.00  0.00    +0.115 C 
BRANCH  18  19
ATOM     19  C   UNL     1       2.232  -0.133   3.120  0.00  0.00    +0.114 C 
BRANCH  19  27
ATOM     20  C   UNL     1       0.008   1.528  -0.006  0.00  0.00    +0.028 C 
ATOM     21  C   UNL     1       0.016  -0.002  -0.007  0.00  0.00    +0.073 C 
ATOM     22  C   UNL     1       0.633  -0.512  -1.313  0.00  0.00    +0.022 C 
ATOM     23  C   UNL     1       0.765  -2.035  -1.250  0.00  0.00    +0.003 C 
ATOM     24  C   UNL     1       1.692  -2.421  -0.095  0.00  0.00    +0.019 C 
ATOM     25  C   UNL     1       1.087  -1.933   1.225  0.00  0.00    +0.108 C 
ATOM     26  N   UNL     1       0.819  -0.492   1.122  0.00  0.00    -0.299 N 
ATOM     27  C   UNL     1       1.304   0.365   2.042  0.00  0.00    +0.217 C 
ATOM     28  O   UNL     1       0.994   1.537   2.003  0.00  0.00    -0.276 OA
ENDBRANCH  19  27
ENDBRANCH  18  19
ENDBRANCH   1  18
TORSDOF 6
