REMARK  Name = ZINC04312355
REMARK  8 active torsions:
REMARK  status: ('A' for Active; 'I' for Inactive)
REMARK    1  A    between atoms: C_1  and  C_2
REMARK    2  A    between atoms: C_2  and  C_3
REMARK    3  A    between atoms: C_3  and  C_4
REMARK    4  A    between atoms: C_11  and  N_28
REMARK    5  A    between atoms: C_12  and  C_26
REMARK    6  A    between atoms: C_13  and  C_15
REMARK    7  A    between atoms: C_18  and  O_21
REMARK    8  A    between atoms: O_21  and  C_22
REMARK                            x       y       z     vdW  Elec       q    Type
REMARK                         _______ _______ _______ _____ _____    ______ ____
ROOT
ATOM      1  C   UNL     1      -1.413  -2.041   0.005  0.00  0.00    +0.071 A 
ATOM      2  C   UNL     1      -1.407  -2.849  -1.124  0.00  0.00    +0.049 A 
ATOM      3  C   UNL     1      -1.387  -4.152  -0.711  0.00  0.00    +0.222 A 
ATOM      4  N   UNL     1      -1.381  -4.152   0.632  0.00  0.00    -0.246 N 
ATOM      5  H   UNL     1      -1.369  -4.936   1.203  0.00  0.00    +0.192 HD
ATOM      6  N   UNL     1      -1.392  -2.816   1.062  0.00  0.00    -0.176 NA
ATOM      7  O   UNL     1      -1.373  -5.195  -1.577  0.00  0.00    -0.423 OA
ATOM      8  C   UNL     1      -1.104  -4.928  -2.872  0.00  0.00    +0.200 C 
ATOM      9  C   UNL     1      -1.106  -3.684  -3.399  0.00  0.00    +0.098 C 
ATOM     10  C   UNL     1      -1.420  -2.458  -2.579  0.00  0.00    +0.101 C 
ENDROOT
BRANCH  10  11
ATOM     11  C   UNL     1      -2.782  -1.931  -2.951  0.00  0.00    -0.034 A 
ATOM     12  C   UNL     1      -3.896  -2.738  -2.811  0.00  0.00    +0.008 A 
ATOM     13  C   UNL     1      -5.146  -2.258  -3.152  0.00  0.00    +0.046 A 
ATOM     14  C   UNL     1      -5.282  -0.965  -3.636  0.00  0.00    +0.130 A 
ATOM     15  C   UNL     1      -4.163  -0.158  -3.776  0.00  0.00    +0.046 A 
ATOM     16  C   UNL     1      -2.916  -0.640  -3.428  0.00  0.00    +0.008 A 
BRANCH  14  17
ATOM     17  O   UNL     1      -6.510  -0.491  -3.973  0.00  0.00    -0.406 OA
BRANCH  17  18
ATOM     18  C   UNL     1      -6.576   0.850  -4.464  0.00  0.00    +0.575 C 
ATOM     19  F   UNL     1      -5.799   0.960  -5.623  0.00  0.00    -0.133 F 
ATOM     20  F   UNL     1      -7.904   1.173  -4.761  0.00  0.00    -0.133 F 
ATOM     21  F   UNL     1      -6.088   1.727  -3.490  0.00  0.00    -0.133 F 
ENDBRANCH  17  18
ENDBRANCH  14  17
ENDBRANCH  10  11
BRANCH   8  22
ATOM     22  N   UNL     1      -0.810  -5.982  -3.701  0.00  0.00    -0.328 N 
ATOM     23  H   UNL     1      -0.800  -6.886  -3.352  0.00  0.00    +0.145 HD
ATOM     24  H   UNL     1      -0.612  -5.821  -4.637  0.00  0.00    +0.145 HD
ENDBRANCH   8  22
BRANCH   9  25
ATOM     25  C   UNL     1      -0.799  -3.524  -4.789  0.00  0.00    +0.101 C 
ATOM     26  N   UNL     1      -0.555  -3.397  -5.891  0.00  0.00    -0.191 NA
ENDBRANCH   9  25
BRANCH   1  27
ATOM     27  C   UNL     1      -1.433  -0.534   0.013  0.00  0.00    +0.057 C 
BRANCH  27  29
ATOM     28  C   UNL     1      -0.019   1.526   0.010  0.00  0.00    +0.004 C 
ATOM     29  C   UNL     1       0.002  -0.004   0.002  0.00  0.00    +0.003 C 
ENDBRANCH  27  29
ENDBRANCH   1  27
TORSDOF 7
