REMARK  Name = ZINC09320460
REMARK  4 active torsions:
REMARK  status: ('A' for Active; 'I' for Inactive)
REMARK    1  A    between atoms: C_15  and  C_17
REMARK    2  A    between atoms: C_17  and  C_19
REMARK    3  A    between atoms: N_26  and  C_29
REMARK    4  A    between atoms: C_34  and  C_35
REMARK                            x       y       z     vdW  Elec       q    Type
REMARK                         _______ _______ _______ _____ _____    ______ ____
ROOT
ATOM      1  C   UNL     1       9.926   4.255   0.495  0.00  0.00    +0.001 A 
ATOM      2  C   UNL     1       9.476   3.806   1.725  0.00  0.00    +0.000 A 
ATOM      3  C   UNL     1       8.341   3.022   1.806  0.00  0.00    +0.006 A 
ATOM      4  C   UNL     1       7.637   2.677   0.674  0.00  0.00    -0.021 A 
ATOM      5  C   UNL     1       8.081   3.145  -0.578  0.00  0.00    -0.019 A 
ATOM      6  C   UNL     1       9.236   3.924  -0.651  0.00  0.00    +0.008 A 
ATOM      7  C   UNL     1       7.349   2.797  -1.810  0.00  0.00    +0.022 C 
ATOM      8  C   UNL     1       6.119   2.250  -1.746  0.00  0.00    +0.054 C 
ATOM      9  C   UNL     1       6.442   1.806   0.709  0.00  0.00    +0.100 C 
ATOM     10  C   UNL     1       5.543   1.764   1.899  0.00  0.00    +0.113 C 
ATOM     11  C   UNL     1       4.374   2.681   1.351  0.00  0.00    +0.116 C 
ATOM     12  C   UNL     1       4.189   2.180  -0.027  0.00  0.00    +0.144 C 
ATOM     13  C   UNL     1       3.620   2.945   2.549  0.00  0.00    +0.232 C 
ATOM     14  O   UNL     1       2.419   3.075   2.653  0.00  0.00    -0.274 OA
ATOM     15  N   UNL     1       4.561   3.017   3.547  0.00  0.00    -0.209 N 
ATOM     16  C   UNL     1       5.783   2.551   3.153  0.00  0.00    +0.232 C 
ATOM     17  O   UNL     1       6.846   2.735   3.707  0.00  0.00    -0.274 OA
ATOM     18  N   UNL     1       5.567   1.715  -0.426  0.00  0.00    -0.384 NA
ATOM     19  H   UNL     1       5.467   0.707  -0.595  0.00  0.00    +0.127 HD
ENDROOT
BRANCH  15  20
ATOM     20  C   UNL     1       4.295   3.516   4.830  0.00  0.00    +0.056 A 
ATOM     21  C   UNL     1       4.472   4.866   5.102  0.00  0.00    +0.024 A 
ATOM     22  C   UNL     1       4.205   5.355   6.366  0.00  0.00    +0.002 A 
ATOM     23  C   UNL     1       3.772   4.500   7.362  0.00  0.00    +0.001 A 
ATOM     24  C   UNL     1       3.600   3.154   7.096  0.00  0.00    +0.014 A 
ATOM     25  C   UNL     1       3.860   2.660   5.832  0.00  0.00    +0.077 A 
BRANCH  25  26
ATOM     26  C   UNL     1       3.673   1.193   5.543  0.00  0.00    +0.419 C 
ATOM     27  F   UNL     1       3.233   0.541   6.700  0.00  0.00    -0.166 F 
ATOM     28  F   UNL     1       2.722   1.036   4.529  0.00  0.00    -0.166 F 
ATOM     29  F   UNL     1       4.890   0.640   5.131  0.00  0.00    -0.166 F 
ENDBRANCH  25  26
ENDBRANCH  15  20
BRANCH  12  30
ATOM     30  C   UNL     1       3.508   0.835  -0.027  0.00  0.00    +0.217 C 
ATOM     31  O   UNL     1       4.172  -0.181  -0.040  0.00  0.00    -0.287 OA
BRANCH  30  32
ATOM     32  C   UNL     1       2.097   0.758  -0.014  0.00  0.00    +0.172 A 
ATOM     33  C   UNL     1       1.346  -0.401  -0.013  0.00  0.00    +0.053 A 
ATOM     34  C   UNL     1       0.002  -0.004   0.002  0.00  0.00    +0.042 A 
ATOM     35  C   UNL     1      -0.016   1.349   0.009  0.00  0.00    +0.196 A 
ATOM     36  O   UNL     1       1.243   1.803  -0.000  0.00  0.00    -0.460 OA
ENDBRANCH  30  32
ENDBRANCH  12  30
TORSDOF 4
