REMARK  Name = ZINC23156303
REMARK  5 active torsions:
REMARK  status: ('A' for Active; 'I' for Inactive)
REMARK    1  A    between atoms: C_1  and  C_2
REMARK    2  A    between atoms: C_2  and  C_7
REMARK    3  A    between atoms: N_12  and  C_15
REMARK    4  A    between atoms: C_18  and  C_24
REMARK    5  A    between atoms: C_20  and  N_21
REMARK                            x       y       z     vdW  Elec       q    Type
REMARK                         _______ _______ _______ _____ _____    ______ ____
ROOT
ATOM      1  C   UNL     1       5.337  -2.472  -0.228  0.00  0.00    +0.225 C 
ATOM      2  O   UNL     1       5.886  -3.194  -1.034  0.00  0.00    -0.275 OA
ATOM      3  N   UNL     1       4.995  -1.215  -0.573  0.00  0.00    -0.298 N 
ATOM      4  C   UNL     1       4.221  -0.365   0.345  0.00  0.00    +0.126 C 
ATOM      5  C   UNL     1       3.020   0.206  -0.418  0.00  0.00    +0.124 C 
ATOM      6  N   UNL     1       3.492   0.877  -1.636  0.00  0.00    -0.325 N 
ATOM      7  C   UNL     1       4.141  -0.073  -2.550  0.00  0.00    +0.124 C 
ATOM      8  C   UNL     1       5.388  -0.655  -1.875  0.00  0.00    +0.126 C 
ENDROOT
BRANCH   1  10
ATOM      9  C   UNL     1       5.513  -2.090   2.306  0.00  0.00    +0.024 C 
ATOM     10  C   UNL     1       5.037  -2.982   1.158  0.00  0.00    +0.080 C 
ATOM     11  C   UNL     1       5.075  -4.496   1.377  0.00  0.00    +0.058 C 
ATOM     12  C   UNL     1       3.734  -3.758   1.359  0.00  0.00    +0.133 C 
ATOM     13 CL   UNL     1       2.876  -3.551   2.931  0.00  0.00    -0.100 Cl
ATOM     14 CL   UNL     1       2.675  -3.993  -0.081  0.00  0.00    -0.100 Cl
ENDBRANCH   1  10
BRANCH   6  15
ATOM     15  C   UNL     1       2.447   1.550  -2.274  0.00  0.00    +0.060 A 
ATOM     16  C   UNL     1       1.334   0.847  -2.716  0.00  0.00    +0.026 A 
ATOM     17  C   UNL     1       0.305   1.516  -3.350  0.00  0.00    +0.014 A 
ATOM     18  C   UNL     1       0.378   2.884  -3.535  0.00  0.00    +0.057 A 
ATOM     19  C   UNL     1       1.485   3.587  -3.096  0.00  0.00    +0.047 A 
ATOM     20  C   UNL     1       2.520   2.924  -2.466  0.00  0.00    +0.148 A 
BRANCH  18  21
ATOM     21  C   UNL     1      -0.750   3.611  -4.223  0.00  0.00    +0.417 C 
ATOM     22  F   UNL     1      -0.513   3.642  -5.601  0.00  0.00    -0.166 F 
ATOM     23  F   UNL     1      -1.955   2.946  -3.971  0.00  0.00    -0.166 F 
ATOM     24  F   UNL     1      -0.828   4.919  -3.733  0.00  0.00    -0.166 F 
ENDBRANCH  18  21
BRANCH  20  25
ATOM     25  N   UNL     1       3.704   3.676  -1.996  0.00  0.00    +0.058 N 
ATOM     26  O   UNL     1       3.767   4.881  -2.165  0.00  0.00    -0.126 OA
ATOM     27  O   UNL     1       4.616   3.091  -1.440  0.00  0.00    -0.126 OA
ENDBRANCH  20  25
ENDBRANCH   6  15
TORSDOF 4
