REMARK  Name = ZINC05556838
REMARK  6 active torsions:
REMARK  status: ('A' for Active; 'I' for Inactive)
REMARK    1  A    between atoms: C_1  and  C_2
REMARK    2  A    between atoms: C_2  and  N_3
REMARK    3  A    between atoms: N_3  and  C_4
REMARK    4  A    between atoms: C_10  and  C_12
REMARK    5  A    between atoms: C_12  and  N_13
REMARK    6  A    between atoms: C_24  and  C_28
REMARK                            x       y       z     vdW  Elec       q    Type
REMARK                         _______ _______ _______ _____ _____    ______ ____
ROOT
ATOM      1  N   UNL     1      -1.499   2.351   0.056  0.00  0.00    -0.290 N 
ATOM      2  C   UNL     1      -1.813   3.670  -0.011  0.00  0.00    +0.203 A 
ATOM      3  N   UNL     1      -0.883   4.587  -0.006  0.00  0.00    -0.230 NA
ATOM      4  C   UNL     1       0.403   4.256   0.068  0.00  0.00    +0.116 A 
ATOM      5  C   UNL     1       0.825   2.920   0.144  0.00  0.00    +0.076 A 
ATOM      6  C   UNL     1      -0.220   1.938   0.138  0.00  0.00    +0.263 A 
ATOM      7  O   UNL     1       0.045   0.750   0.201  0.00  0.00    -0.267 OA
ATOM      8  C   UNL     1       2.269   2.708   0.220  0.00  0.00    -0.023 A 
ATOM      9  C   UNL     1       3.051   3.808   0.209  0.00  0.00    -0.004 A 
ATOM     10  S   UNL     1       1.923   5.171   0.100  0.00  0.00    -0.073 S 
ATOM     11  C   UNL     1       4.547   3.860   0.275  0.00  0.00    +0.046 C 
ATOM     12  C   UNL     1       5.093   2.455  -0.019  0.00  0.00    -0.009 C 
ATOM     13  C   UNL     1       4.319   1.441   0.828  0.00  0.00    +0.008 C 
ATOM     14  C   UNL     1       2.887   1.315   0.307  0.00  0.00    +0.037 C 
ATOM     15  C   UNL     1       6.579   2.397   0.342  0.00  0.00    +0.008 C 
ENDROOT
BRANCH   1  16
ATOM     16  C   UNL     1      -2.574   1.355   0.042  0.00  0.00    +0.222 C 
BRANCH  16  18
ATOM     17  N   UNL     1      -4.000   0.183   1.689  0.00  0.00    -0.270 N 
ATOM     18  C   UNL     1      -3.015   1.073   1.455  0.00  0.00    +0.240 C 
ATOM     19  O   UNL     1      -2.483   1.647   2.383  0.00  0.00    -0.273 OA
BRANCH  17  20
ATOM     20  C   UNL     1      -4.340  -0.154   3.004  0.00  0.00    +0.036 A 
ATOM     21  C   UNL     1      -3.448  -0.870   3.792  0.00  0.00    +0.023 A 
ATOM     22  C   UNL     1      -3.785  -1.197   5.090  0.00  0.00    +0.002 A 
ATOM     23  C   UNL     1      -5.014  -0.823   5.603  0.00  0.00    +0.000 A 
ATOM     24  C   UNL     1      -5.907  -0.115   4.819  0.00  0.00    +0.002 A 
ATOM     25  C   UNL     1      -5.574   0.220   3.521  0.00  0.00    +0.023 A 
ENDBRANCH  17  20
BRANCH  17  27
ATOM     26  C   UNL     1      -3.999  -1.717   0.150  0.00  0.00    +0.025 C 
ATOM     27  C   UNL     1      -4.714  -0.430   0.567  0.00  0.00    +0.110 C 
ENDBRANCH  17  27
ENDBRANCH  16  18
ENDBRANCH   1  16
TORSDOF 4
