REMARK  Name = ZINC37177186
REMARK  5 active torsions:
REMARK  status: ('A' for Active; 'I' for Inactive)
REMARK    1  A    between atoms: C_1  and  C_2
REMARK    2  A    between atoms: C_2  and  C_4
REMARK    3  A    between atoms: C_2  and  N_13
REMARK    4  A    between atoms: C_7  and  N_10
REMARK    5  A    between atoms: N_13  and  C_14
REMARK                            x       y       z     vdW  Elec       q    Type
REMARK                         _______ _______ _______ _____ _____    ______ ____
ROOT
ATOM      1  C   UNL     1      -0.019   1.526   0.010  0.00  0.00    +0.033 C 
ATOM      2  C   UNL     1       0.002  -0.004   0.002  0.00  0.00    +0.098 C 
ENDROOT
BRANCH   2   3
ATOM      3  C   UNL     1       0.731  -0.503   1.223  0.00  0.00    -0.027 A 
ATOM      4  C   UNL     1       2.113  -0.514   1.247  0.00  0.00    +0.007 A 
ATOM      5  C   UNL     1       2.782  -0.972   2.367  0.00  0.00    +0.033 A 
ATOM      6  C   UNL     1       2.068  -1.419   3.463  0.00  0.00    +0.126 A 
ATOM      7  C   UNL     1       0.686  -1.407   3.439  0.00  0.00    +0.033 A 
ATOM      8  C   UNL     1       0.017  -0.945   2.321  0.00  0.00    +0.007 A 
BRANCH   6   9
ATOM      9  N   UNL     1       2.784  -1.910   4.662  0.00  0.00    +0.056 N 
ATOM     10  O   UNL     1       3.993  -1.920   4.682  0.00  0.00    -0.126 OA
ATOM     11  O   UNL     1       2.160  -2.301   5.620  0.00  0.00    -0.126 OA
ENDBRANCH   6   9
ENDBRANCH   2   3
BRANCH   2  12
ATOM     12  N   UNL     1       0.688  -0.476  -1.203  0.00  0.00    -0.337 N 
ATOM     13  H   UNL     1       1.632  -0.695  -1.170  0.00  0.00    +0.147 HD
BRANCH  12  14
ATOM     14  C   UNL     1      -0.019  -0.613  -2.402  0.00  0.00    +0.029 A 
ATOM     15  C   UNL     1      -1.371  -0.296  -2.452  0.00  0.00    +0.026 A 
ATOM     16  C   UNL     1      -2.068  -0.431  -3.637  0.00  0.00    +0.041 A 
ATOM     17  C   UNL     1      -1.421  -0.883  -4.774  0.00  0.00    +0.142 A 
ATOM     18  C   UNL     1      -0.073  -1.201  -4.727  0.00  0.00    +0.078 A 
ATOM     19  C   UNL     1       0.630  -1.061  -3.545  0.00  0.00    +0.045 A 
ATOM     20 CL   UNL     1       0.735  -1.768  -6.155  0.00  0.00    -0.081 Cl
ATOM     21  F   UNL     1      -2.105  -1.016  -5.931  0.00  0.00    -0.204 F 
ENDBRANCH  12  14
ENDBRANCH   2  12
TORSDOF 4
