REMARK  Name = ZINC41586339
REMARK  9 active torsions:
REMARK  status: ('A' for Active; 'I' for Inactive)
REMARK    1  A    between atoms: C_1  and  C_2
REMARK    2  A    between atoms: C_2  and  O_3
REMARK    3  A    between atoms: O_3  and  C_4
REMARK    4  A    between atoms: C_4  and  C_6
REMARK    5  A    between atoms: N_11  and  C_13
REMARK    6  A    between atoms: C_13  and  C_14
REMARK    7  A    between atoms: C_15  and  O_33
REMARK    8  A    between atoms: C_17  and  C_32
REMARK    9  A    between atoms: C_22  and  C_23
REMARK                            x       y       z     vdW  Elec       q    Type
REMARK                         _______ _______ _______ _____ _____    ______ ____
ROOT
ATOM      1  C   UNL     1       2.889  -5.698   5.225  0.00  0.00    +0.020 A 
ATOM      2  C   UNL     1       4.260  -5.846   5.367  0.00  0.00    +0.122 A 
ATOM      3  C   UNL     1       4.793  -6.439   6.507  0.00  0.00    +0.050 A 
ATOM      4  C   UNL     1       3.967  -6.882   7.501  0.00  0.00    -0.033 A 
ATOM      5  C   UNL     1       2.585  -6.740   7.372  0.00  0.00    +0.071 A 
ATOM      6  C   UNL     1       2.035  -6.138   6.228  0.00  0.00    +0.145 A 
ATOM      7  O   UNL     1       0.689  -6.106   6.333  0.00  0.00    -0.451 OA
ATOM      8  C   UNL     1       0.262  -6.650   7.497  0.00  0.00    +0.176 C 
ATOM      9  C   UNL     1      -1.029  -6.768   7.900  0.00  0.00    +0.061 C 
ATOM     10  C   UNL     1       1.449  -7.103   8.238  0.00  0.00    +0.232 C 
ATOM     11  O   UNL     1       1.486  -7.644   9.329  0.00  0.00    -0.283 OA
ATOM     12  C   UNL     1       4.548  -7.525   8.734  0.00  0.00    +0.045 C 
ENDROOT
BRANCH   9  13
ATOM     13  C   UNL     1      -2.103  -6.139   7.120  0.00  0.00    +0.014 A 
ATOM     14  C   UNL     1      -1.868  -5.729   5.803  0.00  0.00    +0.011 A 
ATOM     15  C   UNL     1      -2.881  -5.140   5.078  0.00  0.00    +0.001 A 
ATOM     16  C   UNL     1      -4.129  -4.952   5.648  0.00  0.00    +0.003 A 
ATOM     17  C   UNL     1      -4.372  -5.353   6.949  0.00  0.00    +0.039 A 
ATOM     18  C   UNL     1      -3.370  -5.952   7.689  0.00  0.00    +0.131 A 
ATOM     19  F   UNL     1      -3.610  -6.349   8.958  0.00  0.00    -0.205 F 
ENDBRANCH   9  13
BRANCH   2  20
ATOM     20  O   UNL     1       5.088  -5.409   4.385  0.00  0.00    -0.506 OA
ATOM     21  H   UNL     1       5.374  -4.491   4.490  0.00  0.00    +0.292 HD
ENDBRANCH   2  20
BRANCH   1  22
ATOM     22  C   UNL     1       2.325  -5.054   3.984  0.00  0.00    -0.036 C 
BRANCH  22  27
ATOM     23  C   UNL     1       1.365  -1.495   3.279  0.00  0.00    +0.081 C 
ATOM     24  C   UNL     1       2.735  -0.843   3.482  0.00  0.00    +0.011 C 
ATOM     25  C   UNL     1       3.453  -1.536   4.644  0.00  0.00    -0.018 C 
ATOM     26  C   UNL     1       3.562  -3.033   4.348  0.00  0.00    -0.078 C 
ATOM     27  N   UNL     1       2.218  -3.604   4.190  0.00  0.00    +0.383 N 
ATOM     28  C   UNL     1       1.550  -2.994   3.034  0.00  0.00    -0.064 C 
ATOM     29  H   UNL     1       1.677  -3.423   5.023  0.00  0.00    -0.081 HD
BRANCH  23  30
ATOM     30  C   UNL     1       0.682  -0.872   2.089  0.00  0.00    +0.308 C 
ATOM     31  O   UNL     1       0.373  -1.556   1.142  0.00  0.00    -0.251 OA
BRANCH  30  32
ATOM     32  O   UNL     1       0.417   0.444   2.081  0.00  0.00    -0.465 OA
BRANCH  32  34
ATOM     33  C   UNL     1      -0.450   2.472   1.093  0.00  0.00    +0.048 C 
ATOM     34  C   UNL     1      -0.232   0.968   0.920  0.00  0.00    +0.229 C 
ENDBRANCH  32  34
ENDBRANCH  30  32
ENDBRANCH  23  30
ENDBRANCH  22  27
ENDBRANCH   1  22
TORSDOF 7
