REMARK  Name = ZINC34896574
REMARK  7 active torsions:
REMARK  status: ('A' for Active; 'I' for Inactive)
REMARK    1  A    between atoms: C_1  and  C_2
REMARK    2  A    between atoms: C_2  and  C_3
REMARK    3  A    between atoms: C_3  and  C_5
REMARK    4  A    between atoms: C_3  and  N_6
REMARK    5  A    between atoms: N_6  and  C_7
REMARK    6  A    between atoms: C_15  and  C_17
REMARK    7  A    between atoms: C_17  and  N_18
REMARK                            x       y       z     vdW  Elec       q    Type
REMARK                         _______ _______ _______ _____ _____    ______ ____
ROOT
ATOM      1  N   UNL     1      -3.324  -1.633  -2.098  0.00  0.00    -0.215 N 
ATOM      2  C   UNL     1      -4.417  -0.915  -1.768  0.00  0.00    +0.252 C 
ATOM      3  O   UNL     1      -4.464   0.067  -1.059  0.00  0.00    -0.272 OA
ATOM      4  C   UNL     1      -5.571  -1.594  -2.469  0.00  0.00    +0.144 C 
ATOM      5  C   UNL     1      -6.230  -0.637  -3.458  0.00  0.00    +0.081 C 
ATOM      6  C   UNL     1      -7.072   0.371  -2.664  0.00  0.00    +0.232 C 
ATOM      7  O   UNL     1      -8.116  -0.338  -1.996  0.00  0.00    -0.492 OA
ATOM      8  C   UNL     1      -7.782  -1.443  -1.279  0.00  0.00    +0.126 A 
ATOM      9  C   UNL     1      -6.573  -2.093  -1.466  0.00  0.00    +0.027 A 
ATOM     10  C   UNL     1      -6.276  -3.221  -0.720  0.00  0.00    +0.010 A 
ATOM     11  C   UNL     1      -7.177  -3.698   0.212  0.00  0.00    +0.001 A 
ATOM     12  C   UNL     1      -8.382  -3.048   0.405  0.00  0.00    +0.004 A 
ATOM     13  C   UNL     1      -8.685  -1.924  -0.337  0.00  0.00    +0.046 A 
ATOM     14  N   UNL     1      -4.948  -2.718  -3.178  0.00  0.00    -0.281 N 
ATOM     15  C   UNL     1      -3.630  -2.656  -2.905  0.00  0.00    +0.310 C 
ATOM     16  O   UNL     1      -2.812  -3.442  -3.340  0.00  0.00    -0.252 OA
ATOM     17  H   UNL     1      -5.396  -3.374  -3.735  0.00  0.00    +0.152 HD
ENDROOT
BRANCH   1  18
ATOM     18  C   UNL     1      -1.968  -1.327  -1.636  0.00  0.00    +0.213 C 
BRANCH  18  20
ATOM     19  N   UNL     1      -0.013  -0.041  -2.439  0.00  0.00    -0.293 N 
ATOM     20  C   UNL     1      -1.304  -0.388  -2.610  0.00  0.00    +0.234 C 
ATOM     21  O   UNL     1      -1.932   0.056  -3.548  0.00  0.00    -0.274 OA
BRANCH  19  22
ATOM     22  C   UNL     1       0.662   0.786  -3.442  0.00  0.00    +0.099 C 
ATOM     23  C   UNL     1       0.636   0.065  -4.800  0.00  0.00    +0.046 C 
ATOM     24  C   UNL     1       1.069   1.080  -5.896  0.00  0.00    +0.168 C 
ATOM     25  S   UNL     1       0.183   2.591  -5.324  0.00  0.00    -0.029 S 
ATOM     26  O   UNL     1       1.065   3.702  -5.405  0.00  0.00    -0.174 OA
ATOM     27  O   UNL     1      -1.083   2.655  -5.965  0.00  0.00    -0.174 OA
ATOM     28  C   UNL     1      -0.062   2.149  -3.557  0.00  0.00    +0.188 C 
ENDBRANCH  19  22
BRANCH  19  29
ATOM     29  C   UNL     1       0.715  -0.491  -1.251  0.00  0.00    +0.073 C 
ATOM     30  C   UNL     1       1.200   0.724  -0.458  0.00  0.00    +0.028 C 
BRANCH  29  32
ATOM     31  C   UNL     1       1.429  -2.619  -2.350  0.00  0.00    +0.005 C 
ATOM     32  C   UNL     1       1.919  -1.334  -1.679  0.00  0.00    +0.019 C 
ENDBRANCH  29  32
ENDBRANCH  19  29
ENDBRANCH  18  20
ENDBRANCH   1  18
TORSDOF 5
