REMARK  Name = ZINC38984386
REMARK  3 active torsions:
REMARK  status: ('A' for Active; 'I' for Inactive)
REMARK    1  A    between atoms: C_1  and  N_2
REMARK    2  A    between atoms: C_6  and  C_7
REMARK    3  A    between atoms: C_18  and  C_20
REMARK                            x       y       z     vdW  Elec       q    Type
REMARK                         _______ _______ _______ _____ _____    ______ ____
ROOT
ATOM      1  C   UNL     1      -0.211  -0.409   2.239  0.00  0.00    +0.257 C 
ATOM      2  N   UNL     1      -1.013   0.816   2.308  0.00  0.00    -0.252 NA
ATOM      3  C   UNL     1      -1.953   0.658   3.193  0.00  0.00    +0.084 C 
ATOM      4  C   UNL     1      -3.025   1.566   3.651  0.00  0.00    +0.031 C 
ATOM      5  C   UNL     1      -3.883   1.149   4.597  0.00  0.00    +0.025 C 
ATOM      6  C   UNL     1      -3.761  -0.196   5.171  0.00  0.00    +0.036 C 
ATOM      7  C   UNL     1      -2.745  -1.074   4.746  0.00  0.00    +0.050 C 
ATOM      8  C   UNL     1      -1.855  -0.693   3.791  0.00  0.00    +0.077 C 
ATOM      9  N   UNL     1      -0.789  -1.348   3.210  0.00  0.00    -0.216 NA
ATOM     10  N   UNL     1      -4.622  -0.591   6.108  0.00  0.00    -0.281 N 
ATOM     11  C   UNL     1      -5.515   0.274   6.605  0.00  0.00    +0.248 C 
ATOM     12  O   UNL     1      -5.138   1.322   7.099  0.00  0.00    -0.270 OA
ATOM     13  H   UNL     1      -4.601  -1.506   6.430  0.00  0.00    +0.155 HD
ENDROOT
BRANCH   1  19
ATOM     14  C   UNL     1      -0.503   1.170  -0.413  0.00  0.00    +0.148 C 
ATOM     15  N   UNL     1      -0.408  -0.288  -0.307  0.00  0.00    -0.350 N 
ATOM     16  C   UNL     1      -0.427  -1.163  -1.353  0.00  0.00    +0.086 A 
ATOM     17  C   UNL     1      -0.318  -2.413  -0.858  0.00  0.00    +0.019 A 
ATOM     18  C   UNL     1      -0.227  -2.305   0.544  0.00  0.00    +0.026 A 
ATOM     19  C   UNL     1      -0.279  -0.994   0.852  0.00  0.00    +0.063 A 
ENDBRANCH   1  19
BRANCH  11  20
ATOM     20  C   UNL     1      -6.960  -0.043   6.553  0.00  0.00    +0.037 A 
ATOM     21  C   UNL     1      -7.394  -1.245   5.993  0.00  0.00    +0.013 A 
ATOM     22  C   UNL     1      -8.743  -1.534   5.949  0.00  0.00    +0.001 A 
ATOM     23  C   UNL     1      -9.663  -0.635   6.457  0.00  0.00    +0.000 A 
ATOM     24  C   UNL     1      -9.239   0.558   7.014  0.00  0.00    +0.001 A 
ATOM     25  C   UNL     1      -7.893   0.857   7.070  0.00  0.00    +0.013 A 
ENDBRANCH  11  20
TORSDOF 2
