REMARK  Name = ZINC13690851
REMARK  4 active torsions:
REMARK  status: ('A' for Active; 'I' for Inactive)
REMARK    1  A    between atoms: C_1  and  C_2
REMARK    2  A    between atoms: C_2  and  C_25
REMARK    3  A    between atoms: N_12  and  C_15
REMARK    4  A    between atoms: C_15  and  C_16
REMARK                            x       y       z     vdW  Elec       q    Type
REMARK                         _______ _______ _______ _____ _____    ______ ____
ROOT
ATOM      1  C   UNL     1       0.002  -0.004   0.002  0.00  0.00    +0.041 C 
ATOM      2  C   UNL     1      -0.019   1.526   0.010  0.00  0.00    +0.070 C 
ATOM      3  C   UNL     1      -0.742   2.023   1.263  0.00  0.00    +0.090 C 
ATOM      4  C   UNL     1      -2.221   1.718   1.149  0.00  0.00    +0.052 A 
ATOM      5  C   UNL     1      -2.793   1.415  -0.076  0.00  0.00    +0.000 A 
ATOM      6  C   UNL     1      -4.152   1.153  -0.152  0.00  0.00    +0.024 A 
ATOM      7  C   UNL     1      -4.898   1.201   1.024  0.00  0.00    +0.084 A 
ATOM      8  C   UNL     1      -4.253   1.512   2.242  0.00  0.00    +0.167 A 
ATOM      9  N   UNL     1      -2.949   1.755   2.252  0.00  0.00    -0.232 NA
ATOM     10  N   UNL     1      -4.994   1.552   3.377  0.00  0.00    -0.218 NA
ATOM     11  C   UNL     1      -6.271   1.316   3.369  0.00  0.00    +0.204 A 
ATOM     12  N   UNL     1      -6.969   1.012   2.246  0.00  0.00    -0.294 N 
ATOM     13  C   UNL     1      -6.343   0.940   1.047  0.00  0.00    +0.263 A 
ATOM     14  O   UNL     1      -6.954   0.668   0.030  0.00  0.00    -0.267 OA
ATOM     15  C   UNL     1      -1.978   1.361  -1.341  0.00  0.00    +0.197 C 
ATOM     16  O   UNL     1      -0.718   2.004  -1.144  0.00  0.00    -0.369 OA
ATOM     17  C   UNL     1       1.415   2.059  -0.000  0.00  0.00    +0.041 C 
ENDROOT
BRANCH  12  18
ATOM     18  C   UNL     1      -8.410   0.762   2.331  0.00  0.00    +0.161 C 
BRANCH  18  19
ATOM     19  C   UNL     1      -9.157   2.057   2.144  0.00  0.00    -0.028 A 
ATOM     20  C   UNL     1      -9.468   2.840   3.240  0.00  0.00    +0.007 A 
ATOM     21  C   UNL     1     -10.148   4.031   3.069  0.00  0.00    +0.020 A 
ATOM     22  C   UNL     1     -10.527   4.434   1.801  0.00  0.00    +0.041 A 
ATOM     23  C   UNL     1     -10.221   3.647   0.705  0.00  0.00    +0.020 A 
ATOM     24  C   UNL     1      -9.536   2.459   0.877  0.00  0.00    +0.007 A 
ATOM     25 CL   UNL     1     -11.387   5.926   1.585  0.00  0.00    -0.084 Cl
ENDBRANCH  18  19
ENDBRANCH  12  18
TORSDOF 2
