REMARK  Name = ZINC13842727
REMARK  4 active torsions:
REMARK  status: ('A' for Active; 'I' for Inactive)
REMARK    1  A    between atoms: C_1  and  N_2
REMARK    2  A    between atoms: N_4  and  C_19
REMARK    3  A    between atoms: C_8  and  C_9
REMARK    4  A    between atoms: C_14  and  O_15
REMARK                            x       y       z     vdW  Elec       q    Type
REMARK                         _______ _______ _______ _____ _____    ______ ____
ROOT
ATOM      1  C   UNL     1       1.947  -0.464   2.626  0.00  0.00    +0.173 C 
ATOM      2  N   UNL     1       1.091   0.289   3.546  0.00  0.00    -0.266 NA
ATOM      3  C   UNL     1       0.030   0.900   3.098  0.00  0.00    +0.163 C 
ATOM      4  N   UNL     1      -0.518   0.851   1.832  0.00  0.00    -0.249 N 
ATOM      5  C   UNL     1      -1.606   1.544   1.543  0.00  0.00    +0.259 C 
ATOM      6  O   UNL     1      -2.101   1.517   0.431  0.00  0.00    -0.269 OA
ATOM      7  C   UNL     1      -2.196   2.349   2.630  0.00  0.00    +0.078 C 
ATOM      8  C   UNL     1      -3.297   3.142   2.613  0.00  0.00    +0.032 C 
ATOM      9  S   UNL     1      -1.067   2.005   3.971  0.00  0.00    -0.049 S 
ATOM     10  C   UNL     1       0.115   0.028   0.798  0.00  0.00    +0.140 C 
ENDROOT
BRANCH   8  11
ATOM     11  C   UNL     1      -3.823   3.694   3.868  0.00  0.00    +0.020 A 
ATOM     12  C   UNL     1      -3.454   3.130   5.095  0.00  0.00    +0.031 A 
ATOM     13  C   UNL     1      -3.952   3.654   6.269  0.00  0.00    +0.043 A 
ATOM     14  C   UNL     1      -4.817   4.736   6.240  0.00  0.00    +0.039 A 
ATOM     15  C   UNL     1      -5.190   5.303   5.036  0.00  0.00    +0.061 A 
ATOM     16  C   UNL     1      -4.696   4.793   3.845  0.00  0.00    +0.138 A 
ATOM     17 BR   UNL     1      -6.371   6.779   5.013  0.00  0.00    -0.046 Br
ATOM     18 CL   UNL     1      -3.492   2.954   7.790  0.00  0.00    -0.083 Cl
BRANCH  16  19
ATOM     19  O   UNL     1      -5.057   5.353   2.662  0.00  0.00    -0.505 OA
ATOM     20  H   UNL     1      -5.853   4.966   2.271  0.00  0.00    +0.292 HD
ENDBRANCH  16  19
ENDBRANCH   8  11
TORSDOF 2
