REMARK  Name = ZINC64375541
REMARK  7 active torsions:
REMARK  status: ('A' for Active; 'I' for Inactive)
REMARK    1  A    between atoms: C_1  and  O_2
REMARK    2  A    between atoms: O_2  and  C_3
REMARK    3  A    between atoms: C_6  and  C_9
REMARK    4  A    between atoms: C_11  and  C_14
REMARK    5  A    between atoms: C_14  and  N_15
REMARK    6  A    between atoms: C_16  and  C_18
REMARK    7  A    between atoms: C_21  and  C_24
REMARK                            x       y       z     vdW  Elec       q    Type
REMARK                         _______ _______ _______ _____ _____    ______ ____
ROOT
ATOM      1  N   UNL     1      -7.522  -5.931   1.433  0.00  0.00    -0.308 N 
ATOM      2  C   UNL     1      -8.125  -7.109   1.685  0.00  0.00    +0.244 C 
ATOM      3  O   UNL     1      -8.406  -7.854   0.771  0.00  0.00    -0.273 OA
ATOM      4  H   UNL     1      -7.297  -5.335   2.165  0.00  0.00    +0.149 HD
ENDROOT
BRANCH   2   5
ATOM      5  C   UNL     1      -8.451  -7.501   3.104  0.00  0.00    +0.238 C 
ATOM      6  C   UNL     1      -7.234  -8.097   3.788  0.00  0.00    +0.040 C 
ATOM      7  C   UNL     1      -7.617  -9.351   4.093  0.00  0.00    +0.092 C 
ATOM      8  N   UNL     1      -8.893  -9.571   3.681  0.00  0.00    -0.153 NA
ATOM      9  N   UNL     1      -9.427  -8.603   3.127  0.00  0.00    -0.170 NA
BRANCH   7  10
ATOM     10  C   UNL     1      -6.767 -10.353   4.783  0.00  0.00    +0.002 A 
ATOM     11  C   UNL     1      -5.470 -10.020   5.169  0.00  0.00    +0.013 A 
ATOM     12  C   UNL     1      -4.682 -10.954   5.810  0.00  0.00    +0.039 A 
ATOM     13  C   UNL     1      -5.179 -12.221   6.070  0.00  0.00    +0.123 A 
ATOM     14  C   UNL     1      -6.468 -12.556   5.687  0.00  0.00    +0.039 A 
ATOM     15  C   UNL     1      -7.264 -11.627   5.051  0.00  0.00    +0.013 A 
ATOM     16  F   UNL     1      -4.404 -13.133   6.697  0.00  0.00    -0.205 F 
ENDBRANCH   7  10
ENDBRANCH   2   5
BRANCH   1  17
ATOM     17  C   UNL     1      -7.205  -5.550   0.055  0.00  0.00    +0.163 C 
BRANCH  17  20
ATOM     18  C   UNL     1      -4.958  -2.617   0.034  0.00  0.00    +0.168 A 
ATOM     19  C   UNL     1      -5.157  -3.964   0.039  0.00  0.00    +0.077 A 
ATOM     20  C   UNL     1      -6.539  -4.198   0.047  0.00  0.00    +0.101 A 
ATOM     21  N   UNL     1      -7.149  -3.046   0.047  0.00  0.00    -0.081 NA
ATOM     22  O   UNL     1      -6.168  -2.026   0.045  0.00  0.00    -0.354 OA
BRANCH  18  26
ATOM     23  C   UNL     1      -1.200  -0.637   0.010  0.00  0.00    +0.120 A 
ATOM     24  C   UNL     1      -2.373   0.105   0.019  0.00  0.00    +0.046 A 
ATOM     25  C   UNL     1      -3.595  -0.533   0.027  0.00  0.00    +0.015 A 
ATOM     26  C   UNL     1      -3.651  -1.929   0.026  0.00  0.00    +0.020 A 
ATOM     27  C   UNL     1      -2.469  -2.671   0.016  0.00  0.00    +0.015 A 
ATOM     28  C   UNL     1      -1.251  -2.025   0.003  0.00  0.00    +0.046 A 
BRANCH  23  30
ATOM     29  C   UNL     1      -0.017   1.425   0.010  0.00  0.00    +0.277 C 
ATOM     30  O   UNL     1       0.002  -0.004   0.002  0.00  0.00    -0.495 OA
ENDBRANCH  23  30
ENDBRANCH  18  26
ENDBRANCH  17  20
ENDBRANCH   1  17
TORSDOF 6
