REMARK  Name = ZINC02200647
REMARK  10 active torsions:
REMARK  status: ('A' for Active; 'I' for Inactive)
REMARK    1  A    between atoms: C_4  and  C_7
REMARK    2  A    between atoms: C_7  and  N_8
REMARK    3  A    between atoms: N_8  and  C_9
REMARK    4  A    between atoms: N_8  and  C_16
REMARK    5  A    between atoms: C_9  and  C_10
REMARK    6  A    between atoms: C_17  and  C_27
REMARK    7  A    between atoms: C_28  and  C_29
REMARK    8  A    between atoms: C_28  and  C_31
REMARK    9  A    between atoms: N_33  and  C_34
REMARK   10  A    between atoms: C_34  and  C_35
REMARK                            x       y       z     vdW  Elec       q    Type
REMARK                         _______ _______ _______ _____ _____    ______ ____
ROOT
ATOM      1  C   UNL     1       0.120  -0.797  -1.334  0.00  0.00    +0.137 A 
ATOM      2  C   UNL     1       0.647  -2.092  -1.090  0.00  0.00    +0.081 A 
ATOM      3  C   UNL     1       1.273  -2.775  -2.164  0.00  0.00    +0.267 A 
ATOM      4  O   UNL     1       1.736  -3.890  -2.003  0.00  0.00    -0.267 OA
ATOM      5  N   UNL     1       1.352  -2.166  -3.366  0.00  0.00    -0.268 N 
ATOM      6  C   UNL     1       1.956  -2.813  -4.403  0.00  0.00    +0.096 A 
ATOM      7  C   UNL     1       2.053  -2.232  -5.620  0.00  0.00    +0.018 A 
ATOM      8  C   UNL     1       1.529  -0.950  -5.830  0.00  0.00    +0.005 A 
ATOM      9  C   UNL     1       0.922  -0.294  -4.799  0.00  0.00    +0.047 A 
ATOM     10  C   UNL     1       0.831  -0.914  -3.541  0.00  0.00    +0.142 A 
ATOM     11  N   UNL     1       0.235  -0.264  -2.540  0.00  0.00    -0.214 NA
ENDROOT
BRANCH   2  12
ATOM     12  C   UNL     1       0.546  -2.684   0.181  0.00  0.00    +0.040 C 
ATOM     13  C   UNL     1      -0.235  -3.818   0.359  0.00  0.00    +0.114 C 
BRANCH  13  14
ATOM     14  C   UNL     1      -0.332  -4.442   1.682  0.00  0.00    +0.255 C 
ATOM     15  O   UNL     1       0.273  -3.966   2.625  0.00  0.00    -0.269 OA
ATOM     16  N   UNL     1      -1.090  -5.543   1.854  0.00  0.00    -0.304 N 
ATOM     17  H   UNL     1      -1.572  -5.922   1.103  0.00  0.00    +0.149 HD
BRANCH  16  18
ATOM     18  C   UNL     1      -1.186  -6.167   3.176  0.00  0.00    +0.179 C 
BRANCH  18  19
ATOM     19  C   UNL     1      -2.088  -7.371   3.099  0.00  0.00    +0.122 A 
ATOM     20  C   UNL     1      -1.699  -8.629   2.825  0.00  0.00    +0.046 A 
ATOM     21  C   UNL     1      -2.862  -9.434   2.855  0.00  0.00    +0.041 A 
ATOM     22  C   UNL     1      -3.892  -8.619   3.146  0.00  0.00    +0.195 A 
ATOM     23  O   UNL     1      -3.417  -7.372   3.299  0.00  0.00    -0.466 OA
ENDBRANCH  18  19
ENDBRANCH  16  18
ENDBRANCH  13  14
BRANCH  13  24
ATOM     24  C   UNL     1      -0.947  -4.378  -0.751  0.00  0.00    +0.104 C 
ATOM     25  N   UNL     1      -1.512  -4.822  -1.631  0.00  0.00    -0.191 NA
ENDBRANCH  13  24
ENDBRANCH   2  12
BRANCH   1  26
ATOM     26  N   UNL     1      -0.500  -0.099  -0.323  0.00  0.00    -0.306 N 
BRANCH  26  27
ATOM     27  C   UNL     1      -0.024   1.289  -0.273  0.00  0.00    +0.142 C 
BRANCH  27  31
ATOM     28  C   UNL     1       3.977   1.370   1.223  0.00  0.00    +0.000 A 
ATOM     29  C   UNL     1       3.748   1.364  -0.141  0.00  0.00    +0.000 A 
ATOM     30  C   UNL     1       2.454   1.338  -0.625  0.00  0.00    +0.005 A 
ATOM     31  C   UNL     1       1.388   1.318   0.255  0.00  0.00    -0.030 A 
ATOM     32  C   UNL     1       1.616   1.329   1.618  0.00  0.00    +0.005 A 
ATOM     33  C   UNL     1       2.910   1.350   2.102  0.00  0.00    +0.000 A 
ENDBRANCH  27  31
ENDBRANCH  26  27
BRANCH  26  34
ATOM     34  C   UNL     1      -1.961  -0.150  -0.468  0.00  0.00    +0.142 C 
BRANCH  34  35
ATOM     35  C   UNL     1      -2.609   0.173   0.854  0.00  0.00    -0.030 A 
ATOM     36  C   UNL     1      -2.899  -0.841   1.747  0.00  0.00    +0.005 A 
ATOM     37  C   UNL     1      -3.489  -0.544   2.962  0.00  0.00    +0.000 A 
ATOM     38  C   UNL     1      -3.797   0.765   3.279  0.00  0.00    +0.000 A 
ATOM     39  C   UNL     1      -3.511   1.779   2.383  0.00  0.00    +0.000 A 
ATOM     40  C   UNL     1      -2.917   1.483   1.171  0.00  0.00    +0.005 A 
ENDBRANCH  34  35
ENDBRANCH  26  34
ENDBRANCH   1  26
TORSDOF 10
