REMARK  Name = ZINC27142441
REMARK  8 active torsions:
REMARK  status: ('A' for Active; 'I' for Inactive)
REMARK    1  A    between atoms: C_1  and  C_2
REMARK    2  A    between atoms: C_2  and  C_4
REMARK    3  A    between atoms: C_2  and  N_14
REMARK    4  A    between atoms: C_15  and  C_17
REMARK    5  A    between atoms: C_17  and  N_18
REMARK    6  A    between atoms: C_22  and  C_24
REMARK    7  A    between atoms: N_26  and  C_27
REMARK    8  A    between atoms: C_27  and  C_28
REMARK                            x       y       z     vdW  Elec       q    Type
REMARK                         _______ _______ _______ _____ _____    ______ ____
ROOT
ATOM      1  C   UNL     1      -3.657  -0.869  -1.096  0.00  0.00    +0.020 C 
ENDROOT
BRANCH   1   2
ATOM      2  N   UNL     1      -4.096  -1.038  -2.488  0.00  0.00    +0.393 N 
ATOM      3  C   UNL     1      -4.493   0.272  -3.047  0.00  0.00    -0.077 C 
ATOM      4  C   UNL     1      -5.695  -0.042  -3.973  0.00  0.00    -0.020 C 
ATOM      5  C   UNL     1      -6.424  -1.154  -3.175  0.00  0.00    -0.008 C 
ATOM      6  C   UNL     1      -5.261  -1.941  -2.534  0.00  0.00    +0.020 C 
ATOM      7  H   UNL     1      -3.344  -1.426  -3.037  0.00  0.00    -0.080 HD
BRANCH   6   8
ATOM      8  C   UNL     1      -5.637  -2.364  -1.137  0.00  0.00    +0.200 C 
ATOM      9  O   UNL     1      -5.886  -1.527  -0.296  0.00  0.00    -0.278 OA
ATOM     10  N   UNL     1      -5.697  -3.674  -0.823  0.00  0.00    -0.310 N 
ATOM     11  H   UNL     1      -5.498  -4.343  -1.496  0.00  0.00    +0.149 HD
BRANCH  10  12
ATOM     12  C   UNL     1      -6.063  -4.085   0.534  0.00  0.00    +0.178 C 
BRANCH  12  13
ATOM     13  C   UNL     1      -6.057  -5.590   0.622  0.00  0.00    +0.122 A 
ATOM     14  C   UNL     1      -5.003  -6.353   0.963  0.00  0.00    +0.046 A 
ATOM     15  C   UNL     1      -5.439  -7.697   0.916  0.00  0.00    +0.041 A 
ATOM     16  C   UNL     1      -6.734  -7.674   0.550  0.00  0.00    +0.195 A 
ATOM     17  O   UNL     1      -7.104  -6.395   0.379  0.00  0.00    -0.466 OA
ENDBRANCH  12  13
ENDBRANCH  10  12
ENDBRANCH   6   8
ENDBRANCH   1   2
BRANCH   1  19
ATOM     18  N   UNL     1      -1.771   0.185   0.110  0.00  0.00    -0.310 N 
ATOM     19  C   UNL     1      -2.365  -0.092  -1.068  0.00  0.00    +0.197 C 
ATOM     20  O   UNL     1      -1.861   0.283  -2.105  0.00  0.00    -0.278 OA
ATOM     21  H   UNL     1      -2.175  -0.115   0.939  0.00  0.00    +0.149 HD
BRANCH  18  23
ATOM     22  C   UNL     1      -0.821   2.438   0.105  0.00  0.00    +0.033 C 
ATOM     23  C   UNL     1      -0.516   0.940   0.137  0.00  0.00    +0.100 C 
BRANCH  23  24
ATOM     24  C   UNL     1       0.242   0.608   1.396  0.00  0.00    -0.027 A 
ATOM     25  C   UNL     1      -0.452   0.456   2.595  0.00  0.00    +0.006 A 
ATOM     26  C   UNL     1       0.203   0.157   3.751  0.00  0.00    +0.009 A 
ATOM     27  C   UNL     1       1.599  -0.002   3.738  0.00  0.00    -0.018 A 
ATOM     28  C   UNL     1       2.309  -0.312   4.910  0.00  0.00    +0.008 A 
ATOM     29  C   UNL     1       3.661  -0.458   4.859  0.00  0.00    +0.001 A 
ATOM     30  C   UNL     1       4.355  -0.306   3.660  0.00  0.00    +0.001 A 
ATOM     31  C   UNL     1       3.701  -0.007   2.505  0.00  0.00    +0.008 A 
ATOM     32  C   UNL     1       2.304   0.152   2.518  0.00  0.00    -0.018 A 
ATOM     33  C   UNL     1       1.594   0.456   1.345  0.00  0.00    +0.014 A 
ENDBRANCH  23  24
ENDBRANCH  18  23
ENDBRANCH   1  19
TORSDOF 7
