REMARK  Name = ZINC18212795
REMARK  7 active torsions:
REMARK  status: ('A' for Active; 'I' for Inactive)
REMARK    1  A    between atoms: C_1  and  C_2
REMARK    2  A    between atoms: C_2  and  C_4
REMARK    3  A    between atoms: C_2  and  N_14
REMARK    4  A    between atoms: C_15  and  C_17
REMARK    5  A    between atoms: C_19  and  S_23
REMARK    6  A    between atoms: N_21  and  C_22
REMARK    7  A    between atoms: S_23  and  N_26
REMARK                            x       y       z     vdW  Elec       q    Type
REMARK                         _______ _______ _______ _____ _____    ______ ____
ROOT
ATOM      1  N   UNL     1      -6.383  -0.897   2.131  0.00  0.00    -0.304 N 
ATOM      2  C   UNL     1      -7.562  -1.548   2.153  0.00  0.00    +0.261 C 
ATOM      3  O   UNL     1      -8.263  -1.571   1.158  0.00  0.00    -0.269 OA
ATOM      4  H   UNL     1      -5.862  -0.809   2.945  0.00  0.00    +0.150 HD
ENDROOT
BRANCH   2   5
ATOM      5  C   UNL     1      -8.001  -2.230   3.375  0.00  0.00    +0.106 A 
ATOM      6  C   UNL     1      -7.357  -2.212   4.594  0.00  0.00    +0.061 A 
ATOM      7  C   UNL     1      -8.120  -2.987   5.473  0.00  0.00    +0.124 A 
ATOM      8  C   UNL     1      -9.188  -3.462   4.788  0.00  0.00    +0.114 A 
ATOM      9  N   UNL     1      -9.127  -3.010   3.512  0.00  0.00    -0.344 N 
ATOM     10  C   UNL     1     -10.098  -3.302   2.455  0.00  0.00    +0.149 C 
BRANCH   7  11
ATOM     11  S   UNL     1      -7.754  -3.296   7.169  0.00  0.00    +0.062 S 
ATOM     12  O   UNL     1      -6.935  -2.222   7.610  0.00  0.00    -0.153 OA
ATOM     13  O   UNL     1      -8.986  -3.622   7.797  0.00  0.00    -0.153 OA
BRANCH  11  14
ATOM     14  N   UNL     1      -6.818  -4.660   7.227  0.00  0.00    -0.172 NA
ATOM     15  C   UNL     1      -7.428  -5.993   7.354  0.00  0.00    +0.137 C 
ATOM     16  C   UNL     1      -6.836  -6.898   6.262  0.00  0.00    +0.177 C 
ATOM     17  O   UNL     1      -5.409  -6.844   6.331  0.00  0.00    -0.377 OA
ATOM     18  C   UNL     1      -4.859  -5.549   6.080  0.00  0.00    +0.177 C 
ATOM     19  C   UNL     1      -5.350  -4.575   7.158  0.00  0.00    +0.137 C 
ENDBRANCH  11  14
ENDBRANCH   7  11
ENDBRANCH   2   5
BRANCH   1  21
ATOM     20  C   UNL     1      -6.492   1.070   0.681  0.00  0.00    +0.033 C 
ATOM     21  C   UNL     1      -5.886  -0.321   0.879  0.00  0.00    +0.100 C 
BRANCH  21  22
ATOM     22  C   UNL     1      -4.385  -0.212   0.936  0.00  0.00    -0.027 A 
ATOM     23  C   UNL     1      -3.762   0.185   2.105  0.00  0.00    +0.006 A 
ATOM     24  C   UNL     1      -2.387   0.286   2.148  0.00  0.00    +0.004 A 
ATOM     25  C   UNL     1      -1.622  -0.009   1.027  0.00  0.00    -0.044 A 
ATOM     26  C   UNL     1      -2.241  -0.410  -0.135  0.00  0.00    -0.044 A 
ATOM     27  C   UNL     1      -3.626  -0.509  -0.177  0.00  0.00    +0.009 A 
ATOM     28  C   UNL     1      -1.475  -0.754  -1.385  0.00  0.00    +0.035 C 
ATOM     29  C   UNL     1      -0.057  -0.189  -1.319  0.00  0.00    +0.005 C 
ATOM     30  C   UNL     1       0.573  -0.619   0.011  0.00  0.00    +0.005 C 
ATOM     31  C   UNL     1      -0.126   0.134   1.142  0.00  0.00    +0.035 C 
ENDBRANCH  21  22
ENDBRANCH   1  21
TORSDOF 5
