REMARK  Name = ZINC36865348
REMARK  3 active torsions:
REMARK  status: ('A' for Active; 'I' for Inactive)
REMARK    1  A    between atoms: C_1  and  C_2
REMARK    2  A    between atoms: C_2  and  N_3
REMARK    3  A    between atoms: C_17  and  C_19
REMARK                            x       y       z     vdW  Elec       q    Type
REMARK                         _______ _______ _______ _____ _____    ______ ____
ROOT
ATOM      1  N   UNL     1       2.015  -1.801   2.126  0.00  0.00    -0.291 N 
ATOM      2  C   UNL     1       2.112  -0.678   1.337  0.00  0.00    +0.222 A 
ATOM      3  N   UNL     1       1.131   0.124   1.632  0.00  0.00    -0.137 NA
ATOM      4  N   UNL     1       0.365  -0.479   2.639  0.00  0.00    -0.253 N 
ATOM      5  C   UNL     1       0.933  -1.670   2.919  0.00  0.00    +0.177 A 
ATOM      6  S   UNL     1       0.382  -2.808   4.074  0.00  0.00    -0.011 S 
ATOM      7  N   UNL     1       3.094  -0.441   0.385  0.00  0.00    -0.269 N 
ATOM      8  C   UNL     1       4.484  -0.850   0.627  0.00  0.00    +0.114 C 
ATOM      9  C   UNL     1       5.395   0.309   0.203  0.00  0.00    +0.024 C 
ATOM     10  C   UNL     1       5.230   0.543  -1.299  0.00  0.00    +0.038 C 
ATOM     11  C   UNL     1       3.773   0.679  -1.654  0.00  0.00    -0.026 A 
ATOM     12  C   UNL     1       2.775   0.188  -0.825  0.00  0.00    +0.040 A 
ATOM     13  C   UNL     1       1.439   0.321  -1.187  0.00  0.00    +0.024 A 
ATOM     14  C   UNL     1       1.103   0.941  -2.374  0.00  0.00    +0.005 A 
ATOM     15  C   UNL     1       2.097   1.429  -3.202  0.00  0.00    -0.050 A 
ATOM     16  C   UNL     1       3.428   1.305  -2.840  0.00  0.00    +0.008 A 
ATOM     17  C   UNL     1       1.731   2.106  -4.497  0.00  0.00    +0.044 C 
ATOM     18  H   UNL     1      -0.429  -0.110   3.055  0.00  0.00    +0.191 HD
ENDROOT
BRANCH   1  20
ATOM     19  C   UNL     1       2.507  -3.913   0.994  0.00  0.00    +0.027 C 
ATOM     20  C   UNL     1       2.928  -2.947   2.103  0.00  0.00    +0.124 C 
ENDBRANCH   1  20
TORSDOF 1
