REMARK  Name = ZINC32971002
REMARK  5 active torsions:
REMARK  status: ('A' for Active; 'I' for Inactive)
REMARK    1  A    between atoms: C_1  and  C_2
REMARK    2  A    between atoms: C_2  and  N_9
REMARK    3  A    between atoms: C_10  and  C_12
REMARK    4  A    between atoms: C_16  and  S_18
REMARK    5  A    between atoms: S_18  and  N_21
REMARK                            x       y       z     vdW  Elec       q    Type
REMARK                         _______ _______ _______ _____ _____    ______ ____
ROOT
ATOM      1  C   UNL     1      -3.651  -0.643  -0.845  0.00  0.00    +0.039 A 
ATOM      2  C   UNL     1      -4.066  -1.458   0.209  0.00  0.00    +0.013 A 
ATOM      3  C   UNL     1      -5.367  -1.912   0.255  0.00  0.00    +0.003 A 
ATOM      4  C   UNL     1      -6.261  -1.562  -0.742  0.00  0.00    +0.029 A 
ATOM      5  C   UNL     1      -5.856  -0.754  -1.790  0.00  0.00    +0.109 A 
ATOM      6  C   UNL     1      -4.558  -0.289  -1.844  0.00  0.00    +0.041 A 
ENDROOT
BRANCH   1   8
ATOM      7  N   UNL     1      -1.383  -0.496   0.066  0.00  0.00    -0.304 N 
ATOM      8  C   UNL     1      -2.257  -0.152  -0.900  0.00  0.00    +0.245 C 
ATOM      9  O   UNL     1      -1.900   0.562  -1.817  0.00  0.00    -0.270 OA
ATOM     10  H   UNL     1      -1.668  -1.066   0.798  0.00  0.00    +0.150 HD
BRANCH   7  12
ATOM     11  C   UNL     1      -0.022   1.520   0.021  0.00  0.00    +0.033 C 
ATOM     12  C   UNL     1      -0.002  -0.009   0.012  0.00  0.00    +0.053 C 
ATOM     13  C   UNL     1       0.629  -0.483  -1.297  0.00  0.00    +0.049 C 
ATOM     14  C   UNL     1       2.166  -0.642  -1.127  0.00  0.00    +0.168 C 
ATOM     15  S   UNL     1       2.215  -1.365   0.572  0.00  0.00    -0.029 S 
ATOM     16  O   UNL     1       1.945  -2.758   0.495  0.00  0.00    -0.174 OA
ATOM     17  O   UNL     1       3.384  -0.911   1.239  0.00  0.00    -0.174 OA
ATOM     18  C   UNL     1       0.745  -0.501   1.267  0.00  0.00    +0.191 C 
ENDBRANCH   7  12
ENDBRANCH   1   8
BRANCH   5  19
ATOM     19  S   UNL     1      -7.001  -0.315  -3.054  0.00  0.00    +0.075 S 
ATOM     20  O   UNL     1      -6.233   0.000  -4.207  0.00  0.00    -0.150 OA
ATOM     21  O   UNL     1      -8.006  -1.320  -3.060  0.00  0.00    -0.150 OA
BRANCH  19  22
ATOM     22  N   UNL     1      -7.739   1.090  -2.580  0.00  0.00    -0.203 N 
ATOM     23  C   UNL     1      -9.026   1.054  -1.870  0.00  0.00    +0.132 C 
ATOM     24  C   UNL     1      -9.933   2.124  -2.492  0.00  0.00    +0.025 C 
ATOM     25  C   UNL     1      -9.307   3.498  -2.260  0.00  0.00    +0.038 C 
ATOM     26  C   UNL     1      -7.869   3.505  -2.708  0.00  0.00    -0.025 A 
ATOM     27  C   UNL     1      -7.146   2.329  -2.842  0.00  0.00    +0.054 A 
ATOM     28  C   UNL     1      -5.817   2.370  -3.248  0.00  0.00    +0.025 A 
ATOM     29  C   UNL     1      -5.213   3.583  -3.516  0.00  0.00    +0.002 A 
ATOM     30  C   UNL     1      -5.932   4.756  -3.379  0.00  0.00    +0.000 A 
ATOM     31  C   UNL     1      -7.260   4.717  -2.985  0.00  0.00    +0.005 A 
ENDBRANCH  19  22
ENDBRANCH   5  19
TORSDOF 4
