REMARK  Name = ZINC41719016
REMARK  3 active torsions:
REMARK  status: ('A' for Active; 'I' for Inactive)
REMARK    1  A    between atoms: C_1  and  C_2
REMARK    2  A    between atoms: N_7  and  C_9
REMARK    3  A    between atoms: C_18  and  C_19
REMARK                            x       y       z     vdW  Elec       q    Type
REMARK                         _______ _______ _______ _____ _____    ______ ____
ROOT
ATOM      1  C   UNL     1       1.768  -2.755   1.397  0.00  0.00    +0.055 A 
ATOM      2  C   UNL     1       2.279  -3.131   2.663  0.00  0.00    +0.020 A 
ATOM      3  C   UNL     1       1.652  -2.724   3.849  0.00  0.00    +0.012 A 
ATOM      4  C   UNL     1       2.171  -3.105   5.051  0.00  0.00    +0.001 A 
ATOM      5  C   UNL     1       3.316  -3.892   5.115  0.00  0.00    +0.002 A 
ATOM      6  C   UNL     1       3.949  -4.304   3.980  0.00  0.00    +0.026 A 
ATOM      7  C   UNL     1       3.444  -3.932   2.724  0.00  0.00    +0.048 A 
ATOM      8  N   UNL     1       4.052  -4.328   1.596  0.00  0.00    -0.360 N 
ATOM      9  C   UNL     1       3.604  -3.998   0.413  0.00  0.00    +0.100 A 
ATOM     10  C   UNL     1       2.451  -3.208   0.256  0.00  0.00    +0.101 A 
ATOM     11  H   UNL     1       4.849  -4.877   1.660  0.00  0.00    +0.165 HD
ENDROOT
BRANCH   1  17
ATOM     12  C   UNL     1      -0.019   1.526   0.010  0.00  0.00    +0.009 C 
ATOM     13  C   UNL     1       0.002  -0.004   0.002  0.00  0.00    +0.003 C 
ATOM     14  C   UNL     1      -1.433  -0.534   0.015  0.00  0.00    +0.006 C 
ATOM     15  C   UNL     1      -1.414  -2.064  -0.027  0.00  0.00    +0.019 C 
ATOM     16  C   UNL     1      -0.692  -2.596   1.215  0.00  0.00    +0.105 C 
ATOM     17  N   UNL     1       0.639  -1.977   1.288  0.00  0.00    -0.328 N 
ATOM     18  C   UNL     1       0.742  -0.512   1.244  0.00  0.00    +0.108 C 
ENDBRANCH   1  17
BRANCH  10  19
ATOM     19  C   UNL     1       1.968  -2.859  -1.085  0.00  0.00    +0.390 C 
ATOM     20  O   UNL     1       2.568  -3.257  -2.075  0.00  0.00    -0.240 OA
ATOM     21  O   UNL     1       0.966  -2.168  -1.214  0.00  0.00    -0.240 OA
ENDBRANCH  10  19
TORSDOF 2
