REMARK  Name = ZINC33077315
REMARK  8 active torsions:
REMARK  status: ('A' for Active; 'I' for Inactive)
REMARK    1  A    between atoms: C_1  and  C_2
REMARK    2  A    between atoms: C_12  and  S_14
REMARK    3  A    between atoms: S_14  and  N_17
REMARK    4  A    between atoms: C_20  and  C_23
REMARK    5  A    between atoms: C_25  and  O_31
REMARK    6  A    between atoms: C_28  and  O_29
REMARK    7  A    between atoms: O_29  and  C_30
REMARK    8  A    between atoms: O_31  and  C_32
REMARK                            x       y       z     vdW  Elec       q    Type
REMARK                         _______ _______ _______ _____ _____    ______ ____
ROOT
ATOM      1  S   UNL     1       4.541   5.811  -1.713  0.00  0.00    +0.061 S 
ATOM      2  O   UNL     1       3.605   6.047  -2.756  0.00  0.00    -0.153 OA
ATOM      3  O   UNL     1       4.674   6.682  -0.598  0.00  0.00    -0.153 OA
ENDROOT
BRANCH   1  15
ATOM      4  C   UNL     1      12.340   5.837  -4.200  0.00  0.00    +0.109 C 
ATOM      5  C   UNL     1      10.960   6.035  -3.627  0.00  0.00    +0.217 C 
ATOM      6  O   UNL     1      10.814   6.661  -2.599  0.00  0.00    -0.276 OA
ATOM      7  N   UNL     1       9.888   5.517  -4.259  0.00  0.00    -0.271 N 
ATOM      8  C   UNL     1      10.032   4.878  -5.574  0.00  0.00    +0.114 C 
ATOM      9  C   UNL     1       8.889   5.380  -6.467  0.00  0.00    +0.024 C 
ATOM     10  C   UNL     1       7.559   4.925  -5.868  0.00  0.00    +0.038 C 
ATOM     11  C   UNL     1       7.478   5.304  -4.413  0.00  0.00    -0.024 A 
ATOM     12  C   UNL     1       8.617   5.577  -3.671  0.00  0.00    +0.040 A 
ATOM     13  C   UNL     1       8.507   5.918  -2.328  0.00  0.00    +0.026 A 
ATOM     14  C   UNL     1       7.263   5.994  -1.733  0.00  0.00    +0.030 A 
ATOM     15  C   UNL     1       6.128   5.719  -2.473  0.00  0.00    +0.106 A 
ATOM     16  C   UNL     1       6.235   5.378  -3.807  0.00  0.00    +0.034 A 
ENDBRANCH   1  15
BRANCH   1  17
ATOM     17  N   UNL     1       4.202   4.309  -1.103  0.00  0.00    -0.176 NA
ATOM     18  C   UNL     1       4.540   3.835   0.251  0.00  0.00    +0.110 C 
ATOM     19  C   UNL     1       3.524   2.703   0.540  0.00  0.00    +0.026 C 
ATOM     20  C   UNL     1       3.399   2.033  -0.854  0.00  0.00    +0.040 C 
ATOM     21  C   UNL     1       3.513   3.228  -1.823  0.00  0.00    +0.117 C 
BRANCH  20  22
ATOM     22  C   UNL     1       2.062   1.353  -1.001  0.00  0.00    +0.002 A 
ATOM     23  C   UNL     1       0.897   2.085  -0.870  0.00  0.00    +0.053 A 
ATOM     24  C   UNL     1      -0.333   1.459  -1.004  0.00  0.00    +0.121 A 
ATOM     25  C   UNL     1      -0.394   0.099  -1.270  0.00  0.00    +0.049 A 
ATOM     26  C   UNL     1       0.770  -0.632  -1.401  0.00  0.00    +0.049 A 
ATOM     27  C   UNL     1       2.001  -0.006  -1.267  0.00  0.00    +0.124 A 
BRANCH  27  28
ATOM     28  O   UNL     1       3.147  -0.726  -1.397  0.00  0.00    -0.495 OA
ATOM     29  C   UNL     1       3.010  -2.122  -1.670  0.00  0.00    +0.277 C 
ENDBRANCH  27  28
BRANCH  24  30
ATOM     30  O   UNL     1      -1.480   2.180  -0.880  0.00  0.00    -0.495 OA
ATOM     31  C   UNL     1      -2.711   1.472  -1.036  0.00  0.00    +0.277 C 
ENDBRANCH  24  30
ENDBRANCH  20  22
ENDBRANCH   1  17
TORSDOF 5
