REMARK  Name = ZINC20722354
REMARK  2 active torsions:
REMARK  status: ('A' for Active; 'I' for Inactive)
REMARK    1  A    between atoms: C_10  and  C_11
REMARK    2  A    between atoms: C_20  and  O_23
REMARK                            x       y       z     vdW  Elec       q    Type
REMARK                         _______ _______ _______ _____ _____    ______ ____
ROOT
ATOM      1  C   UNL     1       4.960   0.161  -0.046  0.00  0.00    +0.112 C 
ATOM      2  C   UNL     1       5.278   0.555  -1.457  0.00  0.00    +0.033 A 
ATOM      3  C   UNL     1       4.313   0.708  -2.406  0.00  0.00    +0.112 A 
ATOM      4  N   UNL     1       4.908   1.073  -3.556  0.00  0.00    -0.282 N 
ATOM      5  H   UNL     1       4.461   1.252  -4.398  0.00  0.00    +0.188 HD
ATOM      6  N   UNL     1       6.282   1.150  -3.325  0.00  0.00    -0.154 NA
ATOM      7  C   UNL     1       6.516   0.830  -2.051  0.00  0.00    +0.182 A 
ATOM      8  N   UNL     1       7.774   0.805  -1.555  0.00  0.00    -0.195 NA
ATOM      9  C   UNL     1       8.303   0.556  -0.449  0.00  0.00    +0.199 C 
ATOM     10  C   UNL     1       7.685   0.219   0.849  0.00  0.00    +0.165 C 
ATOM     11  S   UNL     1       6.247  -0.849   0.697  0.00  0.00    -0.138 S 
ENDROOT
BRANCH   1  21
ATOM     12  C   UNL     1      -0.016   1.357   0.009  0.00  0.00    +0.001 A 
ATOM     13  C   UNL     1       1.169   2.091   0.002  0.00  0.00    +0.001 A 
ATOM     14  C   UNL     1       2.378   1.468  -0.013  0.00  0.00    +0.009 A 
ATOM     15  C   UNL     1       2.438   0.064  -0.021  0.00  0.00    -0.013 A 
ATOM     16  C   UNL     1       1.233  -0.683  -0.013  0.00  0.00    -0.018 A 
ATOM     17  C   UNL     1       0.002  -0.004   0.002  0.00  0.00    +0.008 A 
ATOM     18  C   UNL     1       1.292  -2.087  -0.021  0.00  0.00    +0.008 A 
ATOM     19  C   UNL     1       2.502  -2.709  -0.036  0.00  0.00    +0.001 A 
ATOM     20  C   UNL     1       3.687  -1.976  -0.043  0.00  0.00    +0.005 A 
ATOM     21  C   UNL     1       3.668  -0.615  -0.037  0.00  0.00    -0.022 A 
ENDBRANCH   1  21
BRANCH   9  22
ATOM     22  O   UNL     1       9.651   0.603  -0.442  0.00  0.00    -0.495 OA
ATOM     23  H   UNL     1      10.042   0.825  -1.298  0.00  0.00    +0.293 HD
ENDBRANCH   9  22
TORSDOF 2
