REMARK  Name = ZINC06219656
REMARK  4 active torsions:
REMARK  status: ('A' for Active; 'I' for Inactive)
REMARK    1  A    between atoms: C_1  and  C_2
REMARK    2  A    between atoms: C_8  and  N_10
REMARK    3  A    between atoms: C_11  and  C_13
REMARK    4  A    between atoms: C_13  and  N_14
REMARK                            x       y       z     vdW  Elec       q    Type
REMARK                         _______ _______ _______ _____ _____    ______ ____
ROOT
ATOM      1  C   UNL     1       0.033   0.579   4.842  0.00  0.00    +0.212 C 
ENDROOT
BRANCH   1   2
ATOM      2  N   UNL     1       0.984   0.635   5.955  0.00  0.00    -0.233 N 
ATOM      3  C   UNL     1       1.208  -0.402   6.779  0.00  0.00    +0.226 C 
ATOM      4  O   UNL     1       0.790  -1.531   6.637  0.00  0.00    -0.275 OA
ATOM      5  C   UNL     1       2.085   0.094   7.928  0.00  0.00    +0.087 C 
ATOM      6  C   UNL     1       1.192   0.329   9.130  0.00  0.00    +0.013 C 
ATOM      7  C   UNL     1       1.762   1.366  10.088  0.00  0.00    +0.001 C 
ATOM      8  C   UNL     1       1.935   2.685   9.328  0.00  0.00    +0.001 C 
ATOM      9  C   UNL     1       3.005   2.482   8.261  0.00  0.00    +0.013 C 
ATOM     10  C   UNL     1       2.706   1.342   7.316  0.00  0.00    +0.087 C 
ATOM     11  C   UNL     1       1.716   1.729   6.240  0.00  0.00    +0.226 C 
ATOM     12  O   UNL     1       1.601   2.822   5.729  0.00  0.00    -0.275 OA
ENDBRANCH   1   2
BRANCH   1  14
ATOM     13  N   UNL     1       0.056  -0.038   2.447  0.00  0.00    -0.311 N 
ATOM     14  C   UNL     1       0.738   0.093   3.602  0.00  0.00    +0.231 C 
ATOM     15  O   UNL     1       1.919  -0.179   3.644  0.00  0.00    -0.274 OA
ATOM     16  H   UNL     1      -0.888   0.180   2.413  0.00  0.00    +0.149 HD
BRANCH  13  23
ATOM     17  C   UNL     1      -0.019   1.526   0.010  0.00  0.00    +0.009 C 
ATOM     18  C   UNL     1       0.002  -0.004   0.002  0.00  0.00    +0.006 C 
ATOM     19  C   UNL     1       0.718  -0.497  -1.257  0.00  0.00    +0.005 C 
ATOM     20  C   UNL     1       0.739  -2.027  -1.265  0.00  0.00    +0.000 C 
ATOM     21  C   UNL     1       1.479  -2.534  -0.026  0.00  0.00    +0.002 C 
ATOM     22  C   UNL     1       0.763  -2.041   1.233  0.00  0.00    +0.022 C 
ATOM     23  C   UNL     1       0.742  -0.511   1.242  0.00  0.00    +0.076 C 
ENDBRANCH  13  23
ENDBRANCH   1  14
TORSDOF 3
