REMARK  Name = ZINC29195618
REMARK  10 active torsions:
REMARK  status: ('A' for Active; 'I' for Inactive)
REMARK    1  A    between atoms: C_1  and  C_2
REMARK    2  A    between atoms: C_4  and  N_21
REMARK    3  A    between atoms: C_6  and  C_7
REMARK    4  A    between atoms: C_13  and  N_16
REMARK    5  A    between atoms: N_16  and  S_17
REMARK    6  A    between atoms: S_17  and  C_20
REMARK    7  A    between atoms: C_22  and  C_24
REMARK    8  A    between atoms: C_24  and  C_25
REMARK    9  A    between atoms: C_24  and  C_26
REMARK   10  A    between atoms: C_24  and  C_27
REMARK                            x       y       z     vdW  Elec       q    Type
REMARK                         _______ _______ _______ _____ _____    ______ ____
ROOT
ATOM      1  C   UNL     1       2.480   6.560  -1.611  0.00  0.00    +0.045 C 
ATOM      2  C   UNL     1       1.687   5.694  -0.667  0.00  0.00    -0.029 A 
ATOM      3  C   UNL     1       1.999   4.374  -0.479  0.00  0.00    +0.035 A 
ATOM      4  C   UNL     1       1.238   3.631   0.398  0.00  0.00    +0.073 A 
ATOM      5  S   UNL     1       0.065   4.774   0.967  0.00  0.00    -0.069 S 
ATOM      6  C   UNL     1       0.611   6.201   0.047  0.00  0.00    +0.079 A 
ENDROOT
BRANCH   6   7
ATOM      7  C   UNL     1       0.062   7.556   0.043  0.00  0.00    +0.254 C 
ATOM      8  O   UNL     1       0.809   8.515   0.119  0.00  0.00    -0.269 OA
ATOM      9  N   UNL     1      -1.269   7.744  -0.045  0.00  0.00    -0.296 N 
ATOM     10  C   UNL     1      -2.188   6.597  -0.045  0.00  0.00    +0.108 C 
ATOM     11  C   UNL     1      -3.097   6.694  -1.274  0.00  0.00    +0.021 C 
ATOM     12  C   UNL     1      -3.793   8.057  -1.284  0.00  0.00    +0.023 C 
ATOM     13  C   UNL     1      -2.743   9.167  -1.371  0.00  0.00    +0.093 C 
ATOM     14  C   UNL     1      -1.830   9.098  -0.137  0.00  0.00    +0.128 C 
BRANCH  13  15
ATOM     15  N   UNL     1      -3.411  10.470  -1.412  0.00  0.00    -0.190 NA
ATOM     16  H   UNL     1      -4.417  10.586  -0.982  0.00  0.00    +0.148 HD
BRANCH  15  17
ATOM     17  S   UNL     1      -2.770  11.701  -2.316  0.00  0.00    +0.027 S 
ATOM     18  O   UNL     1      -3.647  12.799  -2.107  0.00  0.00    -0.158 OA
ATOM     19  O   UNL     1      -1.409  11.774  -1.916  0.00  0.00    -0.158 OA
ATOM     20  C   UNL     1      -2.887  11.127  -4.033  0.00  0.00    +0.214 C 
ENDBRANCH  15  17
ENDBRANCH  13  15
ENDBRANCH   6   7
BRANCH   4  21
ATOM     21  N   UNL     1       1.374   2.290   0.738  0.00  0.00    -0.280 N 
ATOM     22  C   UNL     1       0.526   1.731   1.623  0.00  0.00    +0.223 C 
ATOM     23  O   UNL     1      -0.358   2.396   2.120  0.00  0.00    -0.275 OA
ATOM     24  H   UNL     1       2.173   1.686   0.284  0.00  0.00    +0.155 HD
BRANCH  22  25
ATOM     25  C   UNL     1       0.673   0.277   1.992  0.00  0.00    +0.039 C 
ATOM     26  C   UNL     1      -0.406  -0.104   3.008  0.00  0.00    +0.020 C 
ATOM     27  C   UNL     1       0.520  -0.586   0.738  0.00  0.00    +0.020 C 
ATOM     28  C   UNL     1       2.056   0.044   2.605  0.00  0.00    +0.020 C 
ENDBRANCH  22  25
ENDBRANCH   4  21
TORSDOF 5
