REMARK  Name = ZINC38687943
REMARK  6 active torsions:
REMARK  status: ('A' for Active; 'I' for Inactive)
REMARK    1  A    between atoms: C_5  and  C_7
REMARK    2  A    between atoms: C_12  and  O_21
REMARK    3  A    between atoms: C_16  and  N_20
REMARK    4  A    between atoms: C_17  and  C_18
REMARK    5  A    between atoms: O_21  and  C_22
REMARK    6  A    between atoms: C_22  and  C_24
REMARK                            x       y       z     vdW  Elec       q    Type
REMARK                         _______ _______ _______ _____ _____    ______ ____
ROOT
ATOM      1  C   UNL     1       1.190  -2.224   0.014  0.00  0.00    +0.101 C 
ATOM      2  C   UNL     1       0.492  -2.716  -1.226  0.00  0.00    +0.008 A 
ATOM      3  C   UNL     1       1.104  -2.565  -2.457  0.00  0.00    +0.012 A 
ATOM      4  C   UNL     1       0.478  -3.010  -3.605  0.00  0.00    +0.047 A 
ATOM      5  C   UNL     1      -0.770  -3.612  -3.526  0.00  0.00    +0.135 A 
ATOM      6  C   UNL     1      -1.385  -3.765  -2.294  0.00  0.00    +0.093 A 
ATOM      7  C   UNL     1      -0.755  -3.316  -1.141  0.00  0.00    +0.138 A 
ATOM      8  O   UNL     1      -1.371  -3.474   0.057  0.00  0.00    -0.441 OA
ATOM      9  C   UNL     1      -0.654  -3.416   1.192  0.00  0.00    +0.199 C 
ATOM     10  C   UNL     1       0.565  -2.836   1.236  0.00  0.00    +0.098 C 
ENDROOT
BRANCH   1  15
ATOM     11  C   UNL     1      -0.282   1.246   0.227  0.00  0.00    +0.000 A 
ATOM     12  C   UNL     1       0.856   2.030   0.232  0.00  0.00    +0.003 A 
ATOM     13  C   UNL     1       2.103   1.440   0.167  0.00  0.00    +0.038 A 
ATOM     14  C   UNL     1       2.213   0.061   0.097  0.00  0.00    +0.127 A 
ATOM     15  C   UNL     1       1.073  -0.724   0.091  0.00  0.00    +0.000 A 
ATOM     16  C   UNL     1      -0.174  -0.130   0.157  0.00  0.00    +0.007 A 
ATOM     17  F   UNL     1       3.432  -0.518   0.032  0.00  0.00    -0.205 F 
ENDBRANCH   1  15
BRANCH   9  18
ATOM     18  N   UNL     1      -1.177  -3.960   2.338  0.00  0.00    -0.328 N 
ATOM     19  H   UNL     1      -2.052  -4.378   2.321  0.00  0.00    +0.145 HD
ATOM     20  H   UNL     1      -0.672  -3.926   3.166  0.00  0.00    +0.145 HD
ENDBRANCH   9  18
BRANCH  10  21
ATOM     21  C   UNL     1       1.277  -2.806   2.478  0.00  0.00    +0.101 C 
ATOM     22  N   UNL     1       1.843  -2.783   3.463  0.00  0.00    -0.191 NA
ENDBRANCH  10  21
BRANCH   5  23
ATOM     23  O   UNL     1      -1.387  -4.050  -4.654  0.00  0.00    -0.423 OA
BRANCH  23  24
ATOM     24  C   UNL     1      -2.484  -3.396  -5.067  0.00  0.00    +0.357 C 
ATOM     25  O   UNL     1      -2.835  -2.387  -4.502  0.00  0.00    -0.246 OA
BRANCH  24  26
ATOM     26  C   UNL     1      -3.278  -3.919  -6.236  0.00  0.00    +0.319 C 
ATOM     27  C   UNL     1      -3.905  -5.272  -5.872  0.00  0.00    +0.285 C 
ATOM     28  O   UNL     1      -4.662  -5.732  -6.997  0.00  0.00    -0.484 OA
ATOM     29  C   UNL     1      -5.481  -4.825  -7.596  0.00  0.00    +0.162 A 
ATOM     30  C   UNL     1      -6.493  -5.270  -8.434  0.00  0.00    +0.049 A 
ATOM     31  C   UNL     1      -7.330  -4.361  -9.052  0.00  0.00    +0.004 A 
ATOM     32  C   UNL     1      -7.162  -3.006  -8.836  0.00  0.00    +0.004 A 
ATOM     33  C   UNL     1      -6.158  -2.556  -8.001  0.00  0.00    +0.049 A 
ATOM     34  C   UNL     1      -5.314  -3.463  -7.377  0.00  0.00    +0.163 A 
ATOM     35  O   UNL     1      -4.334  -3.005  -6.551  0.00  0.00    -0.470 OA
ENDBRANCH  24  26
ENDBRANCH  23  24
ENDBRANCH   5  23
TORSDOF 6
