REMARK  Name = ZINC09348709
REMARK  8 active torsions:
REMARK  status: ('A' for Active; 'I' for Inactive)
REMARK    1  A    between atoms: C_4  and  C_7
REMARK    2  A    between atoms: C_7  and  O_8
REMARK    3  A    between atoms: O_8  and  C_9
REMARK    4  A    between atoms: C_9  and  C_11
REMARK    5  A    between atoms: C_12  and  N_32
REMARK    6  A    between atoms: C_18  and  C_30
REMARK    7  A    between atoms: C_21  and  C_23
REMARK    8  A    between atoms: C_30  and  O_31
REMARK                            x       y       z     vdW  Elec       q    Type
REMARK                         _______ _______ _______ _____ _____    ______ ____
ROOT
ATOM      1  C   UNL     1       5.778  -1.891   2.756  0.00  0.00    +0.108 C 
ATOM      2  C   UNL     1       6.921  -2.612   2.908  0.00  0.00    +0.196 C 
ATOM      3  O   UNL     1       7.426  -2.865   4.127  0.00  0.00    -0.435 OA
ATOM      4  C   UNL     1       7.058  -2.100   5.184  0.00  0.00    +0.215 A 
ATOM      5  C   UNL     1       7.880  -2.083   6.347  0.00  0.00    +0.228 A 
ATOM      6  O   UNL     1       8.905  -2.744   6.403  0.00  0.00    -0.284 OA
ATOM      7  C   UNL     1       7.471  -1.274   7.437  0.00  0.00    +0.098 A 
ATOM      8  C   UNL     1       6.332  -0.563   7.324  0.00  0.00    +0.134 A 
ATOM      9  O   UNL     1       5.588  -0.601   6.219  0.00  0.00    -0.457 OA
ATOM     10  C   UNL     1       5.934  -1.355   5.163  0.00  0.00    +0.163 A 
ATOM     11  C   UNL     1       5.043  -1.349   3.949  0.00  0.00    +0.131 C 
ENDROOT
BRANCH  11  12
ATOM     12  C   UNL     1       3.833  -2.205   4.220  0.00  0.00    -0.032 A 
ATOM     13  C   UNL     1       3.987  -3.549   4.508  0.00  0.00    +0.007 A 
ATOM     14  C   UNL     1       2.878  -4.335   4.757  0.00  0.00    +0.038 A 
ATOM     15  C   UNL     1       1.612  -3.776   4.718  0.00  0.00    +0.123 A 
ATOM     16  C   UNL     1       1.458  -2.431   4.429  0.00  0.00    +0.038 A 
ATOM     17  C   UNL     1       2.569  -1.646   4.186  0.00  0.00    +0.007 A 
ATOM     18  F   UNL     1       0.527  -4.544   4.961  0.00  0.00    -0.205 F 
ENDBRANCH  11  12
BRANCH   2  19
ATOM     19  N   UNL     1       7.569  -3.087   1.800  0.00  0.00    -0.329 N 
ATOM     20  H   UNL     1       7.265  -2.833   0.914  0.00  0.00    +0.145 HD
ATOM     21  H   UNL     1       8.332  -3.677   1.900  0.00  0.00    +0.145 HD
ENDBRANCH   2  19
BRANCH   1  22
ATOM     22  C   UNL     1       5.282  -1.646   1.468  0.00  0.00    +0.341 C 
ATOM     23  O   UNL     1       5.457  -0.559   0.944  0.00  0.00    -0.245 OA
BRANCH  22  24
ATOM     24  O   UNL     1       4.611  -2.613   0.807  0.00  0.00    -0.456 OA
BRANCH  24  25
ATOM     25  C   UNL     1       4.133  -2.294  -0.502  0.00  0.00    +0.268 C 
BRANCH  25  29
ATOM     26  C   UNL     1       2.095  -5.671  -2.140  0.00  0.00    +0.000 A 
ATOM     27  C   UNL     1       1.397  -4.733  -1.403  0.00  0.00    +0.000 A 
ATOM     28  C   UNL     1       2.056  -3.640  -0.873  0.00  0.00    +0.007 A 
ATOM     29  C   UNL     1       3.414  -3.486  -1.079  0.00  0.00    -0.010 A 
ATOM     30  C   UNL     1       4.113  -4.425  -1.815  0.00  0.00    +0.007 A 
ATOM     31  C   UNL     1       3.453  -5.517  -2.346  0.00  0.00    +0.000 A 
ENDBRANCH  25  29
ENDBRANCH  24  25
ENDBRANCH  22  24
ENDBRANCH   1  22
BRANCH   8  32
ATOM     32  C   UNL     1       5.889   0.299   8.477  0.00  0.00    +0.230 C 
BRANCH  32  33
ATOM     33  O   UNL     1       6.831   0.186   9.546  0.00  0.00    -0.387 OA
ATOM     34  H   UNL     1       6.608   0.716  10.324  0.00  0.00    +0.210 HD
ENDBRANCH  32  33
ENDBRANCH   8  32
TORSDOF 8
