REMARK  Name = ZINC39544795
REMARK  7 active torsions:
REMARK  status: ('A' for Active; 'I' for Inactive)
REMARK    1  A    between atoms: C_1  and  C_2
REMARK    2  A    between atoms: C_2  and  C_3
REMARK    3  A    between atoms: C_2  and  C_4
REMARK    4  A    between atoms: C_4  and  N_5
REMARK    5  A    between atoms: N_5  and  C_6
REMARK    6  A    between atoms: C_11  and  O_12
REMARK    7  A    between atoms: C_13  and  C_15
REMARK                            x       y       z     vdW  Elec       q    Type
REMARK                         _______ _______ _______ _____ _____    ______ ____
ROOT
ATOM      1  C   UNL     1       1.419   1.897  -2.274  0.00  0.00    +0.149 C 
ATOM      2  C   UNL     1       1.574   3.364  -1.830  0.00  0.00    +0.076 C 
ATOM      3  C   UNL     1       1.837   4.113  -3.117  0.00  0.00    +0.032 C 
ATOM      4  C   UNL     1       1.830   3.272  -4.119  0.00  0.00    +0.085 C 
ATOM      5  N   UNL     1       2.074   3.590  -5.470  0.00  0.00    -0.303 N 
ATOM      6  C   UNL     1       2.785   2.613  -6.187  0.00  0.00    +0.037 A 
ATOM      7  C   UNL     1       3.181   2.868  -7.492  0.00  0.00    +0.023 A 
ATOM      8  C   UNL     1       3.872   1.904  -8.201  0.00  0.00    +0.002 A 
ATOM      9  C   UNL     1       4.164   0.690  -7.606  0.00  0.00    +0.000 A 
ATOM     10  C   UNL     1       3.773   0.438  -6.306  0.00  0.00    +0.007 A 
ATOM     11  C   UNL     1       3.084   1.400  -5.585  0.00  0.00    -0.010 A 
ATOM     12  C   UNL     1       2.694   1.105  -4.160  0.00  0.00    +0.124 C 
ATOM     13  N   UNL     1       1.569   1.946  -3.737  0.00  0.00    -0.369 NA
ATOM     14 BR   UNL     1       2.130   5.976  -3.256  0.00  0.00    -0.052 Br
ATOM     15  H   UNL     1       1.774   4.419  -5.873  0.00  0.00    +0.153 HD
ATOM     16  H   UNL     1       0.720   1.624  -4.177  0.00  0.00    +0.129 HD
ENDROOT
BRANCH   1  18
ATOM     17  N   UNL     1       2.174  -0.108  -1.039  0.00  0.00    -0.267 N 
ATOM     18  C   UNL     1       2.498   1.043  -1.660  0.00  0.00    +0.239 C 
ATOM     19  O   UNL     1       3.658   1.391  -1.726  0.00  0.00    -0.273 OA
BRANCH  17  20
ATOM     20  C   UNL     1       0.829  -0.477  -0.903  0.00  0.00    +0.078 A 
ATOM     21  C   UNL     1       0.106  -0.074   0.210  0.00  0.00    +0.027 A 
ATOM     22  C   UNL     1      -1.221  -0.439   0.341  0.00  0.00    +0.002 A 
ATOM     23  C   UNL     1      -1.830  -1.206  -0.635  0.00  0.00    +0.004 A 
ATOM     24  C   UNL     1      -1.116  -1.612  -1.747  0.00  0.00    +0.047 A 
ATOM     25  C   UNL     1       0.213  -1.245  -1.889  0.00  0.00    +0.138 A 
BRANCH  25  26
ATOM     26  O   UNL     1       0.915  -1.638  -2.985  0.00  0.00    -0.505 OA
ATOM     27  H   UNL     1       1.363  -2.489  -2.881  0.00  0.00    +0.292 HD
ENDBRANCH  25  26
ENDBRANCH  17  20
BRANCH  17  28
ATOM     28  C   UNL     1       3.228  -0.974  -0.504  0.00  0.00    +0.116 C 
BRANCH  28  30
ATOM     29  C   UNL     1       4.385  -1.156  -2.711  0.00  0.00    +0.009 C 
ATOM     30  C   UNL     1       3.695  -1.941  -1.594  0.00  0.00    +0.001 C 
ATOM     31  C   UNL     1       4.680  -2.947  -0.995  0.00  0.00    +0.009 C 
ENDBRANCH  28  30
ENDBRANCH  17  28
ENDBRANCH   1  18
TORSDOF 5
