REMARK  Name = ZINC04140449
REMARK  4 active torsions:
REMARK  status: ('A' for Active; 'I' for Inactive)
REMARK    1  A    between atoms: C_1  and  O_2
REMARK    2  A    between atoms: O_2  and  C_3
REMARK    3  A    between atoms: C_6  and  C_12
REMARK    4  A    between atoms: C_8  and  N_9
REMARK                            x       y       z     vdW  Elec       q    Type
REMARK                         _______ _______ _______ _____ _____    ______ ____
ROOT
ATOM      1  C   UNL     1      -0.019   1.527   0.010  0.00  0.00    +0.105 C 
ATOM      2  C   UNL     1       0.002  -0.004   0.002  0.00  0.00    +0.029 C 
ATOM      3  C   UNL     1      -1.431  -0.489   0.371  0.00  0.00    +0.033 C 
ATOM      4  C   UNL     1      -1.449  -0.412   1.885  0.00  0.00    -0.030 C 
ATOM      5  C   UNL     1      -0.227  -0.436   2.361  0.00  0.00    -0.023 C 
ATOM      6  C   UNL     1       0.790  -0.526   1.219  0.00  0.00    +0.049 C 
ATOM      7  C   UNL     1       2.028   0.266   1.496  0.00  0.00    -0.019 A 
ATOM      8  C   UNL     1       2.957  -0.241   2.396  0.00  0.00    +0.006 A 
ATOM      9  C   UNL     1       4.113   0.458   2.679  0.00  0.00    +0.000 A 
ATOM     10  C   UNL     1       4.360   1.674   2.069  0.00  0.00    +0.002 A 
ATOM     11  C   UNL     1       3.445   2.188   1.173  0.00  0.00    +0.023 A 
ATOM     12  C   UNL     1       2.281   1.486   0.887  0.00  0.00    +0.031 A 
ATOM     13  N   UNL     1       1.362   2.022  -0.000  0.00  0.00    -0.336 N 
ATOM     14  H   UNL     1       1.641   2.704  -0.631  0.00  0.00    +0.147 HD
ENDROOT
BRANCH   1  18
ATOM     15  C   UNL     1      -2.008   2.912   3.530  0.00  0.00    +0.150 A 
ATOM     16  C   UNL     1      -0.684   2.500   3.596  0.00  0.00    +0.048 A 
ATOM     17  C   UNL     1      -0.044   2.053   2.457  0.00  0.00    +0.009 A 
ATOM     18  C   UNL     1      -0.720   2.015   1.252  0.00  0.00    -0.025 A 
ATOM     19  C   UNL     1      -2.037   2.430   1.182  0.00  0.00    +0.042 A 
ATOM     20  C   UNL     1      -2.684   2.873   2.320  0.00  0.00    +0.168 A 
BRANCH  20  21
ATOM     21  N   UNL     1      -4.096   3.312   2.246  0.00  0.00    +0.060 N 
ATOM     22  O   UNL     1      -4.689   3.278   1.183  0.00  0.00    -0.126 OA
ATOM     23  O   UNL     1      -4.664   3.707   3.248  0.00  0.00    -0.126 OA
ENDBRANCH  20  21
BRANCH  15  25
ATOM     24  C   UNL     1      -1.882   3.364   5.861  0.00  0.00    +0.277 C 
ATOM     25  O   UNL     1      -2.640   3.352   4.650  0.00  0.00    -0.493 OA
ENDBRANCH  15  25
ENDBRANCH   1  18
TORSDOF 3
