REMARK  Name = ZINC49885679
REMARK  6 active torsions:
REMARK  status: ('A' for Active; 'I' for Inactive)
REMARK    1  A    between atoms: C_1  and  C_2
REMARK    2  A    between atoms: C_2  and  C_3
REMARK    3  A    between atoms: C_2  and  N_18
REMARK    4  A    between atoms: N_9  and  C_12
REMARK    5  A    between atoms: N_18  and  C_19
REMARK    6  A    between atoms: C_20  and  C_21
REMARK                            x       y       z     vdW  Elec       q    Type
REMARK                         _______ _______ _______ _____ _____    ______ ____
ROOT
ATOM      1  C   UNL     1      -2.167   1.071  -1.221  0.00  0.00    +0.100 A 
ATOM      2  C   UNL     1      -3.068   1.476  -0.221  0.00  0.00    +0.263 A 
ATOM      3  O   UNL     1      -2.713   2.253   0.648  0.00  0.00    -0.267 OA
ATOM      4  N   UNL     1      -4.328   0.998  -0.229  0.00  0.00    -0.274 N 
ATOM      5  C   UNL     1      -4.727   0.140  -1.185  0.00  0.00    +0.332 A 
ATOM      6  O   UNL     1      -5.868  -0.280  -1.176  0.00  0.00    -0.246 OA
ATOM      7  N   UNL     1      -3.881  -0.261  -2.152  0.00  0.00    -0.257 N 
ATOM      8  C   UNL     1      -2.591   0.205  -2.184  0.00  0.00    +0.265 A 
ATOM      9  O   UNL     1      -1.747  -0.196  -3.159  0.00  0.00    -0.267 OA
ATOM     10  H   UNL     1      -4.953   1.275   0.460  0.00  0.00    +0.173 HD
ENDROOT
BRANCH   7  11
ATOM     11  C   UNL     1      -4.343  -1.196  -3.181  0.00  0.00    +0.095 C 
ATOM     12  C   UNL     1      -5.515  -0.577  -3.945  0.00  0.00    +0.025 C 
ATOM     13  C   UNL     1      -5.997  -1.553  -5.019  0.00  0.00    +0.002 C 
ATOM     14  C   UNL     1      -6.450  -2.856  -4.358  0.00  0.00    +0.000 C 
ATOM     15  C   UNL     1      -5.278  -3.476  -3.594  0.00  0.00    +0.002 C 
ATOM     16  C   UNL     1      -4.796  -2.499  -2.520  0.00  0.00    +0.025 C 
ENDBRANCH   7  11
BRANCH   1  18
ATOM     17  C   UNL     1      -0.013   1.086   0.008  0.00  0.00    +0.031 C 
ATOM     18  C   UNL     1      -0.753   1.593  -1.232  0.00  0.00    +0.091 C 
BRANCH  18  19
ATOM     19  N   UNL     1      -0.773   3.062  -1.223  0.00  0.00    -0.405 NA
ATOM     20  H   UNL     1      -1.330   3.394  -1.996  0.00  0.00    +0.123 HD
ATOM     21  H   UNL     1      -1.171   3.388  -0.356  0.00  0.00    +0.123 HD
BRANCH  19  22
ATOM     22  C   UNL     1       0.533   3.546  -1.348  0.00  0.00    +0.050 C 
ATOM     23  C   UNL     1       0.835   4.399  -2.321  0.00  0.00    +0.016 C 
BRANCH  23  24
ATOM     24  C   UNL     1       2.208   4.909  -2.452  0.00  0.00    -0.050 C 
ATOM     25  C   UNL     1       2.464   5.755  -3.425  0.00  0.00    -0.023 C 
ATOM     26  C   UNL     1       3.819   6.347  -3.682  0.00  0.00    +0.027 C 
ATOM     27  C   UNL     1       4.710   6.178  -2.449  0.00  0.00    +0.004 C 
ATOM     28  C   UNL     1       4.644   4.714  -1.998  0.00  0.00    +0.005 C 
ATOM     29  C   UNL     1       3.235   4.437  -1.464  0.00  0.00    +0.035 C 
ENDBRANCH  23  24
ENDBRANCH  19  22
ENDBRANCH  18  19
ENDBRANCH   1  18
TORSDOF 5
