REMARK  Name = ZINC60032485
REMARK  5 active torsions:
REMARK  status: ('A' for Active; 'I' for Inactive)
REMARK    1  A    between atoms: C_1  and  C_2
REMARK    2  A    between atoms: C_5  and  C_27
REMARK    3  A    between atoms: N_6  and  C_7
REMARK    4  A    between atoms: C_8  and  C_13
REMARK    5  A    between atoms: N_11  and  C_12
REMARK                            x       y       z     vdW  Elec       q    Type
REMARK                         _______ _______ _______ _____ _____    ______ ____
ROOT
ATOM      1  C   UNL     1       0.131   0.486   2.377  0.00  0.00    +0.148 A 
ATOM      2  C   UNL     1       1.151  -0.033   3.166  0.00  0.00    +0.099 A 
ATOM      3  C   UNL     1       0.583  -0.353   4.420  0.00  0.00    +0.149 A 
ATOM      4  N   UNL     1      -0.684  -0.049   4.381  0.00  0.00    -0.177 NA
ATOM      5  N   UNL     1      -0.991   0.481   3.123  0.00  0.00    -0.250 N 
ATOM      6  C   UNL     1      -2.310   0.947   2.689  0.00  0.00    +0.174 C 
ENDROOT
BRANCH   2   7
ATOM      7  C   UNL     1       2.556  -0.213   2.771  0.00  0.00    +0.252 C 
ATOM      8  O   UNL     1       2.826  -0.722   1.700  0.00  0.00    -0.270 OA
ATOM      9  N   UNL     1       3.544   0.185   3.597  0.00  0.00    -0.294 N 
ATOM     10  C   UNL     1       3.248   0.623   4.968  0.00  0.00    +0.108 C 
ATOM     11  C   UNL     1       3.868   2.005   5.192  0.00  0.00    +0.019 C 
ATOM     12  C   UNL     1       5.360   1.958   4.851  0.00  0.00    +0.007 C 
ATOM     13  C   UNL     1       5.529   1.586   3.373  0.00  0.00    +0.010 C 
ATOM     14  C   UNL     1       4.942   0.186   3.148  0.00  0.00    +0.079 C 
ATOM     15  C   UNL     1       5.021  -0.195   1.673  0.00  0.00    +0.023 C 
ATOM     16  C   UNL     1       4.265   0.833   0.829  0.00  0.00    +0.002 C 
ATOM     17  C   UNL     1       4.891   2.214   1.037  0.00  0.00    +0.000 C 
ATOM     18  C   UNL     1       4.790   2.618   2.518  0.00  0.00    +0.005 C 
ENDBRANCH   2   7
BRANCH   1  24
ATOM     19  C   UNL     1       0.822   3.368   1.603  0.00  0.00    +0.064 C 
ATOM     20  C   UNL     1       0.554   2.207   0.681  0.00  0.00    +0.022 A 
ATOM     21  C   UNL     1       0.581   2.245  -0.666  0.00  0.00    +0.023 A 
ATOM     22  C   UNL     1       0.274   0.951  -1.133  0.00  0.00    +0.023 A 
ATOM     23  C   UNL     1       0.071   0.168  -0.055  0.00  0.00    +0.022 A 
ATOM     24  N   UNL     1       0.247   0.931   1.065  0.00  0.00    -0.302 N 
ATOM     25  C   UNL     1      -0.281  -1.297  -0.080  0.00  0.00    +0.064 C 
ENDBRANCH   1  24
TORSDOF 2
