REMARK  Name = ZINC41108368
REMARK  9 active torsions:
REMARK  status: ('A' for Active; 'I' for Inactive)
REMARK    1  A    between atoms: C_1  and  C_2
REMARK    2  A    between atoms: C_2  and  C_3
REMARK    3  A    between atoms: C_2  and  C_4
REMARK    4  A    between atoms: C_2  and  C_5
REMARK    5  A    between atoms: C_8  and  C_11
REMARK    6  A    between atoms: N_15  and  C_23
REMARK    7  A    between atoms: C_17  and  C_18
REMARK    8  A    between atoms: C_17  and  C_20
REMARK    9  A    between atoms: C_23  and  C_24
REMARK                            x       y       z     vdW  Elec       q    Type
REMARK                         _______ _______ _______ _____ _____    ______ ____
ROOT
ATOM      1  C   UNL     1       3.188  -2.414  -4.683  0.00  0.00    +0.028 C 
ATOM      2  C   UNL     1       2.383  -2.475  -5.774  0.00  0.00    +0.079 A 
ATOM      3  C   UNL     1       2.651  -3.055  -7.106  0.00  0.00    +0.266 A 
ATOM      4  O   UNL     1       3.716  -3.579  -7.370  0.00  0.00    -0.266 OA
ATOM      5  N   UNL     1       1.677  -2.978  -7.997  0.00  0.00    -0.297 N 
ATOM      6  C   UNL     1       0.481  -2.383  -7.683  0.00  0.00    +0.112 A 
ATOM      7  C   UNL     1      -0.644  -2.215  -8.493  0.00  0.00    +0.158 C 
ATOM      8  S   UNL     1       0.710  -1.884  -5.984  0.00  0.00    -0.064 S 
ENDROOT
BRANCH   1  12
ATOM      9  C   UNL     1       1.643  -1.042  -0.981  0.00  0.00    -0.042 A 
ATOM     10  C   UNL     1       0.776  -1.467  -1.973  0.00  0.00    +0.005 A 
ATOM     11  C   UNL     1       1.271  -1.915  -3.180  0.00  0.00    +0.008 A 
ATOM     12  C   UNL     1       2.652  -1.938  -3.400  0.00  0.00    -0.024 A 
ATOM     13  C   UNL     1       3.521  -1.507  -2.391  0.00  0.00    +0.008 A 
ATOM     14  C   UNL     1       3.010  -1.057  -1.193  0.00  0.00    +0.005 A 
BRANCH   9  16
ATOM     15  C   UNL     1       1.520   0.898   0.559  0.00  0.00    +0.015 C 
ATOM     16  C   UNL     1       1.093  -0.554   0.335  0.00  0.00    -0.013 C 
ATOM     17  C   UNL     1       1.636  -1.427   1.469  0.00  0.00    +0.015 C 
ATOM     18  C   UNL     1      -0.434  -0.639   0.313  0.00  0.00    +0.015 C 
ENDBRANCH   9  16
ENDBRANCH   1  12
BRANCH   7  19
ATOM     19  C   UNL     1      -1.842  -1.652  -7.947  0.00  0.00    +0.113 C 
ATOM     20  N   UNL     1      -2.792  -1.205  -7.513  0.00  0.00    -0.190 NA
ENDBRANCH   7  19
BRANCH   7  21
ATOM     21  C   UNL     1      -0.600  -2.606  -9.870  0.00  0.00    +0.113 C 
ATOM     22  N   UNL     1      -0.565  -2.917 -10.962  0.00  0.00    -0.190 NA
ENDBRANCH   7  21
BRANCH   5  23
ATOM     23  C   UNL     1       1.878  -3.533  -9.338  0.00  0.00    +0.152 C 
BRANCH  23  24
ATOM     24  C   UNL     1       2.301  -2.434 -10.279  0.00  0.00    -0.013 C 
ATOM     25  C   UNL     1       3.429  -2.533 -10.936  0.00  0.00    +0.005 C 
ENDBRANCH  23  24
ENDBRANCH   5  23
TORSDOF 6
