REMARK  Name = ZINC40287911
REMARK  7 active torsions:
REMARK  status: ('A' for Active; 'I' for Inactive)
REMARK    1  A    between atoms: C_1  and  O_2
REMARK    2  A    between atoms: O_2  and  C_3
REMARK    3  A    between atoms: C_6  and  N_11
REMARK    4  A    between atoms: C_7  and  O_9
REMARK    5  A    between atoms: O_9  and  C_10
REMARK    6  A    between atoms: C_17  and  O_29
REMARK    7  A    between atoms: C_19  and  C_21
REMARK                            x       y       z     vdW  Elec       q    Type
REMARK                         _______ _______ _______ _____ _____    ______ ____
ROOT
ATOM      1  N   UNL     1      -4.900  -2.575   0.036  0.00  0.00    -0.280 N 
ATOM      2  C   UNL     1      -5.842  -2.546  -0.952  0.00  0.00    +0.206 A 
ATOM      3  N   UNL     1      -6.867  -3.275  -0.584  0.00  0.00    -0.237 NA
ATOM      4  C   UNL     1      -6.636  -3.787   0.617  0.00  0.00    +0.094 A 
ATOM      5  C   UNL     1      -5.399  -3.363   1.032  0.00  0.00    +0.165 A 
ATOM      6  N   UNL     1      -4.880  -3.725   2.240  0.00  0.00    -0.197 NA
ATOM      7  C   UNL     1      -5.404  -4.731   2.875  0.00  0.00    +0.190 C 
ATOM      8  C   UNL     1      -6.538  -5.549   2.328  0.00  0.00    +0.110 C 
ATOM      9  C   UNL     1      -7.486  -4.692   1.474  0.00  0.00    +0.080 C 
ENDROOT
BRANCH   9  10
ATOM     10  C   UNL     1      -8.382  -3.863   2.358  0.00  0.00    -0.035 A 
ATOM     11  C   UNL     1      -7.831  -2.970   3.258  0.00  0.00    +0.007 A 
ATOM     12  C   UNL     1      -8.652  -2.209   4.069  0.00  0.00    +0.041 A 
ATOM     13  C   UNL     1     -10.027  -2.341   3.981  0.00  0.00    +0.158 A 
ATOM     14  C   UNL     1     -10.579  -3.236   3.078  0.00  0.00    +0.159 A 
ATOM     15  C   UNL     1      -9.755  -3.993   2.263  0.00  0.00    +0.045 A 
ATOM     16  F   UNL     1     -11.921  -3.366   2.990  0.00  0.00    -0.202 F 
ATOM     17  F   UNL     1     -10.829  -1.598   4.774  0.00  0.00    -0.202 F 
ENDBRANCH   9  10
BRANCH   1  21
ATOM     18  C   UNL     1      -1.201  -0.638   0.010  0.00  0.00    +0.124 A 
ATOM     19  C   UNL     1      -2.374   0.103   0.020  0.00  0.00    +0.048 A 
ATOM     20  C   UNL     1      -3.598  -0.538   0.028  0.00  0.00    +0.033 A 
ATOM     21  C   UNL     1      -3.656  -1.924   0.027  0.00  0.00    +0.091 A 
ATOM     22  C   UNL     1      -2.479  -2.669   0.018  0.00  0.00    +0.147 A 
ATOM     23  C   UNL     1      -1.254  -2.023   0.003  0.00  0.00    +0.093 A 
BRANCH  18  25
ATOM     24  C   UNL     1      -0.017   1.425   0.010  0.00  0.00    +0.277 C 
ATOM     25  O   UNL     1       0.002  -0.004   0.002  0.00  0.00    -0.495 OA
ENDBRANCH  18  25
BRANCH  22  26
ATOM     26  O   UNL     1      -2.534  -4.027   0.017  0.00  0.00    -0.493 OA
ATOM     27  C   UNL     1      -1.287  -4.726   0.007  0.00  0.00    +0.277 C 
ENDBRANCH  22  26
ENDBRANCH   1  21
BRANCH   7  28
ATOM     28  O   UNL     1      -4.904  -5.057   4.085  0.00  0.00    -0.495 OA
ATOM     29  H   UNL     1      -4.176  -4.490   4.376  0.00  0.00    +0.293 HD
ENDBRANCH   7  28
TORSDOF 5
