REMARK  Name = ZINC53485081
REMARK  6 active torsions:
REMARK  status: ('A' for Active; 'I' for Inactive)
REMARK    1  A    between atoms: C_1  and  C_2
REMARK    2  A    between atoms: C_6  and  C_26
REMARK    3  A    between atoms: C_8  and  N_11
REMARK    4  A    between atoms: C_12  and  C_14
REMARK    5  A    between atoms: C_26  and  C_27
REMARK    6  A    between atoms: C_26  and  C_28
REMARK                            x       y       z     vdW  Elec       q    Type
REMARK                         _______ _______ _______ _____ _____    ______ ____
ROOT
ATOM      1  N   UNL     1       0.224   1.450   2.497  0.00  0.00    -0.307 N 
ATOM      2  C   UNL     1       1.345   2.138   2.792  0.00  0.00    +0.261 C 
ATOM      3  O   UNL     1       2.372   1.543   3.051  0.00  0.00    -0.269 OA
ATOM      4  H   UNL     1      -0.596   1.925   2.290  0.00  0.00    +0.149 HD
ENDROOT
BRANCH   2   5
ATOM      5  C   UNL     1       1.325   3.621   2.800  0.00  0.00    +0.106 A 
ATOM      6  C   UNL     1       0.164   4.262   2.512  0.00  0.00    +0.082 A 
ATOM      7  C   UNL     1       0.119   5.681   2.514  0.00  0.00    +0.190 A 
ATOM      8  O   UNL     1      -0.913   6.279   2.259  0.00  0.00    -0.287 OA
ATOM      9  C   UNL     1       1.358   6.409   2.834  0.00  0.00    +0.045 A 
ATOM     10  C   UNL     1       1.397   7.804   2.856  0.00  0.00    +0.014 A 
ATOM     11  C   UNL     1       2.566   8.444   3.158  0.00  0.00    +0.001 A 
ATOM     12  C   UNL     1       3.716   7.718   3.442  0.00  0.00    +0.002 A 
ATOM     13  C   UNL     1       3.700   6.341   3.425  0.00  0.00    +0.026 A 
ATOM     14  C   UNL     1       2.520   5.668   3.120  0.00  0.00    +0.051 A 
ATOM     15  N   UNL     1       2.473   4.293   3.102  0.00  0.00    -0.350 N 
ATOM     16  H   UNL     1       3.277   3.790   3.305  0.00  0.00    +0.166 HD
ENDBRANCH   2   5
BRANCH   1  22
ATOM     17  C   UNL     1       0.240   1.529  -0.001  0.00  0.00    +0.007 C 
ATOM     18  C   UNL     1       0.261  -0.001  -0.010  0.00  0.00    -0.012 C 
ATOM     19  C   UNL     1      -1.174  -0.530  -0.023  0.00  0.00    +0.004 C 
ATOM     20  C   UNL     1      -1.911  -0.037   1.224  0.00  0.00    +0.006 C 
ATOM     21  C   UNL     1      -1.192  -0.544   2.476  0.00  0.00    +0.012 C 
ATOM     22  C   UNL     1       0.244  -0.015   2.489  0.00  0.00    +0.077 C 
ATOM     23  C   UNL     1       0.980  -0.508   1.242  0.00  0.00    +0.026 C 
BRANCH  21  24
ATOM     24  C   UNL     1      -1.929  -0.051   3.723  0.00  0.00    -0.012 C 
ATOM     25  C   UNL     1      -3.364  -0.580   3.710  0.00  0.00    +0.007 C 
ATOM     26  C   UNL     1      -1.209  -0.558   4.974  0.00  0.00    +0.007 C 
ENDBRANCH  21  24
ENDBRANCH   1  22
TORSDOF 3
