REMARK  Name = ZINC63384282
REMARK  6 active torsions:
REMARK  status: ('A' for Active; 'I' for Inactive)
REMARK    1  A    between atoms: C_1  and  C_2
REMARK    2  A    between atoms: C_2  and  C_3
REMARK    3  A    between atoms: C_6  and  N_9
REMARK    4  A    between atoms: C_12  and  C_19
REMARK    5  A    between atoms: N_33  and  C_34
REMARK    6  A    between atoms: C_34  and  C_35
REMARK                            x       y       z     vdW  Elec       q    Type
REMARK                         _______ _______ _______ _____ _____    ______ ____
ROOT
ATOM      1  N   UNL     1       4.768  -2.624   5.627  0.00  0.00    -0.229 N 
ATOM      2  C   UNL     1       4.088  -2.973   6.737  0.00  0.00    +0.266 A 
ATOM      3  O   UNL     1       4.660  -3.532   7.656  0.00  0.00    -0.267 OA
ATOM      4  C   UNL     1       2.715  -2.687   6.827  0.00  0.00    +0.071 A 
ATOM      5  H   UNL     1       2.394  -1.276   3.929  0.00  0.00    +0.173 HD
ATOM      6  C   UNL     1       2.098  -2.059   5.785  0.00  0.00    +0.259 A 
ATOM      7  N   UNL     1       2.828  -1.722   4.674  0.00  0.00    -0.274 N 
ATOM      8  C   UNL     1       4.143  -2.001   4.611  0.00  0.00    +0.337 A 
ATOM      9  O   UNL     1       4.775  -1.690   3.620  0.00  0.00    -0.246 OA
ATOM     10  O   UNL     1       0.780  -1.774   5.846  0.00  0.00    -0.267 OA
ENDROOT
BRANCH   4  11
ATOM     11  C   UNL     1       1.934  -3.068   8.059  0.00  0.00    -0.000 C 
ATOM     12  C   UNL     1       1.237  -1.832   8.631  0.00  0.00    +0.097 C 
ATOM     13  C   UNL     1       0.212  -1.401   7.587  0.00  0.00    -0.041 C 
ATOM     14  C   UNL     1       0.451  -0.123   7.332  0.00  0.00    -0.001 A 
ATOM     15  C   UNL     1      -0.251   0.859   6.489  0.00  0.00    +0.010 A 
ATOM     16  C   UNL     1       0.289   2.105   6.444  0.00  0.00    +0.001 A 
ATOM     17  C   UNL     1       1.443   2.470   7.144  0.00  0.00    +0.002 A 
ATOM     18  C   UNL     1       2.148   1.635   7.948  0.00  0.00    +0.026 A 
ATOM     19  C   UNL     1       1.676   0.297   8.080  0.00  0.00    +0.043 A 
ATOM     20  N   UNL     1       2.145  -0.700   8.805  0.00  0.00    -0.379 N 
ATOM     21  C   UNL     1      -0.755  -2.388   6.979  0.00  0.00    +0.015 C 
ATOM     22  C   UNL     1       0.083  -3.616   6.578  0.00  0.00    -0.073 C 
ATOM     23  N   UNL     1       0.906  -4.059   7.706  0.00  0.00    +0.386 N 
ATOM     24  H   UNL     1       2.946  -0.693   9.352  0.00  0.00    +0.160 HD
ATOM     25  H   UNL     1       0.311  -4.214   8.506  0.00  0.00    -0.081 HD
BRANCH  23  26
ATOM     26  C   UNL     1       1.564  -5.324   7.352  0.00  0.00    -0.081 C 
ATOM     27  C   UNL     1       0.503  -6.399   7.104  0.00  0.00    -0.017 C 
ENDBRANCH  23  26
ENDBRANCH   4  11
BRANCH   1  31
ATOM     28  C   UNL     1       8.841  -3.466   5.347  0.00  0.00    -0.047 A 
ATOM     29  C   UNL     1       8.420  -2.263   5.885  0.00  0.00    +0.005 A 
ATOM     30  C   UNL     1       7.071  -1.982   5.979  0.00  0.00    +0.026 A 
ATOM     31  C   UNL     1       6.137  -2.907   5.532  0.00  0.00    +0.054 A 
ATOM     32  C   UNL     1       6.563  -4.113   4.992  0.00  0.00    +0.026 A 
ATOM     33  C   UNL     1       7.913  -4.387   4.896  0.00  0.00    +0.005 A 
BRANCH  28  35
ATOM     34  C   UNL     1      10.847  -3.268   3.903  0.00  0.00    +0.009 C 
ATOM     35  C   UNL     1      10.313  -3.770   5.246  0.00  0.00    +0.032 C 
ENDBRANCH  28  35
ENDBRANCH   1  31
TORSDOF 4
