REMARK  Name = ZINC06898078
REMARK  9 active torsions:
REMARK  status: ('A' for Active; 'I' for Inactive)
REMARK    1  A    between atoms: C_1  and  O_2
REMARK    2  A    between atoms: O_2  and  C_3
REMARK    3  A    between atoms: C_7  and  C_10
REMARK    4  A    between atoms: C_8  and  O_9
REMARK    5  A    between atoms: C_10  and  O_12
REMARK    6  A    between atoms: O_12  and  C_13
REMARK    7  A    between atoms: C_13  and  C_14
REMARK    8  A    between atoms: N_16  and  C_17
REMARK    9  A    between atoms: C_18  and  C_25
REMARK                            x       y       z     vdW  Elec       q    Type
REMARK                         _______ _______ _______ _____ _____    ______ ____
ROOT
ATOM      1  C   UNL     1       2.670  -6.569  -4.633  0.00  0.00    +0.255 C 
ATOM      2  O   UNL     1       3.113  -5.762  -5.422  0.00  0.00    -0.272 OA
ATOM      3  N   UNL     1       2.810  -7.888  -4.867  0.00  0.00    -0.277 N 
ATOM      4  H   UNL     1       2.455  -8.534  -4.236  0.00  0.00    +0.155 HD
ENDROOT
BRANCH   3   5
ATOM      5  C   UNL     1       3.462  -8.324  -6.011  0.00  0.00    +0.084 A 
ATOM      6  C   UNL     1       3.692  -9.626  -6.415  0.00  0.00    +0.068 A 
ATOM      7  C   UNL     1       4.409  -9.819  -7.675  0.00  0.00    -0.023 A 
ATOM      8  C   UNL     1       4.759  -8.675  -8.288  0.00  0.00    -0.004 A 
ATOM      9  S   UNL     1       4.146  -7.392  -7.226  0.00  0.00    -0.077 S 
ATOM     10  C   UNL     1       5.496  -8.931  -9.575  0.00  0.00    +0.043 C 
ATOM     11  C   UNL     1       5.943 -10.407  -9.482  0.00  0.00    +0.010 C 
ATOM     12  C   UNL     1       4.887 -10.995  -8.524  0.00  0.00    +0.037 C 
BRANCH   6  13
ATOM     13  C   UNL     1       3.236 -10.765  -5.614  0.00  0.00    +0.244 C 
ATOM     14  O   UNL     1       2.131 -11.239  -5.802  0.00  0.00    -0.270 OA
ATOM     15  N   UNL     1       4.041 -11.289  -4.668  0.00  0.00    -0.325 N 
ATOM     16  H   UNL     1       4.922 -10.911  -4.518  0.00  0.00    +0.145 HD
ATOM     17  H   UNL     1       3.740 -12.043  -4.137  0.00  0.00    +0.145 HD
ENDBRANCH   6  13
ENDBRANCH   3   5
BRANCH   1  18
ATOM     18  C   UNL     1       1.962  -6.096  -3.389  0.00  0.00    +0.328 C 
BRANCH  18  19
ATOM     19  O   UNL     1       1.941  -4.667  -3.367  0.00  0.00    -0.452 OA
BRANCH  19  20
ATOM     20  C   UNL     1       1.340  -4.080  -2.313  0.00  0.00    +0.343 C 
ATOM     21  O   UNL     1       0.847  -4.763  -1.438  0.00  0.00    -0.245 OA
BRANCH  20  26
ATOM     22  C   UNL     1       0.606  -0.608  -1.056  0.00  0.00    +0.162 A 
ATOM     23  C   UNL     1       1.172   0.160  -2.061  0.00  0.00    +0.049 A 
ATOM     24  C   UNL     1       1.790  -0.447  -3.142  0.00  0.00    +0.005 A 
ATOM     25  C   UNL     1       1.847  -1.821  -3.229  0.00  0.00    +0.019 A 
ATOM     26  C   UNL     1       1.281  -2.610  -2.224  0.00  0.00    +0.104 A 
ATOM     27  C   UNL     1       0.661  -1.996  -1.128  0.00  0.00    +0.173 A 
BRANCH  22  29
ATOM     28  C   UNL     1      -0.017   1.425   0.010  0.00  0.00    +0.277 C 
ATOM     29  O   UNL     1       0.002  -0.004   0.002  0.00  0.00    -0.491 OA
ENDBRANCH  22  29
BRANCH  27  30
ATOM     30  O   UNL     1       0.112  -2.752  -0.142  0.00  0.00    -0.503 OA
ATOM     31  H   UNL     1      -0.816  -2.979  -0.291  0.00  0.00    +0.292 HD
ENDBRANCH  27  30
ENDBRANCH  20  26
ENDBRANCH  19  20
ENDBRANCH  18  19
ENDBRANCH   1  18
TORSDOF 8
