REMARK  Name = ZINC09944430
REMARK  9 active torsions:
REMARK  status: ('A' for Active; 'I' for Inactive)
REMARK    1  A    between atoms: C_1  and  C_2
REMARK    2  A    between atoms: C_2  and  C_3
REMARK    3  A    between atoms: C_2  and  C_4
REMARK    4  A    between atoms: C_2  and  C_5
REMARK    5  A    between atoms: C_12  and  C_14
REMARK    6  A    between atoms: C_17  and  S_20
REMARK    7  A    between atoms: N_18  and  C_19
REMARK    8  A    between atoms: S_20  and  C_21
REMARK    9  A    between atoms: C_21  and  C_22
REMARK                            x       y       z     vdW  Elec       q    Type
REMARK                         _______ _______ _______ _____ _____    ______ ____
ROOT
ATOM      1  C   UNL     1       1.422   2.034  -0.001  0.00  0.00    -0.001 C 
ATOM      2  C   UNL     1       2.218   1.386   1.136  0.00  0.00    +0.009 C 
ATOM      3  C   UNL     1       2.437  -0.097   0.801  0.00  0.00    +0.043 C 
ATOM      4  C   UNL     1       1.131  -0.678   0.365  0.00  0.00    -0.006 A 
ATOM      5  C   UNL     1       0.002  -0.004   0.002  0.00  0.00    -0.036 A 
ATOM      6  C   UNL     1      -1.094  -0.775  -0.365  0.00  0.00    +0.023 A 
ATOM      7  C   UNL     1      -1.000  -2.140  -0.349  0.00  0.00    +0.057 A 
ATOM      8  S   UNL     1       0.682  -2.385   0.199  0.00  0.00    -0.090 S 
ATOM      9  C   UNL     1      -0.019   1.522   0.010  0.00  0.00    +0.040 C 
ENDROOT
BRANCH   7  10
ATOM     10  C   UNL     1      -2.020  -3.145  -0.694  0.00  0.00    +0.171 A 
ATOM     11  N   UNL     1      -3.141  -2.929  -1.346  0.00  0.00    -0.128 NA
ATOM     12  N   UNL     1      -3.793  -4.029  -1.473  0.00  0.00    -0.122 NA
ATOM     13  C   UNL     1      -3.132  -5.015  -0.910  0.00  0.00    +0.193 A 
ATOM     14  N   UNL     1      -1.978  -4.489  -0.399  0.00  0.00    -0.305 N 
ATOM     15  C   UNL     1      -0.919  -5.206   0.317  0.00  0.00    +0.153 C 
BRANCH  13  16
ATOM     16  S   UNL     1      -3.635  -6.702  -0.834  0.00  0.00    -0.071 S 
BRANCH  16  17
ATOM     17  C   UNL     1      -5.214  -6.598  -1.712  0.00  0.00    +0.195 C 
BRANCH  17  18
ATOM     18  C   UNL     1      -5.831  -7.934  -1.771  0.00  0.00    +0.074 C 
ATOM     19  N   UNL     1      -6.307  -8.964  -1.816  0.00  0.00    -0.196 NA
ENDBRANCH  17  18
ENDBRANCH  16  17
ENDBRANCH  13  16
ENDBRANCH   7  10
BRANCH   1  21
ATOM     20  C   UNL     1       0.764   3.907   1.517  0.00  0.00    +0.011 C 
ATOM     21  C   UNL     1       1.422   3.554   0.182  0.00  0.00    -0.035 C 
ATOM     22  C   UNL     1       2.863   4.068   0.171  0.00  0.00    +0.011 C 
ATOM     23  C   UNL     1       0.639   4.204  -0.961  0.00  0.00    +0.011 C 
ENDBRANCH   1  21
TORSDOF 5
