REMARK  Name = ZINC55135685
REMARK  9 active torsions:
REMARK  status: ('A' for Active; 'I' for Inactive)
REMARK    1  A    between atoms: C_1  and  C_2
REMARK    2  A    between atoms: C_2  and  O_3
REMARK    3  A    between atoms: O_3  and  C_4
REMARK    4  A    between atoms: C_4  and  C_6
REMARK    5  A    between atoms: C_6  and  C_27
REMARK    6  A    between atoms: C_8  and  C_19
REMARK    7  A    between atoms: C_15  and  C_16
REMARK    8  A    between atoms: C_22  and  O_25
REMARK    9  A    between atoms: O_25  and  C_26
REMARK                            x       y       z     vdW  Elec       q    Type
REMARK                         _______ _______ _______ _____ _____    ______ ____
ROOT
ATOM      1  C   UNL     1      -2.285  -2.470  -0.700  0.00  0.00    +0.214 C 
ATOM      2  C   UNL     1      -2.675  -3.918  -0.540  0.00  0.00    +0.047 A 
ATOM      3  C   UNL     1      -2.191  -4.837   0.334  0.00  0.00    +0.072 A 
ATOM      4  N   UNL     1      -2.852  -6.010   0.100  0.00  0.00    -0.275 N 
ATOM      5  N   UNL     1      -3.762  -5.791  -0.947  0.00  0.00    -0.158 NA
ATOM      6  H   UNL     1      -2.717  -6.845   0.573  0.00  0.00    +0.189 HD
ATOM      7  C   UNL     1      -3.657  -4.551  -1.328  0.00  0.00    +0.151 A 
ATOM      8  N   UNL     1      -4.352  -3.860  -2.340  0.00  0.00    -0.287 N 
ATOM      9  C   UNL     1      -4.138  -2.489  -2.359  0.00  0.00    +0.090 C 
ATOM     10  C   UNL     1      -2.735  -1.993  -2.088  0.00  0.00    +0.182 C 
ATOM     11  N   UNL     1      -5.105  -1.664  -2.601  0.00  0.00    -0.389 N 
ATOM     12  H   UNL     1      -5.998  -2.000  -2.773  0.00  0.00    +0.157 HD
ATOM     13  H   UNL     1      -4.936  -0.709  -2.610  0.00  0.00    +0.157 HD
ATOM     14  H   UNL     1      -4.934  -4.308  -2.975  0.00  0.00    +0.155 HD
ENDROOT
BRANCH   3  15
ATOM     15  C   UNL     1      -1.141  -4.611   1.352  0.00  0.00    +0.000 A 
ATOM     16  C   UNL     1      -1.414  -3.832   2.477  0.00  0.00    +0.013 A 
ATOM     17  C   UNL     1      -0.434  -3.624   3.424  0.00  0.00    +0.046 A 
ATOM     18  C   UNL     1       0.824  -4.188   3.259  0.00  0.00    +0.120 A 
ATOM     19  C   UNL     1       1.100  -4.963   2.140  0.00  0.00    +0.046 A 
ATOM     20  C   UNL     1       0.123  -5.181   1.192  0.00  0.00    +0.013 A 
BRANCH  18  21
ATOM     21  O   UNL     1       1.788  -3.981   4.194  0.00  0.00    -0.495 OA
ATOM     22  C   UNL     1       3.059  -4.590   3.962  0.00  0.00    +0.277 C 
ENDBRANCH  18  21
ENDBRANCH   3  15
BRANCH   1  23
ATOM     23  C   UNL     1      -2.968  -1.628   0.380  0.00  0.00    +0.411 C 
ATOM     24  F   UNL     1      -2.840  -0.272   0.064  0.00  0.00    -0.169 F 
ATOM     25  F   UNL     1      -4.324  -1.966   0.445  0.00  0.00    -0.169 F 
ATOM     26  F   UNL     1      -2.365  -1.878   1.617  0.00  0.00    -0.169 F 
ENDBRANCH   1  23
BRANCH   1  27
ATOM     27  C   UNL     1      -0.789  -2.332  -0.578  0.00  0.00    +0.328 C 
ATOM     28  O   UNL     1      -0.092  -3.319  -0.547  0.00  0.00    -0.249 OA
BRANCH  27  29
ATOM     29  O   UNL     1      -0.232  -1.114  -0.502  0.00  0.00    -0.464 OA
BRANCH  29  31
ATOM     30  C   UNL     1       1.640   0.404  -0.315  0.00  0.00    +0.048 C 
ATOM     31  C   UNL     1       1.192  -1.058  -0.388  0.00  0.00    +0.229 C 
ENDBRANCH  29  31
ENDBRANCH  27  29
ENDBRANCH   1  27
BRANCH  10  32
ATOM     32  C   UNL     1      -1.820  -2.525  -3.110  0.00  0.00    +0.075 C 
ATOM     33  N   UNL     1      -1.113  -2.936  -3.900  0.00  0.00    -0.196 NA
ENDBRANCH  10  32
TORSDOF 7
