REMARK  Name = ZINC01622945
REMARK  9 active torsions:
REMARK  status: ('A' for Active; 'I' for Inactive)
REMARK    1  A    between atoms: C_6  and  N_7
REMARK    2  A    between atoms: C_10  and  C_12
REMARK    3  A    between atoms: C_12  and  C_14
REMARK    4  A    between atoms: C_12  and  O_22
REMARK    5  A    between atoms: C_14  and  C_16
REMARK    6  A    between atoms: C_14  and  O_21
REMARK    7  A    between atoms: C_16  and  C_18
REMARK    8  A    between atoms: C_16  and  O_20
REMARK    9  A    between atoms: C_18  and  O_19
REMARK                            x       y       z     vdW  Elec       q    Type
REMARK                         _______ _______ _______ _____ _____    ______ ____
ROOT
ATOM      1  N   UNL     1       0.141  -4.139   1.404  0.00  0.00    -0.212 N 
ATOM      2  C   UNL     1       1.465  -4.203   1.035  0.00  0.00    +0.183 A 
ATOM      3  C   UNL     1       1.914  -2.862   0.911  0.00  0.00    +0.134 A 
ATOM      4  C   UNL     1       0.762  -2.018   1.233  0.00  0.00    +0.122 A 
ATOM      5  N   UNL     1      -0.239  -2.799   1.516  0.00  0.00    -0.164 NA
ATOM      6  N   UNL     1       3.163  -2.590   0.563  0.00  0.00    -0.240 NA
ATOM      7  C   UNL     1       4.010  -3.590   0.325  0.00  0.00    +0.092 A 
ATOM      8  C   UNL     1       5.347  -3.353  -0.047  0.00  0.00    +0.051 A 
ATOM      9  C   UNL     1       6.174  -4.408  -0.279  0.00  0.00    +0.061 A 
ATOM     10  C   UNL     1       5.731  -5.726  -0.157  0.00  0.00    +0.061 A 
ATOM     11  C   UNL     1       4.452  -6.019   0.199  0.00  0.00    +0.051 A 
ATOM     12  C   UNL     1       3.546  -4.974   0.453  0.00  0.00    +0.093 A 
ATOM     13  N   UNL     1       2.282  -5.214   0.805  0.00  0.00    -0.224 NA
ATOM     14 CL   UNL     1       6.842  -7.024  -0.468  0.00  0.00    -0.082 Cl
ATOM     15 CL   UNL     1       7.821  -4.107  -0.739  0.00  0.00    -0.082 Cl
ENDROOT
BRANCH   1  21
ATOM     16  C   UNL     1      -0.548  -6.394   0.874  0.00  0.00    +0.030 A 
ATOM     17  C   UNL     1      -1.368  -7.481   1.107  0.00  0.00    +0.040 A 
ATOM     18  C   UNL     1      -2.339  -7.419   2.092  0.00  0.00    +0.124 A 
ATOM     19  C   UNL     1      -2.487  -6.268   2.849  0.00  0.00    +0.040 A 
ATOM     20  C   UNL     1      -1.667  -5.181   2.623  0.00  0.00    +0.030 A 
ATOM     21  C   UNL     1      -0.692  -5.241   1.635  0.00  0.00    +0.068 A 
ATOM     22  F   UNL     1      -3.143  -8.481   2.315  0.00  0.00    -0.205 F 
ENDBRANCH   1  21
BRANCH   4  23
ATOM     23  C   UNL     1       0.742  -0.511   1.242  0.00  0.00    +0.198 C 
BRANCH  23  24
ATOM     24  O   UNL     1       0.073  -0.050   2.417  0.00  0.00    -0.383 OA
ATOM     25  H   UNL     1      -0.844  -0.348   2.490  0.00  0.00    +0.210 HD
ENDBRANCH  23  24
BRANCH  23  26
ATOM     26  C   UNL     1       0.002  -0.004   0.002  0.00  0.00    +0.180 C 
BRANCH  26  27
ATOM     27  O   UNL     1       0.671  -0.465  -1.174  0.00  0.00    -0.386 OA
ATOM     28  H   UNL     1       1.588  -0.167  -1.247  0.00  0.00    +0.210 HD
ENDBRANCH  26  27
BRANCH  26  29
ATOM     29  C   UNL     1      -0.019   1.526   0.010  0.00  0.00    +0.171 C 
BRANCH  29  30
ATOM     30  O   UNL     1      -0.688   1.987   1.186  0.00  0.00    -0.387 OA
ATOM     31  H   UNL     1      -1.605   1.688   1.259  0.00  0.00    +0.210 HD
ENDBRANCH  29  30
BRANCH  29  32
ATOM     32  C   UNL     1      -0.759   2.033  -1.229  0.00  0.00    +0.189 C 
BRANCH  32  33
ATOM     33  O   UNL     1      -0.678   3.458  -1.282  0.00  0.00    -0.392 OA
ATOM     34  H   UNL     1      -1.126   3.849  -2.045  0.00  0.00    +0.210 HD
ENDBRANCH  32  33
ENDBRANCH  29  32
ENDBRANCH  26  29
ENDBRANCH  23  26
ENDBRANCH   4  23
TORSDOF 9
