REMARK  Name = ZINC05706451
REMARK  5 active torsions:
REMARK  status: ('A' for Active; 'I' for Inactive)
REMARK    1  A    between atoms: C_1  and  C_2
REMARK    2  A    between atoms: C_5  and  S_8
REMARK    3  A    between atoms: S_8  and  N_11
REMARK    4  A    between atoms: N_11  and  N_12
REMARK    5  A    between atoms: C_15  and  C_19
REMARK                            x       y       z     vdW  Elec       q    Type
REMARK                         _______ _______ _______ _____ _____    ______ ____
ROOT
ATOM      1  S   UNL     1      -2.204   4.669   0.038  0.00  0.00    +0.086 S 
ATOM      2  O   UNL     1      -1.717   5.996   0.189  0.00  0.00    -0.149 OA
ATOM      3  O   UNL     1      -3.015   4.276  -1.059  0.00  0.00    -0.149 OA
ENDROOT
BRANCH   1   8
ATOM      4  C   UNL     1      -5.334   3.404   5.039  0.00  0.00    +0.044 C 
ATOM      5  C   UNL     1      -4.553   3.720   3.790  0.00  0.00    -0.050 A 
ATOM      6  C   UNL     1      -3.569   4.691   3.817  0.00  0.00    +0.005 A 
ATOM      7  C   UNL     1      -2.852   4.981   2.671  0.00  0.00    +0.029 A 
ATOM      8  C   UNL     1      -3.118   4.300   1.499  0.00  0.00    +0.110 A 
ATOM      9  C   UNL     1      -4.104   3.332   1.470  0.00  0.00    +0.029 A 
ATOM     10  C   UNL     1      -4.818   3.038   2.617  0.00  0.00    +0.005 A 
ENDBRANCH   1   8
BRANCH   1  11
ATOM     11  N   UNL     1      -0.878   3.678   0.026  0.00  0.00    -0.137 N 
ATOM     12  H   UNL     1       0.014   4.060   0.024  0.00  0.00    +0.197 HD
BRANCH  11  13
ATOM     13  N   UNL     1      -1.044   2.286   0.020  0.00  0.00    -0.173 NA
ATOM     14  C   UNL     1      -0.019   1.520   0.010  0.00  0.00    +0.066 C 
ATOM     15  C   UNL     1       0.002  -0.004   0.002  0.00  0.00    +0.086 C 
ATOM     16  C   UNL     1       1.425  -0.319   0.529  0.00  0.00    +0.121 C 
ATOM     17  O   UNL     1       2.230   0.728  -0.057  0.00  0.00    -0.371 OA
ATOM     18  C   UNL     1       1.442   1.928  -0.001  0.00  0.00    +0.212 C 
ATOM     19  C   UNL     1       1.889  -1.694   0.045  0.00  0.00    +0.038 C 
ENDBRANCH  11  13
ENDBRANCH   1  11
TORSDOF 3
