REMARK  Name = ZINC27753996
REMARK  10 active torsions:
REMARK  status: ('A' for Active; 'I' for Inactive)
REMARK    1  A    between atoms: C_1  and  C_2
REMARK    2  A    between atoms: C_2  and  O_3
REMARK    3  A    between atoms: O_3  and  C_4
REMARK    4  A    between atoms: C_6  and  C_11
REMARK    5  A    between atoms: C_9  and  O_10
REMARK    6  A    between atoms: C_13  and  C_28
REMARK    7  A    between atoms: C_15  and  C_20
REMARK    8  A    between atoms: C_15  and  O_27
REMARK    9  A    between atoms: C_23  and  C_26
REMARK   10  A    between atoms: C_28  and  C_30
REMARK                            x       y       z     vdW  Elec       q    Type
REMARK                         _______ _______ _______ _____ _____    ______ ____
ROOT
ATOM      1  C   UNL     1      -1.287   3.301   0.020  0.00  0.00    +0.120 C 
ATOM      2  C   UNL     1       0.131   3.507   0.563  0.00  0.00    +0.144 C 
ATOM      3  C   UNL     1       1.095   2.632  -0.245  0.00  0.00    +0.172 C 
ATOM      4  N   UNL     1       0.640   1.242  -0.194  0.00  0.00    -0.267 N 
ATOM      5  C   UNL     1      -0.659   0.938  -0.055  0.00  0.00    +0.302 C 
ATOM      6  O   UNL     1      -0.985  -0.233  -0.028  0.00  0.00    -0.253 OA
ATOM      7  N   UNL     1      -1.614   1.874   0.051  0.00  0.00    -0.292 N 
ATOM      8  H   UNL     1       1.369   0.421  -0.270  0.00  0.00    +0.153 HD
ATOM      9  H   UNL     1      -2.659   1.552   0.163  0.00  0.00    +0.151 HD
ENDROOT
BRANCH   3  10
ATOM     10  C   UNL     1       2.479   2.731   0.344  0.00  0.00    +0.003 A 
ATOM     11  C   UNL     1       3.321   3.759  -0.038  0.00  0.00    +0.008 A 
ATOM     12  C   UNL     1       4.588   3.852   0.505  0.00  0.00    +0.004 A 
ATOM     13  C   UNL     1       5.017   2.912   1.424  0.00  0.00    -0.050 A 
ATOM     14  C   UNL     1       4.177   1.881   1.802  0.00  0.00    +0.004 A 
ATOM     15  C   UNL     1       2.908   1.791   1.262  0.00  0.00    +0.008 A 
ATOM     16  C   UNL     1       6.401   3.011   2.013  0.00  0.00    +0.044 C 
ENDBRANCH   3  10
BRANCH   1  19
ATOM     17  C   UNL     1      -1.613   5.605  -2.957  0.00  0.00    +0.162 A 
ATOM     18  C   UNL     1      -1.551   5.145  -1.651  0.00  0.00    +0.055 A 
ATOM     19  C   UNL     1      -1.359   3.799  -1.401  0.00  0.00    -0.023 A 
ATOM     20  C   UNL     1      -1.238   2.908  -2.451  0.00  0.00    +0.009 A 
ATOM     21  C   UNL     1      -1.304   3.359  -3.756  0.00  0.00    +0.049 A 
ATOM     22  C   UNL     1      -1.491   4.708  -4.014  0.00  0.00    +0.158 A 
BRANCH  22  23
ATOM     23  O   UNL     1      -1.556   5.154  -5.297  0.00  0.00    -0.503 OA
ATOM     24  H   UNL     1      -1.460   4.444  -6.131  0.00  0.00    +0.292 HD
ENDBRANCH  22  23
BRANCH  17  25
ATOM     25  O   UNL     1      -1.797   6.929  -3.204  0.00  0.00    -0.489 OA
BRANCH  25  27
ATOM     26  C   UNL     1      -2.114   9.232  -2.544  0.00  0.00    +0.048 C 
ATOM     27  C   UNL     1      -1.914   7.791  -2.071  0.00  0.00    +0.226 C 
ENDBRANCH  25  27
ENDBRANCH  17  25
ENDBRANCH   1  19
BRANCH   3  28
ATOM     28  O   UNL     1       1.121   3.076  -1.603  0.00  0.00    -0.367 OA
ATOM     29  H   UNL     1       1.761   2.565  -2.337  0.00  0.00    +0.212 HD
ENDBRANCH   3  28
BRANCH   2  30
ATOM     30  C   UNL     1       0.179   3.106   2.015  0.00  0.00    +0.245 C 
ATOM     31  O   UNL     1       0.519   1.988   2.322  0.00  0.00    -0.287 OA
BRANCH  30  32
ATOM     32  C   UNL     1      -0.196   4.099   3.084  0.00  0.00    +0.451 C 
ATOM     33  F   UNL     1      -0.073   3.499   4.342  0.00  0.00    -0.163 F 
ATOM     34  F   UNL     1       0.655   5.207   3.011  0.00  0.00    -0.163 F 
ATOM     35  F   UNL     1      -1.518   4.514   2.892  0.00  0.00    -0.163 F 
ENDBRANCH  30  32
ENDBRANCH   2  30
TORSDOF 8
