REMARK  Name = ZINC39515350
REMARK  7 active torsions:
REMARK  status: ('A' for Active; 'I' for Inactive)
REMARK    1  A    between atoms: C_1  and  C_2
REMARK    2  A    between atoms: C_6  and  C_8
REMARK    3  A    between atoms: N_22  and  C_23
REMARK    4  A    between atoms: C_23  and  C_24
REMARK    5  A    between atoms: C_27  and  C_30
REMARK    6  A    between atoms: C_30  and  C_31
REMARK    7  A    between atoms: C_30  and  C_32
REMARK                            x       y       z     vdW  Elec       q    Type
REMARK                         _______ _______ _______ _____ _____    ______ ____
ROOT
ATOM      1  C   UNL     1       0.050  -2.683   2.519  0.00  0.00    +0.151 C 
ATOM      2  C   UNL     1      -1.361  -2.911   3.002  0.00  0.00    +0.050 C 
ATOM      3  N   UNL     1      -2.026  -3.987   3.159  0.00  0.00    -0.254 NA
ATOM      4  C   UNL     1      -3.236  -3.795   3.749  0.00  0.00    +0.068 A 
ATOM      5  C   UNL     1      -4.218  -4.729   4.103  0.00  0.00    +0.028 A 
ATOM      6  C   UNL     1      -5.356  -4.243   4.726  0.00  0.00    +0.002 A 
ATOM      7  C   UNL     1      -5.530  -2.900   4.993  0.00  0.00    +0.000 A 
ATOM      8  C   UNL     1      -4.569  -1.958   4.637  0.00  0.00    +0.006 A 
ATOM      9  C   UNL     1      -3.439  -2.424   4.008  0.00  0.00    -0.013 A 
ATOM     10  C   UNL     1      -2.247  -1.740   3.430  0.00  0.00    +0.069 C 
ATOM     11  C   UNL     1      -1.428  -0.956   4.457  0.00  0.00    +0.029 C 
ATOM     12  C   UNL     1      -0.071  -0.622   3.825  0.00  0.00    +0.086 C 
ATOM     13  N   UNL     1       0.705  -1.832   3.534  0.00  0.00    -0.287 NA
ENDROOT
BRANCH   1  19
ATOM     14  C   UNL     1      -1.556   1.018  -0.227  0.00  0.00    +0.065 C 
ATOM     15  C   UNL     1      -0.724  -0.233  -0.110  0.00  0.00    +0.039 A 
ATOM     16  C   UNL     1      -0.015  -0.687  -1.207  0.00  0.00    +0.023 A 
ATOM     17  C   UNL     1       0.748  -1.839  -1.088  0.00  0.00    +0.004 A 
ATOM     18  C   UNL     1       0.769  -2.493   0.134  0.00  0.00    +0.025 A 
ATOM     19  C   UNL     1       0.035  -1.980   1.186  0.00  0.00    +0.064 A 
ATOM     20  N   UNL     1      -0.676  -0.879   1.038  0.00  0.00    -0.255 NA
ENDBRANCH   1  19
BRANCH  13  21
ATOM     21  C   UNL     1       2.079  -1.498   3.134  0.00  0.00    +0.118 C 
BRANCH  21  22
ATOM     22  C   UNL     1       2.804  -0.834   4.306  0.00  0.00    +0.167 C 
ATOM     23  C   UNL     1       4.276  -0.641   3.987  0.00  0.00    +0.028 C 
ATOM     24  C   UNL     1       4.904  -1.371   4.912  0.00  0.00    +0.064 C 
ATOM     25  N   UNL     1       4.015  -1.970   5.735  0.00  0.00    -0.158 NA
ATOM     26  N   UNL     1       2.829  -1.728   5.476  0.00  0.00    -0.179 NA
BRANCH  24  27
ATOM     27  C   UNL     1       6.400  -1.508   5.023  0.00  0.00    +0.033 C 
ATOM     28  C   UNL     1       6.859  -0.997   6.390  0.00  0.00    +0.014 C 
ATOM     29  C   UNL     1       6.790  -2.980   4.872  0.00  0.00    +0.014 C 
ENDBRANCH  24  27
ENDBRANCH  21  22
ENDBRANCH  13  21
TORSDOF 4
