REMARK  Name = ZINC40780135
REMARK  4 active torsions:
REMARK  status: ('A' for Active; 'I' for Inactive)
REMARK    1  A    between atoms: C_4  and  S_7
REMARK    2  A    between atoms: S_7  and  C_8
REMARK    3  A    between atoms: C_9  and  N_24
REMARK    4  A    between atoms: C_10  and  N_14
REMARK                            x       y       z     vdW  Elec       q    Type
REMARK                         _______ _______ _______ _____ _____    ______ ____
ROOT
ATOM      1  C   UNL     1       3.512  -2.554  -0.052  0.00  0.00    +0.127 A 
ATOM      2  C   UNL     1       4.468  -3.558   0.117  0.00  0.00    +0.098 A 
ATOM      3  C   UNL     1       4.023  -4.852   0.389  0.00  0.00    +0.151 A 
ATOM      4  N   UNL     1       2.714  -5.079   0.477  0.00  0.00    -0.218 NA
ATOM      5  C   UNL     1       1.845  -4.103   0.311  0.00  0.00    +0.224 A 
ATOM      6  N   UNL     1       2.222  -2.866   0.058  0.00  0.00    -0.227 NA
ENDROOT
BRANCH   3   7
ATOM      7  N   UNL     1       4.933  -5.889   0.565  0.00  0.00    -0.283 N 
ATOM      8  C   UNL     1       5.441  -6.218   1.904  0.00  0.00    +0.113 C 
ATOM      9  C   UNL     1       6.956  -6.427   1.793  0.00  0.00    +0.024 C 
ATOM     10  C   UNL     1       7.224  -7.626   0.883  0.00  0.00    +0.038 C 
ATOM     11  C   UNL     1       6.477  -7.478  -0.416  0.00  0.00    -0.026 A 
ATOM     12  C   UNL     1       5.376  -6.641  -0.529  0.00  0.00    +0.038 A 
ATOM     13  C   UNL     1       4.702  -6.534  -1.741  0.00  0.00    +0.024 A 
ATOM     14  C   UNL     1       5.125  -7.265  -2.833  0.00  0.00    +0.002 A 
ATOM     15  C   UNL     1       6.220  -8.102  -2.721  0.00  0.00    +0.000 A 
ATOM     16  C   UNL     1       6.899  -8.203  -1.518  0.00  0.00    +0.005 A 
ENDBRANCH   3   7
BRANCH   2  17
ATOM     17  N   UNL     1       5.839  -3.272   0.015  0.00  0.00    -0.353 N 
ATOM     18  H   UNL     1       6.138  -2.354  -0.077  0.00  0.00    +0.142 HD
ATOM     19  H   UNL     1       6.487  -3.994   0.037  0.00  0.00    +0.142 HD
ENDBRANCH   2  17
BRANCH   1  20
ATOM     20  S   UNL     1       4.004  -0.897  -0.397  0.00  0.00    -0.068 S 
BRANCH  20  24
ATOM     21  C   UNL     1       0.097   1.378  -0.655  0.00  0.00    +0.000 A 
ATOM     22  C   UNL     1       0.701   1.181   0.574  0.00  0.00    +0.001 A 
ATOM     23  C   UNL     1       1.892   0.488   0.656  0.00  0.00    +0.015 A 
ATOM     24  C   UNL     1       2.484  -0.013  -0.497  0.00  0.00    +0.014 A 
ATOM     25  C   UNL     1       1.874   0.187  -1.730  0.00  0.00    +0.015 A 
ATOM     26  C   UNL     1       0.683   0.881  -1.805  0.00  0.00    +0.001 A 
ENDBRANCH  20  24
ENDBRANCH   1  20
TORSDOF 4
