REMARK  Name = ZINC04007951
REMARK  4 active torsions:
REMARK  status: ('A' for Active; 'I' for Inactive)
REMARK    1  A    between atoms: C_1  and  O_2
REMARK    2  A    between atoms: O_2  and  C_3
REMARK    3  A    between atoms: C_10  and  C_19
REMARK    4  A    between atoms: C_22  and  N_25
REMARK                            x       y       z     vdW  Elec       q    Type
REMARK                         _______ _______ _______ _____ _____    ______ ____
ROOT
ATOM      1  C   UNL     1      -0.815   3.113  -3.345  0.00  0.00    +0.141 A 
ATOM      2  C   UNL     1      -2.189   2.964  -3.381  0.00  0.00    +0.047 A 
ATOM      3  C   UNL     1      -2.840   2.350  -2.326  0.00  0.00    +0.004 A 
ATOM      4  C   UNL     1      -2.120   1.889  -1.244  0.00  0.00    +0.006 A 
ATOM      5  C   UNL     1      -0.739   2.033  -1.196  0.00  0.00    -0.016 A 
ATOM      6  C   UNL     1      -0.084   2.647  -2.247  0.00  0.00    +0.074 A 
ATOM      7  N   UNL     1       1.302   2.825  -2.259  0.00  0.00    -0.334 N 
ATOM      8  C   UNL     1       1.994   1.831  -1.439  0.00  0.00    +0.105 C 
ATOM      9  C   UNL     1       1.473   1.905  -0.002  0.00  0.00    +0.029 C 
ATOM     10  C   UNL     1      -0.018   1.507   0.010  0.00  0.00    +0.049 C 
ATOM     11  C   UNL     1       0.002  -0.004   0.002  0.00  0.00    -0.023 C 
ATOM     12  C   UNL     1       1.159  -0.449   0.425  0.00  0.00    -0.030 C 
ATOM     13  C   UNL     1       2.074   0.705   0.784  0.00  0.00    +0.033 C 
ATOM     14  H   UNL     1       1.658   2.827  -3.203  0.00  0.00    +0.147 HD
ENDROOT
BRANCH   8  15
ATOM     15  C   UNL     1       3.475   2.112  -1.452  0.00  0.00    -0.027 A 
ATOM     16  C   UNL     1       3.932   3.415  -1.395  0.00  0.00    +0.008 A 
ATOM     17  C   UNL     1       5.290   3.672  -1.402  0.00  0.00    +0.033 A 
ATOM     18  C   UNL     1       6.191   2.627  -1.476  0.00  0.00    +0.126 A 
ATOM     19  C   UNL     1       5.734   1.324  -1.537  0.00  0.00    +0.033 A 
ATOM     20  C   UNL     1       4.376   1.066  -1.525  0.00  0.00    +0.008 A 
BRANCH  18  21
ATOM     21  N   UNL     1       7.645   2.903  -1.488  0.00  0.00    +0.056 N 
ATOM     22  O   UNL     1       8.439   1.981  -1.552  0.00  0.00    -0.126 OA
ATOM     23  O   UNL     1       8.048   4.051  -1.434  0.00  0.00    -0.126 OA
ENDBRANCH  18  21
ENDBRANCH   8  15
BRANCH   1  25
ATOM     24  C   UNL     1      -0.978   4.169  -5.469  0.00  0.00    +0.277 C 
ATOM     25  O   UNL     1      -0.171   3.716  -4.380  0.00  0.00    -0.493 OA
ENDBRANCH   1  25
TORSDOF 3
