REMARK  Name = ZINC18036648
REMARK  2 active torsions:
REMARK  status: ('A' for Active; 'I' for Inactive)
REMARK    1  A    between atoms: N_12  and  N_13
REMARK    2  A    between atoms: N_13  and  C_14
REMARK                            x       y       z     vdW  Elec       q    Type
REMARK                         _______ _______ _______ _____ _____    ______ ____
ROOT
ATOM      1  C   UNL     1       0.006   1.406  -0.353  0.00  0.00    +0.001 A 
ATOM      2  C   UNL     1       1.195   2.123  -0.334  0.00  0.00    +0.001 A 
ATOM      3  C   UNL     1       2.405   1.470  -0.241  0.00  0.00    +0.011 A 
ATOM      4  C   UNL     1       2.432   0.078  -0.166  0.00  0.00    +0.013 A 
ATOM      5  C   UNL     1       1.222  -0.650  -0.185  0.00  0.00    -0.016 A 
ATOM      6  C   UNL     1       0.008   0.042  -0.280  0.00  0.00    +0.008 A 
ATOM      7  C   UNL     1       1.248  -2.106  -0.108  0.00  0.00    +0.012 C 
ATOM      8  C   UNL     1       2.410  -2.786  -0.017  0.00  0.00    +0.054 C 
ATOM      9  C   UNL     1       3.657  -2.125   0.009  0.00  0.00    +0.206 C 
ATOM     10  O   UNL     1       4.691  -2.768   0.092  0.00  0.00    -0.286 OA
ATOM     11  C   UNL     1       3.705  -0.656  -0.066  0.00  0.00    +0.136 C 
ATOM     12  N   UNL     1       4.859  -0.014  -0.044  0.00  0.00    -0.178 NA
ENDROOT
BRANCH  12  13
ATOM     13  N   UNL     1       4.921   1.183   0.434  0.00  0.00    -0.237 N 
ATOM     14  H   UNL     1       4.145   1.574   0.865  0.00  0.00    +0.174 HD
BRANCH  13  15
ATOM     15  C   UNL     1       6.105   1.913   0.333  0.00  0.00    +0.048 A 
ATOM     16  C   UNL     1       7.216   1.355  -0.289  0.00  0.00    +0.026 A 
ATOM     17  C   UNL     1       8.387   2.081  -0.388  0.00  0.00    +0.017 A 
ATOM     18  C   UNL     1       8.454   3.362   0.131  0.00  0.00    +0.018 A 
ATOM     19  C   UNL     1       7.349   3.920   0.751  0.00  0.00    +0.017 A 
ATOM     20  C   UNL     1       6.175   3.202   0.848  0.00  0.00    +0.026 A 
ATOM     21 BR   UNL     1      10.059   4.353  -0.007  0.00  0.00    -0.050 Br
ENDBRANCH  13  15
ENDBRANCH  12  13
TORSDOF 2
