REMARK  Name = ZINC07573916
REMARK  6 active torsions:
REMARK  status: ('A' for Active; 'I' for Inactive)
REMARK    1  A    between atoms: C_1  and  C_2
REMARK    2  A    between atoms: C_5  and  N_26
REMARK    3  A    between atoms: C_7  and  N_8
REMARK    4  A    between atoms: C_9  and  C_11
REMARK    5  A    between atoms: N_16  and  C_18
REMARK    6  A    between atoms: C_18  and  C_19
REMARK                            x       y       z     vdW  Elec       q    Type
REMARK                         _______ _______ _______ _____ _____    ______ ____
ROOT
ATOM      1  C   UNL     1      -1.220   1.745   0.003  0.00  0.00    +0.053 A 
ATOM      2  C   UNL     1      -1.232   3.161   0.007  0.00  0.00    +0.020 A 
ATOM      3  C   UNL     1      -0.049   3.831  -0.011  0.00  0.00    +0.071 A 
ATOM      4  C   UNL     1       1.158   3.106  -0.029  0.00  0.00    +0.252 A 
ATOM      5  O   UNL     1       2.221   3.703  -0.045  0.00  0.00    -0.268 OA
ATOM      6  N   UNL     1       1.146   1.761  -0.028  0.00  0.00    -0.310 N 
ATOM      7  C   UNL     1      -0.013   1.077  -0.010  0.00  0.00    +0.102 A 
ENDROOT
BRANCH   1   9
ATOM      8  N   UNL     1      -3.663   1.650   0.028  0.00  0.00    -0.281 N 
ATOM      9  C   UNL     1      -2.487   0.991   0.016  0.00  0.00    +0.250 C 
ATOM     10  O   UNL     1      -2.470  -0.225   0.017  0.00  0.00    -0.270 OA
ATOM     11  H   UNL     1      -3.676   2.616   0.109  0.00  0.00    +0.155 HD
BRANCH   8  18
ATOM     12  C   UNL     1      -6.017   2.825   1.110  0.00  0.00    +0.045 C 
ATOM     13  C   UNL     1      -6.036   1.476   0.439  0.00  0.00    -0.029 A 
ATOM     14  C   UNL     1      -7.220   0.773   0.331  0.00  0.00    +0.007 A 
ATOM     15  C   UNL     1      -7.237  -0.467  -0.279  0.00  0.00    +0.033 A 
ATOM     16  C   UNL     1      -6.070  -1.006  -0.788  0.00  0.00    +0.128 A 
ATOM     17  C   UNL     1      -4.883  -0.307  -0.688  0.00  0.00    +0.056 A 
ATOM     18  C   UNL     1      -4.863   0.939  -0.075  0.00  0.00    +0.039 A 
BRANCH  16  19
ATOM     19  N   UNL     1      -6.092  -2.334  -1.441  0.00  0.00    +0.056 N 
ATOM     20  O   UNL     1      -5.065  -2.810  -1.890  0.00  0.00    -0.126 OA
ATOM     21  O   UNL     1      -7.139  -2.952  -1.530  0.00  0.00    -0.126 OA
ENDBRANCH  16  19
ENDBRANCH   8  18
ENDBRANCH   1   9
BRANCH   6  22
ATOM     22  C   UNL     1       2.415   1.029  -0.046  0.00  0.00    +0.160 C 
BRANCH  22  23
ATOM     23  C   UNL     1       2.829   0.777  -1.473  0.00  0.00    -0.027 A 
ATOM     24  C   UNL     1       2.426  -0.379  -2.115  0.00  0.00    +0.008 A 
ATOM     25  C   UNL     1       2.801  -0.609  -3.425  0.00  0.00    +0.038 A 
ATOM     26  C   UNL     1       3.590   0.313  -4.091  0.00  0.00    +0.123 A 
ATOM     27  C   UNL     1       3.998   1.468  -3.446  0.00  0.00    +0.038 A 
ATOM     28  C   UNL     1       3.617   1.699  -2.137  0.00  0.00    +0.008 A 
ATOM     29  F   UNL     1       3.961   0.087  -5.370  0.00  0.00    -0.205 F 
ENDBRANCH  22  23
ENDBRANCH   6  22
TORSDOF 5
