REMARK  Name = ZINC59444862
REMARK  3 active torsions:
REMARK  status: ('A' for Active; 'I' for Inactive)
REMARK    1  A    between atoms: C_1  and  C_2
REMARK    2  A    between atoms: N_13  and  N_14
REMARK    3  A    between atoms: C_15  and  C_17
REMARK                            x       y       z     vdW  Elec       q    Type
REMARK                         _______ _______ _______ _____ _____    ______ ____
ROOT
ATOM      1  C   UNL     1      -0.019   1.526   0.010  0.00  0.00    +0.020 C 
ATOM      2  C   UNL     1       0.002  -0.004   0.002  0.00  0.00    +0.033 C 
ATOM      3  C   UNL     1       0.684  -0.538  -1.270  0.00  0.00    +0.098 C 
ATOM      4  N   UNL     1       0.709  -1.979  -1.222  0.00  0.00    -0.300 NA
ATOM      5  C   UNL     1       1.795  -2.600  -0.509  0.00  0.00    +0.100 C 
ATOM      6  C   UNL     1       1.438  -2.909   0.912  0.00  0.00    +0.100 C 
ATOM      7  N   UNL     1       0.556  -1.948   1.529  0.00  0.00    -0.300 NA
ATOM      8  C   UNL     1       0.730  -0.543   1.221  0.00  0.00    +0.098 C 
ATOM      9  C   UNL     1      -0.832  -2.433   1.447  0.00  0.00    +0.095 C 
ATOM     10  C   UNL     1      -1.426  -2.091   0.080  0.00  0.00    +0.064 C 
ATOM     11  C   UNL     1      -0.578  -2.642  -1.062  0.00  0.00    +0.095 C 
ATOM     12  C   UNL     1      -1.415  -0.569  -0.001  0.00  0.00    +0.051 C 
ATOM     13  N   UNL     1      -2.471   0.149  -0.080  0.00  0.00    -0.188 NA
ENDROOT
BRANCH  13  14
ATOM     14  N   UNL     1      -3.733  -0.458  -0.076  0.00  0.00    -0.203 N 
ATOM     15  C   UNL     1      -4.846   0.298  -0.159  0.00  0.00    +0.263 C 
ATOM     16  O   UNL     1      -4.754   1.508  -0.238  0.00  0.00    -0.268 OA
ATOM     17  H   UNL     1      -3.807  -1.423  -0.013  0.00  0.00    +0.178 HD
BRANCH  15  18
ATOM     18  C   UNL     1      -6.177  -0.343  -0.155  0.00  0.00    +0.038 A 
ATOM     19  C   UNL     1      -6.286  -1.732  -0.059  0.00  0.00    +0.014 A 
ATOM     20  C   UNL     1      -7.531  -2.324  -0.055  0.00  0.00    +0.021 A 
ATOM     21  C   UNL     1      -8.672  -1.544  -0.146  0.00  0.00    +0.041 A 
ATOM     22  C   UNL     1      -8.571  -0.166  -0.242  0.00  0.00    +0.021 A 
ATOM     23  C   UNL     1      -7.331   0.438  -0.241  0.00  0.00    +0.014 A 
ATOM     24 CL   UNL     1     -10.236  -2.297  -0.142  0.00  0.00    -0.084 Cl
ENDBRANCH  15  18
ENDBRANCH  13  14
TORSDOF 2
