REMARK  Name = ZINC48396859
REMARK  5 active torsions:
REMARK  status: ('A' for Active; 'I' for Inactive)
REMARK    1  A    between atoms: C_1  and  C_2
REMARK    2  A    between atoms: C_8  and  N_10
REMARK    3  A    between atoms: N_13  and  C_14
REMARK    4  A    between atoms: N_13  and  C_15
REMARK    5  A    between atoms: C_15  and  C_16
REMARK                            x       y       z     vdW  Elec       q    Type
REMARK                         _______ _______ _______ _____ _____    ______ ____
ROOT
ATOM      1  N   UNL     1       0.056  -0.038   2.447  0.00  0.00    -0.296 N 
ATOM      2  C   UNL     1       0.738   0.093   3.602  0.00  0.00    +0.302 C 
ATOM      3  O   UNL     1       1.922  -0.180   3.644  0.00  0.00    -0.253 OA
ATOM      4  N   UNL     1       0.107   0.528   4.711  0.00  0.00    -0.284 N 
ATOM      5  C   UNL     1      -1.319   0.857   4.661  0.00  0.00    +0.134 C 
ATOM      6  H   UNL     1      -0.888   0.180   2.413  0.00  0.00    +0.151 HD
ENDROOT
BRANCH   1  13
ATOM      7  C   UNL     1      -0.019   1.526   0.010  0.00  0.00    +0.009 C 
ATOM      8  C   UNL     1       0.002  -0.004   0.002  0.00  0.00    +0.006 C 
ATOM      9  C   UNL     1      -1.433  -0.534   0.013  0.00  0.00    +0.005 C 
ATOM     10  C   UNL     1      -1.413  -2.063   0.004  0.00  0.00    +0.000 C 
ATOM     11  C   UNL     1      -0.673  -2.570   1.244  0.00  0.00    +0.002 C 
ATOM     12  C   UNL     1       0.763  -2.041   1.233  0.00  0.00    +0.022 C 
ATOM     13  C   UNL     1       0.742  -0.511   1.242  0.00  0.00    +0.077 C 
ENDBRANCH   1  13
BRANCH   4  14
ATOM     14  C   UNL     1       0.848   0.671   5.967  0.00  0.00    +0.144 C 
BRANCH  14  15
ATOM     15  C   UNL     1       1.424   2.061   6.055  0.00  0.00    -0.030 A 
ATOM     16  C   UNL     1       2.682   2.321   5.545  0.00  0.00    +0.006 A 
ATOM     17  C   UNL     1       3.210   3.596   5.625  0.00  0.00    +0.015 A 
ATOM     18  C   UNL     1       2.480   4.611   6.215  0.00  0.00    +0.018 A 
ATOM     19  C   UNL     1       1.221   4.350   6.725  0.00  0.00    +0.015 A 
ATOM     20  C   UNL     1       0.691   3.076   6.640  0.00  0.00    +0.006 A 
ATOM     21 BR   UNL     1       3.202   6.355   6.326  0.00  0.00    -0.050 Br
ENDBRANCH  14  15
ENDBRANCH   4  14
TORSDOF 3
