REMARK  Name = ZINC01712367
REMARK  3 active torsions:
REMARK  status: ('A' for Active; 'I' for Inactive)
REMARK    1  A    between atoms: C_1  and  O_2
REMARK    2  A    between atoms: O_2  and  C_3
REMARK    3  A    between atoms: N_5  and  C_6
REMARK                            x       y       z     vdW  Elec       q    Type
REMARK                         _______ _______ _______ _____ _____    ______ ____
ROOT
ATOM      1  C   UNL     1      -1.444   0.619   3.377  0.00  0.00    +0.400 C 
ATOM      2  O   UNL     1      -1.251   1.698   3.902  0.00  0.00    -0.226 OA
ATOM      3  N   UNL     1      -1.228   0.464   2.056  0.00  0.00    -0.277 N 
ATOM      4  H   UNL     1      -1.382  -0.398   1.637  0.00  0.00    +0.152 HD
ENDROOT
BRANCH   3   5
ATOM      5  C   UNL     1      -0.761   1.596   1.252  0.00  0.00    +0.089 C 
ATOM      6  C   UNL     1      -1.964   2.413   0.738  0.00  0.00    +0.023 C 
ATOM      7  C   UNL     1      -2.221   1.858  -0.685  0.00  0.00    +0.003 C 
ATOM      8  C   UNL     1      -0.786   1.611  -1.219  0.00  0.00    +0.016 C 
ATOM      9  C   UNL     1      -0.013   1.086   0.008  0.00  0.00    +0.072 C 
ATOM     10  I   UNL     1       2.008   1.853  -0.007  0.00  0.00    -0.080 I 
ENDBRANCH   3   5
BRANCH   1  12
ATOM     11  C   UNL     1      -2.085  -0.181   5.532  0.00  0.00    +0.282 C 
ATOM     12  O   UNL     1      -1.873  -0.421   4.116  0.00  0.00    -0.454 OA
ENDBRANCH   1  12
TORSDOF 2
