REMARK  Name = ZINC56946747
REMARK  11 active torsions:
REMARK  status: ('A' for Active; 'I' for Inactive)
REMARK    1  A    between atoms: C_1  and  C_2
REMARK    2  A    between atoms: C_5  and  C_28
REMARK    3  A    between atoms: N_8  and  C_10
REMARK    4  A    between atoms: C_10  and  C_11
REMARK    5  A    between atoms: C_11  and  C_13
REMARK    6  A    between atoms: C_11  and  N_14
REMARK    7  A    between atoms: N_17  and  C_18
REMARK    8  A    between atoms: C_18  and  C_19
REMARK    9  A    between atoms: C_22  and  O_27
REMARK   10  A    between atoms: C_23  and  O_25
REMARK   11  A    between atoms: O_25  and  C_26
REMARK                            x       y       z     vdW  Elec       q    Type
REMARK                         _______ _______ _______ _____ _____    ______ ____
ROOT
ATOM      1  N   UNL     1       2.109   1.674   3.488  0.00  0.00    -0.299 N 
ATOM      2  C   UNL     1       1.173   2.414   4.115  0.00  0.00    +0.300 C 
ATOM      3  O   UNL     1       0.351   1.874   4.831  0.00  0.00    -0.253 OA
ATOM      4  N   UNL     1       1.148   3.751   3.950  0.00  0.00    -0.295 N 
ATOM      5  H   UNL     1       2.765   2.105   2.918  0.00  0.00    +0.150 HD
ATOM      6  H   UNL     1       1.804   4.181   3.379  0.00  0.00    +0.151 HD
ENDROOT
BRANCH   1   7
ATOM      7  C   UNL     1       2.136   0.221   3.668  0.00  0.00    +0.055 C 
ATOM      8  C   UNL     1       2.924  -0.122   4.934  0.00  0.00    +0.026 C 
BRANCH   7   9
ATOM      9  C   UNL     1       2.808  -0.431   2.458  0.00  0.00    -0.057 C 
BRANCH   9  15
ATOM     10  C   UNL     1      -0.019   1.526   0.010  0.00  0.00    +0.005 C 
ATOM     11  C   UNL     1       0.002  -0.004   0.002  0.00  0.00    -0.031 C 
ATOM     12  C   UNL     1       0.721  -0.499  -1.257  0.00  0.00    +0.003 C 
ATOM     13  C   UNL     1       2.177  -0.027  -1.220  0.00  0.00    -0.031 C 
ATOM     14  C   UNL     1       2.839  -0.534   0.063  0.00  0.00    -0.076 C 
ATOM     15  N   UNL     1       2.123  -0.005   1.230  0.00  0.00    +0.381 N 
ATOM     16  C   UNL     1       0.744  -0.512   1.240  0.00  0.00    -0.076 C 
ATOM     17  C   UNL     1       2.924  -0.581  -2.434  0.00  0.00    +0.005 C 
ATOM     18  H   UNL     1       2.109   1.003   1.187  0.00  0.00    -0.082 HD
ENDBRANCH   9  15
ENDBRANCH   7   9
ENDBRANCH   1   7
BRANCH   4  19
ATOM     19  C   UNL     1       0.130   4.555   4.631  0.00  0.00    +0.141 C 
BRANCH  19  20
ATOM     20  C   UNL     1       0.321   6.008   4.282  0.00  0.00    -0.027 A 
ATOM     21  C   UNL     1       1.145   6.802   5.058  0.00  0.00    +0.009 A 
ATOM     22  C   UNL     1       1.323   8.136   4.741  0.00  0.00    +0.049 A 
ATOM     23  C   UNL     1       0.675   8.680   3.644  0.00  0.00    +0.158 A 
ATOM     24  C   UNL     1      -0.154   7.881   2.862  0.00  0.00    +0.162 A 
ATOM     25  C   UNL     1      -0.324   6.543   3.182  0.00  0.00    +0.054 A 
BRANCH  24  26
ATOM     26  O   UNL     1      -0.792   8.410   1.784  0.00  0.00    -0.491 OA
ATOM     27  C   UNL     1      -1.627   7.530   1.028  0.00  0.00    +0.277 C 
ENDBRANCH  24  26
BRANCH  23  28
ATOM     28  O   UNL     1       0.849   9.992   3.331  0.00  0.00    -0.503 OA
ATOM     29  H   UNL     1       1.587  10.159   2.729  0.00  0.00    +0.292 HD
ENDBRANCH  23  28
ENDBRANCH  19  20
ENDBRANCH   4  19
TORSDOF 7
