REMARK  Name = ZINC36265627
REMARK  6 active torsions:
REMARK  status: ('A' for Active; 'I' for Inactive)
REMARK    1  A    between atoms: C_1  and  C_2
REMARK    2  A    between atoms: C_2  and  C_3
REMARK    3  A    between atoms: C_2  and  C_4
REMARK    4  A    between atoms: C_2  and  C_5
REMARK    5  A    between atoms: C_8  and  S_11
REMARK    6  A    between atoms: S_11  and  N_14
REMARK                            x       y       z     vdW  Elec       q    Type
REMARK                         _______ _______ _______ _____ _____    ______ ____
ROOT
ATOM      1  S   UNL     1       2.826  -1.950  -4.962  0.00  0.00    +0.061 S 
ATOM      2  O   UNL     1       4.217  -1.937  -4.669  0.00  0.00    -0.153 OA
ATOM      3  O   UNL     1       2.148  -3.127  -5.380  0.00  0.00    -0.153 OA
ENDROOT
BRANCH   1   4
ATOM      4  N   UNL     1       2.580  -0.816  -6.143  0.00  0.00    -0.175 NA
ATOM      5  C   UNL     1       1.453  -0.799  -7.093  0.00  0.00    +0.110 C 
ATOM      6  C   UNL     1       1.305   0.687  -7.503  0.00  0.00    +0.020 C 
ATOM      7  C   UNL     1       2.782   1.151  -7.559  0.00  0.00    -0.010 C 
ATOM      8  C   UNL     1       3.445   0.340  -6.412  0.00  0.00    +0.064 C 
ATOM      9  C   UNL     1       3.376   1.309  -5.207  0.00  0.00    -0.062 C 
ATOM     10  N   UNL     1       3.587   2.644  -5.820  0.00  0.00    +0.380 N 
ATOM     11  C   UNL     1       2.856   2.624  -7.122  0.00  0.00    -0.078 C 
ATOM     12  H   UNL     1       3.219   3.366  -5.219  0.00  0.00    -0.086 HD
ATOM     13  H   UNL     1       4.570   2.798  -5.988  0.00  0.00    -0.086 HD
ENDBRANCH   1   4
BRANCH   1  17
ATOM     14  C   UNL     1       0.707  -0.490  -1.238  0.00  0.00    -0.042 A 
ATOM     15  C   UNL     1       0.036  -1.284  -2.148  0.00  0.00    +0.006 A 
ATOM     16  C   UNL     1       0.683  -1.730  -3.286  0.00  0.00    +0.029 A 
ATOM     17  C   UNL     1       2.001  -1.381  -3.513  0.00  0.00    +0.106 A 
ATOM     18  C   UNL     1       2.672  -0.586  -2.603  0.00  0.00    +0.029 A 
ATOM     19  C   UNL     1       2.024  -0.137  -1.467  0.00  0.00    +0.006 A 
BRANCH  14  21
ATOM     20  C   UNL     1      -0.019   1.526   0.010  0.00  0.00    +0.015 C 
ATOM     21  C   UNL     1       0.002  -0.004   0.002  0.00  0.00    -0.013 C 
ATOM     22  C   UNL     1       0.742  -0.511   1.242  0.00  0.00    +0.015 C 
ATOM     23  C   UNL     1      -1.433  -0.534   0.013  0.00  0.00    +0.015 C 
ENDBRANCH  14  21
ENDBRANCH   1  17
TORSDOF 3
