REMARK  Name = ZINC49340383
REMARK  5 active torsions:
REMARK  status: ('A' for Active; 'I' for Inactive)
REMARK    1  A    between atoms: C_1  and  C_2
REMARK    2  A    between atoms: N_11  and  C_12
REMARK    3  A    between atoms: C_12  and  C_14
REMARK    4  A    between atoms: C_12  and  C_15
REMARK    5  A    between atoms: C_15  and  C_16
REMARK                            x       y       z     vdW  Elec       q    Type
REMARK                         _______ _______ _______ _____ _____    ______ ____
ROOT
ATOM      1  C   UNL     1       0.015   1.528  -0.010  0.00  0.00    +0.028 C 
ATOM      2  C   UNL     1       0.017  -0.003  -0.007  0.00  0.00    +0.074 C 
ATOM      3  C   UNL     1       0.633  -0.518  -1.312  0.00  0.00    +0.022 C 
ATOM      4  C   UNL     1       0.760  -2.041  -1.245  0.00  0.00    +0.003 C 
ATOM      5  C   UNL     1       1.684  -2.428  -0.088  0.00  0.00    +0.019 C 
ATOM      6  C   UNL     1       1.079  -1.934   1.230  0.00  0.00    +0.109 C 
ATOM      7  N   UNL     1       0.817  -0.492   1.123  0.00  0.00    -0.283 N 
ATOM      8  C   UNL     1       1.304   0.365   2.042  0.00  0.00    +0.303 C 
ATOM      9  O   UNL     1       0.995   1.540   2.001  0.00  0.00    -0.253 OA
ATOM     10  N   UNL     1       2.134  -0.080   3.006  0.00  0.00    -0.296 N 
ATOM     11  H   UNL     1       2.440  -1.001   2.995  0.00  0.00    +0.151 HD
ENDROOT
BRANCH  10  12
ATOM     12  C   UNL     1       2.574   0.826   4.070  0.00  0.00    +0.076 C 
ATOM     13  C   UNL     1       3.792   1.620   3.592  0.00  0.00    +0.028 C 
BRANCH  12  14
ATOM     14  C   UNL     1       2.950   0.012   5.309  0.00  0.00    +0.057 C 
BRANCH  14  15
ATOM     15  C   UNL     1       1.723  -0.673   5.852  0.00  0.00    -0.046 A 
ATOM     16  C   UNL     1       0.932  -0.035   6.789  0.00  0.00    +0.005 A 
ATOM     17  C   UNL     1      -0.195  -0.663   7.286  0.00  0.00    +0.015 A 
ATOM     18  C   UNL     1      -0.530  -1.931   6.847  0.00  0.00    +0.018 A 
ATOM     19  C   UNL     1       0.261  -2.569   5.909  0.00  0.00    +0.015 A 
ATOM     20  C   UNL     1       1.385  -1.938   5.409  0.00  0.00    +0.005 A 
ATOM     21 BR   UNL     1      -2.071  -2.790   7.527  0.00  0.00    -0.050 Br
ENDBRANCH  14  15
ENDBRANCH  12  14
ENDBRANCH  10  12
TORSDOF 3
