REMARK  Name = ZINC00195125
REMARK  2 active torsions:
REMARK  status: ('A' for Active; 'I' for Inactive)
REMARK    1  A    between atoms: C_15  and  C_17
REMARK    2  A    between atoms: C_21  and  N_23
REMARK                            x       y       z     vdW  Elec       q    Type
REMARK                         _______ _______ _______ _____ _____    ______ ____
ROOT
ATOM      1  C   UNL     1      -0.016   1.357   0.009  0.00  0.00    +0.001 A 
ATOM      2  C   UNL     1       1.169   2.090   0.002  0.00  0.00    +0.001 A 
ATOM      3  C   UNL     1       2.378   1.466  -0.012  0.00  0.00    +0.010 A 
ATOM      4  C   UNL     1       2.437   0.064  -0.019  0.00  0.00    +0.004 A 
ATOM      5  C   UNL     1       1.233  -0.683  -0.013  0.00  0.00    -0.016 A 
ATOM      6  C   UNL     1       0.002  -0.004   0.002  0.00  0.00    +0.008 A 
ATOM      7  C   UNL     1       1.291  -2.087  -0.021  0.00  0.00    +0.009 A 
ATOM      8  C   UNL     1       2.497  -2.718  -0.034  0.00  0.00    +0.006 A 
ATOM      9  C   UNL     1       3.688  -1.996  -0.039  0.00  0.00    -0.018 A 
ATOM     10  C   UNL     1       3.672  -0.618  -0.033  0.00  0.00    +0.045 A 
ATOM     11  N   UNL     1       4.869   0.098  -0.038  0.00  0.00    -0.285 N 
ATOM     12  C   UNL     1       6.016  -0.490  -0.424  0.00  0.00    +0.218 C 
ATOM     13  O   UNL     1       7.050   0.144  -0.416  0.00  0.00    -0.275 OA
ATOM     14  C   UNL     1       6.026  -1.929  -0.866  0.00  0.00    +0.109 C 
ATOM     15  C   UNL     1       5.007  -2.727  -0.052  0.00  0.00    +0.060 C 
ATOM     16  H   UNL     1       4.874   1.028   0.238  0.00  0.00    +0.155 HD
ENDROOT
BRANCH  15  17
ATOM     17  C   UNL     1       5.506  -2.888   1.361  0.00  0.00    -0.037 A 
ATOM     18  C   UNL     1       5.745  -1.771   2.141  0.00  0.00    +0.004 A 
ATOM     19  C   UNL     1       6.202  -1.919   3.437  0.00  0.00    +0.003 A 
ATOM     20  C   UNL     1       6.420  -3.182   3.954  0.00  0.00    +0.033 A 
ATOM     21  C   UNL     1       6.180  -4.298   3.174  0.00  0.00    +0.126 A 
ATOM     22  C   UNL     1       5.718  -4.151   1.879  0.00  0.00    +0.037 A 
BRANCH  21  23
ATOM     23  N   UNL     1       6.414  -5.651   3.727  0.00  0.00    +0.056 N 
ATOM     24  O   UNL     1       6.815  -5.780   4.861  0.00  0.00    -0.126 OA
ATOM     25  O   UNL     1       6.204  -6.627   3.046  0.00  0.00    -0.126 OA
ENDBRANCH  21  23
ENDBRANCH  15  17
TORSDOF 2
