REMARK  Name = ZINC66175502
REMARK  7 active torsions:
REMARK  status: ('A' for Active; 'I' for Inactive)
REMARK    1  A    between atoms: C_1  and  C_2
REMARK    2  A    between atoms: C_5  and  S_8
REMARK    3  A    between atoms: S_8  and  C_9
REMARK    4  A    between atoms: C_9  and  C_10
REMARK    5  A    between atoms: C_10  and  N_11
REMARK    6  A    between atoms: N_14  and  C_15
REMARK    7  A    between atoms: N_14  and  C_16
REMARK                            x       y       z     vdW  Elec       q    Type
REMARK                         _______ _______ _______ _____ _____    ______ ____
ROOT
ATOM      1  N   UNL     1       0.045  -6.868   3.292  0.00  0.00    -0.298 N 
ATOM      2  C   UNL     1       0.086  -8.165   3.656  0.00  0.00    +0.302 C 
ATOM      3  O   UNL     1       0.118  -9.035   2.807  0.00  0.00    -0.253 OA
ATOM      4  N   UNL     1       0.091  -8.499   4.962  0.00  0.00    -0.286 N 
ATOM      5  C   UNL     1       0.052  -7.451   5.986  0.00  0.00    +0.134 C 
ATOM      6  H   UNL     1       0.019  -6.175   3.970  0.00  0.00    +0.150 HD
ENDROOT
BRANCH   4   7
ATOM      7  C   UNL     1       0.135  -9.908   5.358  0.00  0.00    +0.080 C 
ATOM      8  C   UNL     1       1.391 -10.164   6.195  0.00  0.00    +0.041 C 
ATOM      9  C   UNL     1       1.452 -11.646   6.578  0.00  0.00    +0.108 C 
ATOM     10  N   UNL     1       0.196 -12.013   7.246  0.00  0.00    -0.317 N 
ATOM     11  C   UNL     1      -1.075 -11.728   6.568  0.00  0.00    +0.108 C 
ATOM     12  C   UNL     1      -1.108 -10.245   6.185  0.00  0.00    +0.041 C 
ATOM     13  C   UNL     1       0.211 -12.620   8.497  0.00  0.00    +0.099 A 
ATOM     14  C   UNL     1       1.424 -12.995   9.067  0.00  0.00    +0.042 A 
ATOM     15  C   UNL     1       1.424 -13.598  10.312  0.00  0.00    +0.005 A 
ATOM     16  C   UNL     1       0.207 -13.806  10.947  0.00  0.00    +0.018 A 
ATOM     17  C   UNL     1      -0.959 -13.408  10.324  0.00  0.00    +0.084 A 
ATOM     18  N   UNL     1      -0.928 -12.830   9.138  0.00  0.00    -0.350 N 
ATOM     19  H   UNL     1      -1.761 -12.557   8.723  0.00  0.00    +0.166 HD
ENDBRANCH   4   7
BRANCH   1  20
ATOM     20  C   UNL     1       0.040  -6.506   1.872  0.00  0.00    +0.116 C 
BRANCH  20  21
ATOM     21  C   UNL     1      -0.010  -4.983   1.735  0.00  0.00    +0.093 C 
BRANCH  21  22
ATOM     22  S   UNL     1      -0.017  -4.535  -0.023  0.00  0.00    -0.124 S 
BRANCH  22  27
ATOM     23  C   UNL     1      -0.217   1.498   0.011  0.00  0.00    +0.044 C 
ATOM     24  C   UNL     1      -0.166  -0.008   0.002  0.00  0.00    -0.050 A 
ATOM     25  C   UNL     1      -0.138  -0.691  -1.200  0.00  0.00    +0.004 A 
ATOM     26  C   UNL     1      -0.092  -2.071  -1.212  0.00  0.00    +0.015 A 
ATOM     27  C   UNL     1      -0.074  -2.773  -0.013  0.00  0.00    +0.008 A 
ATOM     28  C   UNL     1      -0.103  -2.084   1.193  0.00  0.00    +0.015 A 
ATOM     29  C   UNL     1      -0.143  -0.704   1.197  0.00  0.00    +0.004 A 
ENDBRANCH  22  27
ENDBRANCH  21  22
ENDBRANCH  20  21
ENDBRANCH   1  20
TORSDOF 5
