REMARK  Name = ZINC43820306
REMARK  6 active torsions:
REMARK  status: ('A' for Active; 'I' for Inactive)
REMARK    1  A    between atoms: C_1  and  N_2
REMARK    2  A    between atoms: N_2  and  C_3
REMARK    3  A    between atoms: C_3  and  C_4
REMARK    4  A    between atoms: N_17  and  C_18
REMARK    5  A    between atoms: C_20  and  S_25
REMARK    6  A    between atoms: S_25  and  C_28
REMARK                            x       y       z     vdW  Elec       q    Type
REMARK                         _______ _______ _______ _____ _____    ______ ____
ROOT
ATOM      1  C   UNL     1       0.008   1.462   0.009  0.00  0.00    +0.133 C 
ATOM      2  N   UNL     1       0.019  -0.003   0.002  0.00  0.00    -0.285 N 
ATOM      3  C   UNL     1       0.005  -0.671  -1.169  0.00  0.00    +0.306 C 
ATOM      4  O   UNL     1       0.014  -1.887  -1.175  0.00  0.00    -0.252 OA
ATOM      5  N   UNL     1      -0.020   0.009  -2.332  0.00  0.00    -0.267 N 
ATOM      6  H   UNL     1      -0.110   0.974  -2.328  0.00  0.00    +0.156 HD
ENDROOT
BRANCH   5   7
ATOM      7  C   UNL     1       0.083  -0.680  -3.548  0.00  0.00    +0.072 A 
ATOM      8  C   UNL     1       0.706  -1.920  -3.594  0.00  0.00    +0.053 A 
ATOM      9  C   UNL     1       0.806  -2.596  -4.794  0.00  0.00    +0.090 A 
ATOM     10  C   UNL     1       0.288  -2.041  -5.950  0.00  0.00    +0.030 A 
ATOM     11  C   UNL     1      -0.332  -0.806  -5.909  0.00  0.00    +0.042 A 
ATOM     12  C   UNL     1      -0.442  -0.125  -4.710  0.00  0.00    +0.145 A 
ATOM     13  F   UNL     1      -1.053   1.079  -4.668  0.00  0.00    -0.204 F 
BRANCH   9  14
ATOM     14  S   UNL     1       1.597  -4.170  -4.853  0.00  0.00    -0.006 S 
ATOM     15  O   UNL     1       2.073  -4.287  -6.187  0.00  0.00    -0.170 OA
ATOM     16  O   UNL     1       2.503  -4.162  -3.759  0.00  0.00    -0.170 OA
ATOM     17  C   UNL     1       0.269  -5.370  -4.556  0.00  0.00    +0.200 C 
ENDBRANCH   9  14
ENDBRANCH   5   7
BRANCH   2  18
ATOM     18  C   UNL     1       0.047  -0.742   1.267  0.00  0.00    +0.157 C 
BRANCH  18  19
ATOM     19  C   UNL     1      -1.386  -1.010   1.731  0.00  0.00    +0.228 C 
ATOM     20  C   UNL     1      -1.364  -1.772   3.064  0.00  0.00    +0.275 C 
ATOM     21  O   UNL     1      -2.717  -1.993   3.476  0.00  0.00    -0.485 OA
ATOM     22  C   UNL     1      -3.562  -0.929   3.399  0.00  0.00    +0.162 A 
ATOM     23  C   UNL     1      -4.757  -0.956   4.102  0.00  0.00    +0.049 A 
ATOM     24  C   UNL     1      -5.627   0.116   4.031  0.00  0.00    +0.004 A 
ATOM     25  C   UNL     1      -5.308   1.218   3.260  0.00  0.00    +0.004 A 
ATOM     26  C   UNL     1      -4.118   1.252   2.558  0.00  0.00    +0.049 A 
ATOM     27  C   UNL     1      -3.240   0.180   2.626  0.00  0.00    +0.163 A 
ATOM     28  O   UNL     1      -2.068   0.232   1.935  0.00  0.00    -0.480 OA
ENDBRANCH  18  19
ENDBRANCH   2  18
TORSDOF 4
