REMARK  Name = ZINC15880156
REMARK  4 active torsions:
REMARK  status: ('A' for Active; 'I' for Inactive)
REMARK    1  A    between atoms: C_1  and  C_2
REMARK    2  A    between atoms: C_2  and  N_3
REMARK    3  A    between atoms: C_12  and  C_14
REMARK    4  A    between atoms: C_18  and  C_20
REMARK                            x       y       z     vdW  Elec       q    Type
REMARK                         _______ _______ _______ _____ _____    ______ ____
ROOT
ATOM      1  N   UNL     1       0.713  -0.491   1.192  0.00  0.00    -0.297 NA
ATOM      2  C   UNL     1       0.954  -1.938   1.106  0.00  0.00    +0.091 C 
ATOM      3  C   UNL     1       2.000  -2.365   2.140  0.00  0.00    +0.071 C 
ATOM      4  C   UNL     1       1.568  -1.831   3.499  0.00  0.00    +0.056 A 
ATOM      5  C   UNL     1       0.646  -0.834   3.567  0.00  0.00    +0.028 A 
ATOM      6  S   UNL     1       0.485  -0.577   5.311  0.00  0.00    -0.055 S 
ATOM      7  C   UNL     1       1.593  -1.746   5.808  0.00  0.00    +0.165 A 
ATOM      8  N   UNL     1       2.018  -2.259   4.673  0.00  0.00    -0.229 NA
ATOM      9  N   UNL     1       1.967  -2.086   7.102  0.00  0.00    -0.261 N 
ATOM     10  C   UNL     1       2.878  -3.058   7.306  0.00  0.00    +0.250 C 
ATOM     11  O   UNL     1       3.373  -3.636   6.359  0.00  0.00    -0.270 OA
ATOM     12  C   UNL     1      -0.029  -0.156   2.425  0.00  0.00    +0.128 C 
ATOM     13  H   UNL     1       1.572  -1.624   7.858  0.00  0.00    +0.157 HD
ENDROOT
BRANCH  10  14
ATOM     14  C   UNL     1       3.276  -3.419   8.683  0.00  0.00    +0.037 A 
ATOM     15  C   UNL     1       2.705  -2.760   9.774  0.00  0.00    +0.013 A 
ATOM     16  C   UNL     1       3.081  -3.103  11.056  0.00  0.00    +0.001 A 
ATOM     17  C   UNL     1       4.021  -4.098  11.263  0.00  0.00    +0.003 A 
ATOM     18  C   UNL     1       4.590  -4.754  10.187  0.00  0.00    -0.050 A 
ATOM     19  C   UNL     1       4.220  -4.425   8.899  0.00  0.00    +0.016 A 
ATOM     20  C   UNL     1       5.614  -5.835  10.421  0.00  0.00    +0.044 C 
ENDBRANCH  10  14
BRANCH   1  22
ATOM     21  C   UNL     1      -0.019   1.526   0.010  0.00  0.00    +0.020 C 
ATOM     22  C   UNL     1       0.002  -0.004   0.002  0.00  0.00    +0.081 C 
ENDBRANCH   1  22
TORSDOF 2
