REMARK  Name = ZINC58391382
REMARK  6 active torsions:
REMARK  status: ('A' for Active; 'I' for Inactive)
REMARK    1  A    between atoms: C_1  and  C_2
REMARK    2  A    between atoms: C_5  and  C_11
REMARK    3  A    between atoms: C_6  and  C_10
REMARK    4  A    between atoms: C_12  and  C_13
REMARK    5  A    between atoms: C_12  and  S_15
REMARK    6  A    between atoms: S_15  and  C_18
REMARK                            x       y       z     vdW  Elec       q    Type
REMARK                         _______ _______ _______ _____ _____    ______ ____
ROOT
ATOM      1  C   UNL     1      -3.196  -3.625   0.224  0.00  0.00    +0.066 C 
ATOM      2  C   UNL     1      -3.838  -4.514  -0.580  0.00  0.00    +0.172 C 
ENDROOT
BRANCH   1   7
ATOM      3  C   UNL     1      -1.686  -1.011  -4.731  0.00  0.00    +0.053 C 
ATOM      4  C   UNL     1      -1.277  -1.551  -3.385  0.00  0.00    +0.007 A 
ATOM      5  C   UNL     1      -2.026  -2.140  -2.452  0.00  0.00    +0.104 A 
ATOM      6  N   UNL     1      -1.469  -2.573  -1.272  0.00  0.00    -0.293 N 
ATOM      7  C   UNL     1      -1.885  -3.208  -0.089  0.00  0.00    +0.072 A 
ATOM      8  C   UNL     1      -0.764  -3.347   0.708  0.00  0.00    +0.065 A 
ATOM      9  N   UNL     1       0.271  -2.829   0.054  0.00  0.00    -0.226 NA
ATOM     10  C   UNL     1      -0.127  -2.373  -1.106  0.00  0.00    +0.178 A 
ATOM     11  S   UNL     1       0.340  -1.577  -2.626  0.00  0.00    -0.055 S 
ATOM     12  C   UNL     1      -0.724  -3.975   2.077  0.00  0.00    +0.068 C 
ENDBRANCH   1   7
BRANCH   2  13
ATOM     13  S   UNL     1      -2.952  -5.350  -1.853  0.00  0.00    +0.036 S 
ATOM     14  O   UNL     1      -3.684  -5.153  -3.055  0.00  0.00    -0.164 OA
ATOM     15  O   UNL     1      -1.590  -4.966  -1.719  0.00  0.00    -0.164 OA
BRANCH  13  16
ATOM     16  C   UNL     1      -3.026  -7.073  -1.494  0.00  0.00    +0.114 A 
ATOM     17  C   UNL     1      -3.706  -7.927  -2.342  0.00  0.00    +0.049 A 
ATOM     18  C   UNL     1      -3.764  -9.280  -2.061  0.00  0.00    +0.043 A 
ATOM     19  C   UNL     1      -3.143  -9.779  -0.930  0.00  0.00    +0.021 A 
ATOM     20  C   UNL     1      -2.463  -8.925  -0.082  0.00  0.00    +0.023 A 
ATOM     21  C   UNL     1      -2.400  -7.573  -0.366  0.00  0.00    +0.066 A 
ATOM     22 CL   UNL     1      -1.540  -6.502   0.695  0.00  0.00    -0.082 Cl
ATOM     23 CL   UNL     1      -4.619 -10.352  -3.126  0.00  0.00    -0.083 Cl
ENDBRANCH  13  16
ENDBRANCH   2  13
BRANCH   2  24
ATOM     24  C   UNL     1      -5.234  -4.770  -0.393  0.00  0.00    +0.119 C 
ATOM     25  N   UNL     1      -6.342  -4.974  -0.245  0.00  0.00    -0.189 NA
ENDBRANCH   2  24
TORSDOF 4
