REMARK  Name = ZINC50131555
REMARK  8 active torsions:
REMARK  status: ('A' for Active; 'I' for Inactive)
REMARK    1  A    between atoms: C_1  and  C_2
REMARK    2  A    between atoms: C_5  and  C_20
REMARK    3  A    between atoms: N_12  and  C_13
REMARK    4  A    between atoms: C_13  and  C_14
REMARK    5  A    between atoms: C_14  and  C_16
REMARK    6  A    between atoms: C_16  and  C_17
REMARK    7  A    between atoms: C_16  and  C_18
REMARK    8  A    between atoms: C_16  and  C_19
REMARK                            x       y       z     vdW  Elec       q    Type
REMARK                         _______ _______ _______ _____ _____    ______ ____
ROOT
ATOM      1  C   UNL     1       0.031   1.507  -0.075  0.00  0.00    +0.044 C 
ATOM      2  C   UNL     1       0.072   0.001  -0.109  0.00  0.00    -0.038 A 
ATOM      3  C   UNL     1      -0.092  -0.670  -1.304  0.00  0.00    +0.004 A 
ATOM      4  C   UNL     1      -0.054  -2.054  -1.334  0.00  0.00    +0.005 A 
ATOM      5  C   UNL     1       0.145  -2.780  -0.174  0.00  0.00    -0.028 A 
ATOM      6  C   UNL     1       0.312  -2.125   1.039  0.00  0.00    +0.051 A 
ATOM      7  C   UNL     1       0.280  -0.721   1.065  0.00  0.00    +0.051 A 
ATOM      8  C   UNL     1       0.490  -0.322   2.469  0.00  0.00    +0.250 C 
ATOM      9  O   UNL     1       0.527   0.804   2.921  0.00  0.00    -0.282 OA
ATOM     10  C   UNL     1       0.647  -1.613   3.216  0.00  0.00    +0.292 C 
ATOM     11  O   UNL     1       0.839  -1.733   4.408  0.00  0.00    -0.266 OA
ATOM     12  N   UNL     1       0.523  -2.613   2.327  0.00  0.00    -0.257 N 
ATOM     13  C   UNL     1       0.183  -4.285  -0.227  0.00  0.00    +0.046 C 
ENDROOT
BRANCH  12  14
ATOM     14  C   UNL     1       0.617  -4.035   2.666  0.00  0.00    +0.188 C 
BRANCH  14  15
ATOM     15  C   UNL     1      -0.761  -4.577   2.943  0.00  0.00    +0.156 C 
ATOM     16  O   UNL     1      -1.723  -3.851   2.866  0.00  0.00    -0.295 OA
BRANCH  15  17
ATOM     17  C   UNL     1      -0.940  -6.026   3.317  0.00  0.00    +0.022 C 
ATOM     18  C   UNL     1      -2.425  -6.315   3.544  0.00  0.00    +0.018 C 
ATOM     19  C   UNL     1      -0.414  -6.913   2.187  0.00  0.00    +0.018 C 
ATOM     20  C   UNL     1      -0.161  -6.321   4.601  0.00  0.00    +0.018 C 
ENDBRANCH  15  17
ENDBRANCH  14  15
ENDBRANCH  12  14
TORSDOF 3
