REMARK  Name = ZINC11228884
REMARK  3 active torsions:
REMARK  status: ('A' for Active; 'I' for Inactive)
REMARK    1  A    between atoms: C_2  and  N_11
REMARK    2  A    between atoms: C_12  and  C_14
REMARK    3  A    between atoms: C_14  and  N_15
REMARK                            x       y       z     vdW  Elec       q    Type
REMARK                         _______ _______ _______ _____ _____    ______ ____
ROOT
ATOM      1  N   UNL     1       2.403   1.102  -0.015  0.00  0.00    -0.283 N 
ATOM      2  C   UNL     1       2.425  -0.242   0.078  0.00  0.00    +0.235 C 
ATOM      3  O   UNL     1       1.385  -0.866   0.085  0.00  0.00    -0.274 OA
ATOM      4  H   UNL     1       3.234   1.596  -0.102  0.00  0.00    +0.155 HD
ENDROOT
BRANCH   1   6
ATOM      5  C   UNL     1       0.077   1.213   0.627  0.00  0.00    +0.074 A 
ATOM      6  C   UNL     1       1.181   1.787   0.011  0.00  0.00    +0.056 A 
ATOM      7  C   UNL     1       1.073   3.040  -0.578  0.00  0.00    +0.066 A 
ATOM      8  C   UNL     1      -0.133   3.716  -0.553  0.00  0.00    +0.071 A 
ATOM      9  C   UNL     1      -1.236   3.146   0.061  0.00  0.00    +0.168 A 
ATOM     10  C   UNL     1      -1.132   1.887   0.648  0.00  0.00    +0.168 A 
ATOM     11  O   UNL     1      -2.344   1.554   1.183  0.00  0.00    -0.453 OA
ATOM     12  C   UNL     1      -3.081   2.788   1.269  0.00  0.00    +0.466 C 
ATOM     13  O   UNL     1      -2.516   3.597   0.221  0.00  0.00    -0.453 OA
ATOM     14 CL   UNL     1       2.454   3.757  -1.349  0.00  0.00    -0.082 Cl
ENDBRANCH   1   6
BRANCH   2  15
ATOM     15  C   UNL     1       3.741  -0.969   0.175  0.00  0.00    +0.212 C 
BRANCH  15  16
ATOM     16  N   UNL     1       3.497  -2.411   0.266  0.00  0.00    -0.233 N 
ATOM     17  C   UNL     1       3.416  -3.203  -0.811  0.00  0.00    +0.223 C 
ATOM     18  O   UNL     1       3.531  -2.837  -1.962  0.00  0.00    -0.275 OA
ATOM     19  C   UNL     1       3.158  -4.626  -0.365  0.00  0.00    +0.112 C 
ATOM     20  C   UNL     1       3.105  -4.514   1.168  0.00  0.00    +0.056 C 
ATOM     21  C   UNL     1       3.341  -3.048   1.435  0.00  0.00    +0.229 C 
ATOM     22  O   UNL     1       3.382  -2.530   2.530  0.00  0.00    -0.275 OA
ATOM     23  C   UNL     1       4.209  -5.356   1.798  0.00  0.00    +0.016 C 
ATOM     24  C   UNL     1       4.156  -5.217   3.321  0.00  0.00    +0.001 C 
ATOM     25  C   UNL     1       2.787  -5.679   3.826  0.00  0.00    +0.000 C 
ATOM     26  C   UNL     1       1.693  -4.808   3.206  0.00  0.00    +0.001 C 
ATOM     27  C   UNL     1       1.736  -4.945   1.682  0.00  0.00    +0.016 C 
ENDBRANCH  15  16
ENDBRANCH   2  15
TORSDOF 3
