REMARK  Name = ZINC33255309
REMARK  5 active torsions:
REMARK  status: ('A' for Active; 'I' for Inactive)
REMARK    1  A    between atoms: C_1  and  C_2
REMARK    2  A    between atoms: C_5  and  N_8
REMARK    3  A    between atoms: C_10  and  C_15
REMARK    4  A    between atoms: C_17  and  C_20
REMARK    5  A    between atoms: C_23  and  N_26
REMARK                            x       y       z     vdW  Elec       q    Type
REMARK                         _______ _______ _______ _____ _____    ______ ____
ROOT
ATOM      1  C   UNL     1       3.585   0.653  -0.319  0.00  0.00    +0.233 A 
ATOM      2  N   UNL     1       4.790   0.532   0.179  0.00  0.00    -0.191 NA
ATOM      3  C   UNL     1       5.634   0.817  -0.839  0.00  0.00    +0.202 A 
ATOM      4  N   UNL     1       4.897   1.091  -1.885  0.00  0.00    -0.056 NA
ATOM      5  O   UNL     1       3.722   0.996  -1.603  0.00  0.00    -0.337 OA
ENDROOT
BRANCH   1   8
ATOM      6  N   UNL     1       0.058  -0.262  -0.123  0.00  0.00    -0.271 N 
ATOM      7  C   UNL     1       1.458  -0.687  -0.240  0.00  0.00    +0.127 C 
ATOM      8  C   UNL     1       2.287   0.439   0.417  0.00  0.00    +0.104 C 
ATOM      9  C   UNL     1       1.350   1.658   0.252  0.00  0.00    +0.111 C 
ATOM     10  C   UNL     1      -0.032   1.051   0.148  0.00  0.00    +0.221 C 
ATOM     11  O   UNL     1      -1.071   1.663   0.283  0.00  0.00    -0.275 OA
BRANCH   6  16
ATOM     12  C   UNL     1      -4.398  -3.720  -0.730  0.00  0.00    +0.044 C 
ATOM     13  C   UNL     1      -3.214  -2.802  -0.569  0.00  0.00    -0.050 A 
ATOM     14  C   UNL     1      -1.937  -3.273  -0.810  0.00  0.00    +0.005 A 
ATOM     15  C   UNL     1      -0.850  -2.434  -0.663  0.00  0.00    +0.024 A 
ATOM     16  C   UNL     1      -1.041  -1.115  -0.273  0.00  0.00    +0.036 A 
ATOM     17  C   UNL     1      -2.325  -0.646  -0.027  0.00  0.00    +0.024 A 
ATOM     18  C   UNL     1      -3.408  -1.489  -0.181  0.00  0.00    +0.005 A 
ENDBRANCH   6  16
ENDBRANCH   1   8
BRANCH   3  19
ATOM     19  C   UNL     1       7.115   0.818  -0.780  0.00  0.00    +0.023 A 
ATOM     20  C   UNL     1       7.767   0.509   0.413  0.00  0.00    +0.013 A 
ATOM     21  C   UNL     1       9.144   0.505   0.464  0.00  0.00    +0.024 A 
ATOM     22  C   UNL     1       9.884   0.820  -0.671  0.00  0.00    +0.030 A 
ATOM     23  C   UNL     1       9.236   1.134  -1.861  0.00  0.00    +0.024 A 
ATOM     24  C   UNL     1       7.859   1.134  -1.917  0.00  0.00    +0.013 A 
BRANCH  22  25
ATOM     25  N   UNL     1      11.277   0.821  -0.616  0.00  0.00    -0.330 N 
ATOM     26  C   UNL     1      11.846  -0.224  -1.504  0.00  0.00    +0.105 C 
ATOM     27  C   UNL     1      13.303   0.254  -1.726  0.00  0.00    +0.020 C 
ATOM     28  C   UNL     1      13.154   1.790  -1.813  0.00  0.00    +0.020 C 
ATOM     29  C   UNL     1      11.826   2.106  -1.102  0.00  0.00    +0.105 C 
ENDBRANCH  22  25
ENDBRANCH   3  19
TORSDOF 4
