REMARK  Name = ZINC46031544
REMARK  8 active torsions:
REMARK  status: ('A' for Active; 'I' for Inactive)
REMARK    1  A    between atoms: C_1  and  C_2
REMARK    2  A    between atoms: C_9  and  C_13
REMARK    3  A    between atoms: C_13  and  S_14
REMARK    4  A    between atoms: S_14  and  C_15
REMARK    5  A    between atoms: C_21  and  C_23
REMARK    6  A    between atoms: C_23  and  C_24
REMARK    7  A    between atoms: C_24  and  C_25
REMARK    8  A    between atoms: C_24  and  C_26
REMARK                            x       y       z     vdW  Elec       q    Type
REMARK                         _______ _______ _______ _____ _____    ______ ____
ROOT
ATOM      1  S   UNL     1       1.692   0.803   5.088  0.00  0.00    -0.091 S 
ENDROOT
BRANCH   1   2
ATOM      2  C   UNL     1       1.533   1.673   6.611  0.00  0.00    +0.160 A 
ATOM      3  N   UNL     1       0.486   1.803   7.413  0.00  0.00    -0.133 NA
ATOM      4  N   UNL     1       0.543   2.471   8.481  0.00  0.00    -0.125 NA
ATOM      5  C   UNL     1       1.650   3.083   8.867  0.00  0.00    +0.189 A 
ATOM      6  S   UNL     1       2.742   2.630   7.522  0.00  0.00    -0.024 S 
ATOM      7  N   UNL     1       1.898   3.856   9.999  0.00  0.00    -0.263 N 
ATOM      8  C   UNL     1       0.917   4.067  10.899  0.00  0.00    +0.219 C 
ATOM      9  O   UNL     1      -0.182   3.584  10.723  0.00  0.00    -0.275 OA
ATOM     10  H   UNL     1       2.777   4.242  10.140  0.00  0.00    +0.157 HD
BRANCH   8  11
ATOM     11  C   UNL     1       1.185   4.903  12.124  0.00  0.00    +0.099 C 
BRANCH  11  12
ATOM     12  C   UNL     1      -0.085   4.985  12.973  0.00  0.00    -0.008 C 
ATOM     13  C   UNL     1      -0.436   3.593  13.502  0.00  0.00    +0.008 C 
ATOM     14  C   UNL     1       0.149   5.934  14.151  0.00  0.00    +0.008 C 
ENDBRANCH  11  12
ENDBRANCH   8  11
ENDBRANCH   1   2
BRANCH   1  15
ATOM     15  C   UNL     1       0.047   0.089   4.816  0.00  0.00    +0.132 C 
BRANCH  15  24
ATOM     16  C   UNL     1      -0.018   1.503   0.010  0.00  0.00    +0.047 C 
ATOM     17  C   UNL     1       0.002  -0.004   0.002  0.00  0.00    -0.008 A 
ATOM     18  C   UNL     1       0.006  -0.685  -1.179  0.00  0.00    +0.008 A 
ATOM     19  C   UNL     1       0.025  -2.086  -1.169  0.00  0.00    +0.019 A 
ATOM     20  C   UNL     1       0.039  -2.757   0.005  0.00  0.00    +0.096 A 
ATOM     21  N   UNL     1       0.035  -2.087   1.190  0.00  0.00    -0.268 N 
ATOM     22  C   UNL     1       0.023  -0.720   1.213  0.00  0.00    +0.143 A 
ATOM     23  N   UNL     1       0.025  -0.056   2.368  0.00  0.00    -0.233 NA
ATOM     24  C   UNL     1       0.045  -0.693   3.528  0.00  0.00    +0.059 A 
ATOM     25  C   UNL     1       0.064  -2.074   3.559  0.00  0.00    +0.094 A 
ATOM     26  C   UNL     1       0.050  -2.779   2.349  0.00  0.00    +0.259 A 
ATOM     27  O   UNL     1       0.066  -3.999   2.343  0.00  0.00    -0.267 OA
ENDBRANCH  15  24
ENDBRANCH   1  15
TORSDOF 5
