REMARK  Name = ZINC04860184
REMARK  1 active torsions:
REMARK  status: ('A' for Active; 'I' for Inactive)
REMARK    1  A    between atoms: C_2  and  N_9
REMARK                            x       y       z     vdW  Elec       q    Type
REMARK                         _______ _______ _______ _____ _____    ______ ____
ROOT
ATOM      1  N   UNL     1       3.102   2.899   2.723  0.00  0.00    -0.210 N 
ATOM      2  C   UNL     1       2.494   1.827   3.253  0.00  0.00    +0.227 C 
ATOM      3  O   UNL     1       2.902   1.182   4.194  0.00  0.00    -0.275 OA
ATOM      4  C   UNL     1       1.214   1.552   2.486  0.00  0.00    +0.113 C 
ATOM      5  C   UNL     1       1.205   2.655   1.428  0.00  0.00    +0.063 C 
ATOM      6  C   UNL     1       2.452   3.446   1.681  0.00  0.00    +0.233 C 
ATOM      7  O   UNL     1       2.815   4.417   1.052  0.00  0.00    -0.274 OA
ATOM      8  C   UNL     1      -0.062   3.517   1.506  0.00  0.00    +0.024 C 
ATOM      9  C   UNL     1      -0.701   3.342   0.088  0.00  0.00    +0.013 C 
ATOM     10  C   UNL     1       0.594   3.274  -0.803  0.00  0.00    +0.016 C 
ATOM     11  C   UNL     1       1.194   2.057  -0.002  0.00  0.00    +0.027 C 
ATOM     12  C   UNL     1      -0.026   1.125  -0.009  0.00  0.00    -0.026 C 
ATOM     13  C   UNL     1      -1.115   1.866   0.041  0.00  0.00    -0.027 C 
ENDROOT
BRANCH   1  15
ATOM     14  C   UNL     1       5.463   3.333   2.441  0.00  0.00    +0.044 A 
ATOM     15  C   UNL     1       4.313   3.407   3.215  0.00  0.00    +0.047 A 
ATOM     16  C   UNL     1       4.362   3.989   4.474  0.00  0.00    +0.044 A 
ATOM     17  C   UNL     1       5.559   4.484   4.958  0.00  0.00    +0.044 A 
ATOM     18  C   UNL     1       6.704   4.410   4.185  0.00  0.00    +0.040 A 
ATOM     19  C   UNL     1       6.655   3.834   2.928  0.00  0.00    +0.044 A 
ATOM     20 CL   UNL     1       8.094   3.742   1.960  0.00  0.00    -0.083 Cl
ATOM     21 CL   UNL     1       5.623   5.207   6.536  0.00  0.00    -0.083 Cl
ENDBRANCH   1  15
TORSDOF 1
