REMARK  Name = ZINC53854332
REMARK  5 active torsions:
REMARK  status: ('A' for Active; 'I' for Inactive)
REMARK    1  A    between atoms: C_1  and  C_2
REMARK    2  A    between atoms: C_2  and  C_4
REMARK    3  A    between atoms: C_2  and  N_16
REMARK    4  A    between atoms: C_17  and  C_19
REMARK    5  A    between atoms: C_21  and  C_24
REMARK                            x       y       z     vdW  Elec       q    Type
REMARK                         _______ _______ _______ _____ _____    ______ ____
ROOT
ATOM      1  N   UNL     1       0.688  -0.476  -1.203  0.00  0.00    -0.303 N 
ATOM      2  C   UNL     1       2.031  -0.587  -1.215  0.00  0.00    +0.266 C 
ATOM      3  O   UNL     1       2.673  -0.295  -0.226  0.00  0.00    -0.268 OA
ATOM      4  H   UNL     1       0.175  -0.710  -1.993  0.00  0.00    +0.150 HD
ENDROOT
BRANCH   2   5
ATOM      5  C   UNL     1       2.725  -1.065  -2.436  0.00  0.00    +0.168 A 
ATOM      6  C   UNL     1       4.119  -1.234  -2.585  0.00  0.00    +0.086 A 
ATOM      7  C   UNL     1       4.352  -1.688  -3.846  0.00  0.00    +0.171 A 
ATOM      8  O   UNL     1       3.166  -1.804  -4.471  0.00  0.00    -0.354 OA
ATOM      9  N   UNL     1       2.152  -1.412  -3.563  0.00  0.00    -0.073 NA
BRANCH   7  10
ATOM     10  C   UNL     1       5.675  -1.998  -4.427  0.00  0.00    +0.055 A 
ATOM     11  C   UNL     1       6.717  -1.075  -4.331  0.00  0.00    +0.014 A 
ATOM     12  C   UNL     1       7.949  -1.371  -4.876  0.00  0.00    +0.001 A 
ATOM     13  C   UNL     1       8.155  -2.580  -5.517  0.00  0.00    +0.003 A 
ATOM     14  C   UNL     1       7.128  -3.500  -5.617  0.00  0.00    +0.039 A 
ATOM     15  C   UNL     1       5.890  -3.220  -5.070  0.00  0.00    +0.134 A 
ATOM     16  F   UNL     1       4.888  -4.122  -5.163  0.00  0.00    -0.205 F 
ENDBRANCH   7  10
ENDBRANCH   2   5
BRANCH   1  18
ATOM     17  C   UNL     1      -0.019   1.526   0.010  0.00  0.00    +0.033 C 
ATOM     18  C   UNL     1       0.002  -0.004   0.002  0.00  0.00    +0.101 C 
BRANCH  18  19
ATOM     19  C   UNL     1      -1.412  -0.526   0.013  0.00  0.00    -0.025 A 
ATOM     20  C   UNL     1      -2.140  -0.568  -1.164  0.00  0.00    +0.007 A 
ATOM     21  C   UNL     1      -3.436  -1.044  -1.164  0.00  0.00    +0.028 A 
ATOM     22  C   UNL     1      -4.011  -1.482   0.019  0.00  0.00    +0.067 A 
ATOM     23  C   UNL     1      -3.276  -1.440   1.206  0.00  0.00    +0.067 A 
ATOM     24  C   UNL     1      -1.974  -0.965   1.195  0.00  0.00    +0.033 A 
ATOM     25  N   UNL     1      -4.104  -1.937   2.210  0.00  0.00    -0.306 N 
ATOM     26  H   UNL     1      -3.868  -2.030   3.146  0.00  0.00    +0.170 HD
ATOM     27  C   UNL     1      -5.288  -2.267   1.659  0.00  0.00    +0.325 A 
ATOM     28  O   UNL     1      -6.237  -2.732   2.262  0.00  0.00    -0.247 OA
ATOM     29  N   UNL     1      -5.262  -2.004   0.338  0.00  0.00    -0.306 N 
ATOM     30  H   UNL     1      -5.991  -2.152  -0.284  0.00  0.00    +0.170 HD
ENDBRANCH  18  19
ENDBRANCH   1  18
TORSDOF 4
