REMARK  Name = ZINC38990178
REMARK  7 active torsions:
REMARK  status: ('A' for Active; 'I' for Inactive)
REMARK    1  A    between atoms: C_1  and  O_2
REMARK    2  A    between atoms: O_2  and  C_3
REMARK    3  A    between atoms: C_6  and  N_9
REMARK    4  A    between atoms: N_9  and  C_10
REMARK    5  A    between atoms: N_9  and  S_23
REMARK    6  A    between atoms: C_10  and  C_11
REMARK    7  A    between atoms: S_23  and  C_26
REMARK                            x       y       z     vdW  Elec       q    Type
REMARK                         _______ _______ _______ _____ _____    ______ ____
ROOT
ATOM      1  N   UNL     1       2.527  -2.518   4.175  0.00  0.00    -0.202 N 
ENDROOT
BRANCH   1   5
ATOM      2  C   UNL     1       0.794  -0.918   0.739  0.00  0.00    +0.120 A 
ATOM      3  C   UNL     1       1.334  -0.076   1.699  0.00  0.00    +0.047 A 
ATOM      4  C   UNL     1       1.909  -0.605   2.838  0.00  0.00    +0.028 A 
ATOM      5  C   UNL     1       1.945  -1.981   3.022  0.00  0.00    +0.052 A 
ATOM      6  C   UNL     1       1.403  -2.824   2.060  0.00  0.00    +0.028 A 
ATOM      7  C   UNL     1       0.824  -2.293   0.924  0.00  0.00    +0.047 A 
BRANCH   2   9
ATOM      8  C   UNL     1       0.231   1.027  -0.508  0.00  0.00    +0.277 C 
ATOM      9  O   UNL     1       0.228  -0.396  -0.382  0.00  0.00    -0.495 OA
ENDBRANCH   2   9
ENDBRANCH   1   5
BRANCH   1  10
ATOM     10  S   UNL     1       3.707  -1.677   4.976  0.00  0.00    +0.075 S 
ATOM     11  O   UNL     1       4.554  -2.642   5.585  0.00  0.00    -0.150 OA
ATOM     12  O   UNL     1       4.196  -0.699   4.068  0.00  0.00    -0.150 OA
BRANCH  10  13
ATOM     13  C   UNL     1       2.922  -0.798   6.287  0.00  0.00    +0.109 A 
ATOM     14  C   UNL     1       2.437   0.478   6.070  0.00  0.00    +0.031 A 
ATOM     15  C   UNL     1       1.821   1.167   7.097  0.00  0.00    +0.040 A 
ATOM     16  C   UNL     1       1.689   0.579   8.343  0.00  0.00    +0.124 A 
ATOM     17  C   UNL     1       2.175  -0.699   8.559  0.00  0.00    +0.040 A 
ATOM     18  C   UNL     1       2.786  -1.389   7.529  0.00  0.00    +0.031 A 
ATOM     19  F   UNL     1       1.087   1.252   9.348  0.00  0.00    -0.205 F 
ENDBRANCH  10  13
ENDBRANCH   1  10
BRANCH   1  20
ATOM     20  C   UNL     1       2.094  -3.826   4.674  0.00  0.00    +0.148 C 
BRANCH  20  21
ATOM     21  C   UNL     1       0.599  -3.778   4.997  0.00  0.00    +0.118 C 
ATOM     22  C   UNL     1       0.156  -5.182   5.359  0.00  0.00    -0.003 C 
ATOM     23  C   UNL     1      -0.406  -5.362   6.588  0.00  0.00    -0.007 A 
ATOM     24  C   UNL     1      -0.862  -6.685   7.018  0.00  0.00    +0.009 A 
ATOM     25  C   UNL     1      -1.417  -6.817   8.251  0.00  0.00    +0.001 A 
ATOM     26  C   UNL     1      -1.558  -5.723   9.105  0.00  0.00    +0.002 A 
ATOM     27  C   UNL     1      -1.156  -4.471   8.765  0.00  0.00    +0.024 A 
ATOM     28  C   UNL     1      -0.568  -4.225   7.511  0.00  0.00    +0.040 A 
ATOM     29  N   UNL     1      -0.176  -2.993   7.188  0.00  0.00    -0.284 N 
ATOM     30  C   UNL     1       0.381  -2.693   6.027  0.00  0.00    +0.226 C 
ATOM     31  O   UNL     1       0.718  -1.549   5.790  0.00  0.00    -0.275 OA
ATOM     32  H   UNL     1      -0.307  -2.282   7.835  0.00  0.00    +0.155 HD
ENDBRANCH  20  21
ENDBRANCH   1  20
TORSDOF 6
