REMARK  Name = ZINC12833776
REMARK  8 active torsions:
REMARK  status: ('A' for Active; 'I' for Inactive)
REMARK    1  A    between atoms: C_1  and  C_2
REMARK    2  A    between atoms: C_14  and  S_18
REMARK    3  A    between atoms: S_18  and  C_19
REMARK    4  A    between atoms: C_19  and  C_20
REMARK    5  A    between atoms: C_25  and  C_28
REMARK    6  A    between atoms: C_28  and  C_29
REMARK    7  A    between atoms: C_28  and  C_30
REMARK    8  A    between atoms: C_28  and  C_31
REMARK                            x       y       z     vdW  Elec       q    Type
REMARK                         _______ _______ _______ _____ _____    ______ ____
ROOT
ATOM      1  C   UNL     1      10.098   5.257  -0.131  0.00  0.00    +0.008 C 
ATOM      2  C   UNL     1       8.613   5.027  -0.416  0.00  0.00    -0.009 C 
ATOM      3  C   UNL     1       8.107   3.847   0.420  0.00  0.00    +0.008 C 
ATOM      4  C   UNL     1       6.702   3.451  -0.036  0.00  0.00    +0.037 C 
ATOM      5  C   UNL     1       5.811   4.691  -0.023  0.00  0.00    -0.024 A 
ATOM      6  C   UNL     1       6.359   5.928  -0.021  0.00  0.00    -0.004 A 
ATOM      7  S   UNL     1       4.971   7.031  -0.004  0.00  0.00    -0.073 S 
ATOM      8  C   UNL     1       3.684   5.806  -0.000  0.00  0.00    +0.114 A 
ATOM      9  C   UNL     1       4.397   4.598  -0.013  0.00  0.00    +0.056 A 
ATOM     10  C   UNL     1       3.554   3.382  -0.013  0.00  0.00    +0.173 A 
ATOM     11  N   UNL     1       3.810   2.097  -0.023  0.00  0.00    -0.128 NA
ATOM     12  N   UNL     1       2.704   1.436  -0.017  0.00  0.00    -0.122 NA
ATOM     13  C   UNL     1       1.681   2.259  -0.002  0.00  0.00    +0.198 A 
ATOM     14  N   UNL     1       2.185   3.530  -0.005  0.00  0.00    -0.260 N 
ATOM     15  C   UNL     1       1.622   4.774   0.012  0.00  0.00    +0.208 A 
ATOM     16  N   UNL     1       2.355   5.850   0.011  0.00  0.00    -0.230 NA
ATOM     17  C   UNL     1       7.814   6.281  -0.032  0.00  0.00    +0.046 C 
ENDROOT
BRANCH  13  18
ATOM     18  S   UNL     1      -0.022   1.810   0.012  0.00  0.00    -0.076 S 
BRANCH  18  19
ATOM     19  C   UNL     1       0.002  -0.004   0.002  0.00  0.00    +0.173 C 
BRANCH  19  20
ATOM     20  C   UNL     1      -1.412  -0.526   0.013  0.00  0.00    +0.229 C 
ATOM     21  O   UNL     1      -2.344   0.250   0.026  0.00  0.00    -0.275 OA
ATOM     22  N   UNL     1      -1.640  -1.854   0.008  0.00  0.00    -0.264 N 
ATOM     23  C   UNL     1      -2.944  -2.335   0.018  0.00  0.00    +0.165 A 
ATOM     24  N   UNL     1      -3.366  -3.584   0.010  0.00  0.00    -0.229 NA
ATOM     25  C   UNL     1      -4.654  -3.871   0.026  0.00  0.00    +0.056 A 
ATOM     26  C   UNL     1      -5.543  -2.848   0.040  0.00  0.00    +0.072 A 
ATOM     27  S   UNL     1      -4.435  -1.445   0.036  0.00  0.00    -0.060 S 
ATOM     28  H   UNL     1      -0.894  -2.474  -0.003  0.00  0.00    +0.157 HD
BRANCH  25  29
ATOM     29  C   UNL     1      -5.125  -5.302   0.024  0.00  0.00    +0.005 C 
ATOM     30  C   UNL     1      -5.652  -5.663  -1.367  0.00  0.00    +0.017 C 
ATOM     31  C   UNL     1      -3.958  -6.224   0.381  0.00  0.00    +0.017 C 
ATOM     32  C   UNL     1      -6.244  -5.472   1.053  0.00  0.00    +0.017 C 
ENDBRANCH  25  29
ENDBRANCH  19  20
ENDBRANCH  18  19
ENDBRANCH  13  18
TORSDOF 4
