REMARK  Name = ZINC09602518
REMARK  5 active torsions:
REMARK  status: ('A' for Active; 'I' for Inactive)
REMARK    1  A    between atoms: C_1  and  C_2
REMARK    2  A    between atoms: C_2  and  C_24
REMARK    3  A    between atoms: N_5  and  C_9
REMARK    4  A    between atoms: C_9  and  C_10
REMARK    5  A    between atoms: N_12  and  C_13
REMARK                            x       y       z     vdW  Elec       q    Type
REMARK                         _______ _______ _______ _____ _____    ______ ____
ROOT
ATOM      1  C   UNL     1      -1.824   2.331  -1.409  0.00  0.00    +0.047 C 
ATOM      2  C   UNL     1      -1.338   2.081   0.020  0.00  0.00    +0.135 C 
ATOM      3  C   UNL     1      -1.224   3.387   0.781  0.00  0.00    +0.251 C 
ATOM      4  O   UNL     1      -0.510   4.330   0.515  0.00  0.00    -0.272 OA
ATOM      5  N   UNL     1      -2.084   3.277   1.817  0.00  0.00    -0.215 N 
ATOM      6  C   UNL     1      -2.717   2.098   1.811  0.00  0.00    +0.310 C 
ATOM      7  O   UNL     1      -3.540   1.769   2.643  0.00  0.00    -0.252 OA
ATOM      8  N   UNL     1      -2.341   1.318   0.782  0.00  0.00    -0.281 N 
ATOM      9  H   UNL     1      -2.667   0.427   0.581  0.00  0.00    +0.152 HD
ENDROOT
BRANCH   2  10
ATOM     10  C   UNL     1      -0.016   1.357   0.009  0.00  0.00    -0.015 A 
ATOM     11  C   UNL     1       1.169   2.091   0.002  0.00  0.00    +0.007 A 
ATOM     12  C   UNL     1       2.378   1.468  -0.012  0.00  0.00    +0.009 A 
ATOM     13  C   UNL     1       2.438   0.064  -0.021  0.00  0.00    -0.018 A 
ATOM     14  C   UNL     1       3.668  -0.615  -0.037  0.00  0.00    +0.008 A 
ATOM     15  C   UNL     1       3.687  -1.976  -0.044  0.00  0.00    +0.001 A 
ATOM     16  C   UNL     1       2.502  -2.710  -0.037  0.00  0.00    +0.001 A 
ATOM     17  C   UNL     1       1.292  -2.087  -0.022  0.00  0.00    +0.008 A 
ATOM     18  C   UNL     1       1.233  -0.683  -0.013  0.00  0.00    -0.018 A 
ATOM     19  C   UNL     1       0.002  -0.004   0.002  0.00  0.00    +0.014 A 
ENDBRANCH   2  10
BRANCH   5  20
ATOM     20  C   UNL     1      -2.298   4.321   2.823  0.00  0.00    +0.213 C 
BRANCH  20  21
ATOM     21  C   UNL     1      -1.339   4.120   3.967  0.00  0.00    +0.231 C 
ATOM     22  O   UNL     1      -0.554   3.196   3.945  0.00  0.00    -0.274 OA
ATOM     23  N   UNL     1      -1.353   4.967   5.015  0.00  0.00    -0.307 N 
ATOM     24  H   UNL     1      -1.981   5.706   5.033  0.00  0.00    +0.149 HD
BRANCH  23  25
ATOM     25  C   UNL     1      -0.420   4.772   6.128  0.00  0.00    +0.103 C 
ATOM     26  C   UNL     1      -0.166   6.113   6.813  0.00  0.00    +0.027 C 
ATOM     27  C   UNL     1       0.633   5.856   8.096  0.00  0.00    +0.007 C 
ATOM     28  C   UNL     1      -0.278   5.151   9.099  0.00  0.00    +0.035 C 
ATOM     29  C   UNL     1      -0.936   3.954   8.465  0.00  0.00    -0.042 A 
ATOM     30  C   UNL     1      -1.008   3.783   7.101  0.00  0.00    -0.024 A 
ATOM     31  C   UNL     1      -1.641   2.662   6.580  0.00  0.00    +0.006 A 
ATOM     32  C   UNL     1      -2.196   1.717   7.419  0.00  0.00    +0.000 A 
ATOM     33  C   UNL     1      -2.120   1.886   8.789  0.00  0.00    +0.000 A 
ATOM     34  C   UNL     1      -1.492   3.000   9.308  0.00  0.00    +0.004 A 
ENDBRANCH  23  25
ENDBRANCH  20  21
ENDBRANCH   5  20
TORSDOF 4
