REMARK  Name = ZINC13178562
REMARK  5 active torsions:
REMARK  status: ('A' for Active; 'I' for Inactive)
REMARK    1  A    between atoms: C_3  and  C_21
REMARK    2  A    between atoms: C_6  and  C_7
REMARK    3  A    between atoms: C_8  and  C_9
REMARK    4  A    between atoms: N_11  and  C_12
REMARK    5  A    between atoms: C_17  and  C_18
REMARK                            x       y       z     vdW  Elec       q    Type
REMARK                         _______ _______ _______ _____ _____    ______ ____
ROOT
ATOM      1  C   UNL     1       1.236   2.100  -0.009  0.00  0.00    +0.241 C 
ATOM      2  O   UNL     1       2.297   1.503  -0.010  0.00  0.00    -0.270 OA
ATOM      3  N   UNL     1       1.221   3.447  -0.001  0.00  0.00    -0.281 N 
ATOM      4  H   UNL     1       0.379   3.924  -0.067  0.00  0.00    +0.155 HD
ENDROOT
BRANCH   3   5
ATOM      5  C   UNL     1       2.414   4.156   0.101  0.00  0.00    +0.048 A 
ATOM      6  C   UNL     1       3.567   3.672  -0.503  0.00  0.00    +0.025 A 
ATOM      7  C   UNL     1       4.750   4.376  -0.401  0.00  0.00    +0.017 A 
ATOM      8  C   UNL     1       4.797   5.569   0.304  0.00  0.00    +0.019 A 
ATOM      9  C   UNL     1       3.663   6.065   0.911  0.00  0.00    +0.032 A 
ATOM     10  C   UNL     1       2.457   5.366   0.811  0.00  0.00    +0.085 A 
ATOM     11 BR   UNL     1       6.426   6.521   0.434  0.00  0.00    -0.050 Br
BRANCH  10  12
ATOM     12  C   UNL     1       1.239   5.893   1.452  0.00  0.00    +0.388 C 
ATOM     13  O   UNL     1       0.218   5.235   1.449  0.00  0.00    -0.241 OA
ATOM     14  O   UNL     1       1.258   7.105   2.040  0.00  0.00    -0.241 OA
ENDBRANCH  10  12
ENDBRANCH   3   5
BRANCH   1  16
ATOM     15  C   UNL     1      -0.009   0.005  -0.026  0.00  0.00    +0.013 C 
ATOM     16  C   UNL     1      -0.024   1.353  -0.018  0.00  0.00    +0.068 C 
BRANCH  15  22
ATOM     17  C   UNL     1      -2.495  -0.059  -0.028  0.00  0.00    +0.009 A 
ATOM     18  C   UNL     1      -3.674  -0.758  -0.040  0.00  0.00    +0.019 A 
ATOM     19  C   UNL     1      -3.658  -2.156  -0.049  0.00  0.00    +0.052 A 
ATOM     20  C   UNL     1      -2.441  -2.842  -0.050  0.00  0.00    +0.019 A 
ATOM     21  C   UNL     1      -1.260  -2.144  -0.043  0.00  0.00    +0.009 A 
ATOM     22  C   UNL     1      -1.275  -0.745  -0.034  0.00  0.00    -0.025 A 
BRANCH  19  23
ATOM     23  C   UNL     1      -4.891  -2.886  -0.057  0.00  0.00    +0.099 C 
ATOM     24  N   UNL     1      -5.868  -3.465  -0.063  0.00  0.00    -0.191 NA
ENDBRANCH  19  23
ENDBRANCH  15  22
ENDBRANCH   1  16
TORSDOF 5
