REMARK  Name = ZINC08781650
REMARK  5 active torsions:
REMARK  status: ('A' for Active; 'I' for Inactive)
REMARK    1  A    between atoms: C_3  and  O_19
REMARK    2  A    between atoms: C_6  and  N_7
REMARK    3  A    between atoms: C_9  and  C_16
REMARK    4  A    between atoms: O_19  and  C_20
REMARK    5  A    between atoms: C_23  and  C_26
REMARK                            x       y       z     vdW  Elec       q    Type
REMARK                         _______ _______ _______ _____ _____    ______ ____
ROOT
ATOM      1  C   UNL     1      -6.110   2.579   3.274  0.00  0.00    +0.030 A 
ATOM      2  C   UNL     1      -4.753   2.439   3.492  0.00  0.00    +0.050 A 
ATOM      3  C   UNL     1      -4.087   3.334   4.316  0.00  0.00    +0.149 A 
ATOM      4  C   UNL     1      -4.781   4.377   4.914  0.00  0.00    +0.085 A 
ATOM      5  C   UNL     1      -6.137   4.521   4.692  0.00  0.00    +0.050 A 
ATOM      6  C   UNL     1      -6.805   3.622   3.871  0.00  0.00    +0.052 A 
ATOM      7 CL   UNL     1      -3.946   5.502   5.939  0.00  0.00    -0.080 Cl
ENDROOT
BRANCH   6   8
ATOM      8  N   UNL     1      -8.181   3.767   3.646  0.00  0.00    -0.268 N 
ATOM      9  C   UNL     1      -9.062   3.162   4.489  0.00  0.00    +0.120 A 
ATOM     10  C   UNL     1     -10.417   3.308   4.270  0.00  0.00    +0.132 A 
ATOM     11  C   UNL     1     -10.849   4.112   3.115  0.00  0.00    +0.271 A 
ATOM     12  O   UNL     1     -12.032   4.269   2.874  0.00  0.00    -0.266 OA
ATOM     13  N   UNL     1      -9.905   4.672   2.329  0.00  0.00    -0.274 N 
ATOM     14  H   UNL     1     -10.179   5.222   1.540  0.00  0.00    +0.173 HD
ATOM     15  C   UNL     1      -8.601   4.495   2.599  0.00  0.00    +0.334 A 
ATOM     16  O   UNL     1      -7.774   5.011   1.872  0.00  0.00    -0.246 OA
BRANCH  10  17
ATOM     17  C   UNL     1     -11.374   2.692   5.138  0.00  0.00    +0.106 C 
ATOM     18  N   UNL     1     -12.134   2.202   5.826  0.00  0.00    -0.191 NA
ENDBRANCH  10  17
ENDBRANCH   6   8
BRANCH   3  19
ATOM     19  O   UNL     1      -2.752   3.193   4.534  0.00  0.00    -0.437 OA
BRANCH  19  20
ATOM     20  C   UNL     1      -2.356   2.522   5.645  0.00  0.00    +0.221 A 
ATOM     21  C   UNL     1      -1.004   2.449   5.958  0.00  0.00    +0.068 A 
ATOM     22  C   UNL     1      -0.613   1.761   7.094  0.00  0.00    +0.019 A 
ATOM     23  C   UNL     1      -1.592   1.168   7.879  0.00  0.00    +0.073 A 
ATOM     24  C   UNL     1      -2.916   1.277   7.504  0.00  0.00    +0.127 A 
ATOM     25  N   UNL     1      -3.259   1.944   6.418  0.00  0.00    -0.220 NA
BRANCH  23  26
ATOM     26  C   UNL     1      -1.213   0.409   9.125  0.00  0.00    +0.419 C 
ATOM     27  F   UNL     1      -1.200   1.283  10.217  0.00  0.00    -0.166 F 
ATOM     28  F   UNL     1       0.058  -0.151   8.961  0.00  0.00    -0.166 F 
ATOM     29  F   UNL     1      -2.146  -0.608   9.353  0.00  0.00    -0.166 F 
ENDBRANCH  23  26
ENDBRANCH  19  20
ENDBRANCH   3  19
TORSDOF 5
