REMARK  Name = ZINC64540788
REMARK  8 active torsions:
REMARK  status: ('A' for Active; 'I' for Inactive)
REMARK    1  A    between atoms: C_1  and  C_2
REMARK    2  A    between atoms: C_6  and  C_8
REMARK    3  A    between atoms: C_8  and  N_9
REMARK    4  A    between atoms: C_10  and  C_12
REMARK    5  A    between atoms: C_12  and  C_13
REMARK    6  A    between atoms: C_19  and  C_21
REMARK    7  A    between atoms: C_27  and  O_31
REMARK    8  A    between atoms: O_31  and  C_32
REMARK                            x       y       z     vdW  Elec       q    Type
REMARK                         _______ _______ _______ _____ _____    ______ ____
ROOT
ATOM      1  C   UNL     1       3.144  -4.746   5.793  0.00  0.00    +0.001 C 
ATOM      2  C   UNL     1       2.527  -3.883   6.896  0.00  0.00    +0.023 C 
ATOM      3  C   UNL     1       2.514  -4.672   8.209  0.00  0.00    +0.108 C 
ATOM      4  N   UNL     1       3.878  -5.134   8.496  0.00  0.00    -0.300 N 
ATOM      5  C   UNL     1       4.598  -5.896   7.467  0.00  0.00    +0.108 C 
ATOM      6  C   UNL     1       4.588  -5.093   6.162  0.00  0.00    +0.023 C 
ATOM      7  C   UNL     1       4.459  -4.864   9.682  0.00  0.00    +0.242 C 
ATOM      8  O   UNL     1       3.855  -4.233  10.524  0.00  0.00    -0.273 OA
ENDROOT
BRANCH   7   9
ATOM      9  C   UNL     1       5.860  -5.345   9.962  0.00  0.00    +0.190 C 
ATOM     10  C   UNL     1       5.908  -6.856   9.932  0.00  0.00    +0.016 C 
ATOM     11  C   UNL     1       6.305  -7.244  11.164  0.00  0.00    -0.003 A 
ATOM     12  C   UNL     1       6.540  -8.565  11.761  0.00  0.00    +0.013 A 
ATOM     13  C   UNL     1       6.943  -8.642  13.047  0.00  0.00    +0.046 A 
ATOM     14  C   UNL     1       7.142  -7.488  13.829  0.00  0.00    +0.122 A 
ATOM     15  C   UNL     1       6.944  -6.236  13.344  0.00  0.00    +0.071 A 
ATOM     16  C   UNL     1       6.522  -6.044  12.005  0.00  0.00    +0.047 A 
ATOM     17  N   UNL     1       6.267  -4.954  11.316  0.00  0.00    -0.370 N 
ATOM     18  H   UNL     1       6.336  -4.045  11.647  0.00  0.00    +0.161 HD
BRANCH  14  19
ATOM     19  O   UNL     1       7.547  -7.633  15.115  0.00  0.00    -0.495 OA
ATOM     20  C   UNL     1       7.744  -8.968  15.586  0.00  0.00    +0.277 C 
ENDBRANCH  14  19
ENDBRANCH   7   9
BRANCH   1  21
ATOM     21  C   UNL     1       3.127  -3.974   4.472  0.00  0.00    +0.099 C 
BRANCH  21  23
ATOM     22  N   UNL     1       1.440  -3.073   2.903  0.00  0.00    -0.311 N 
ATOM     23  C   UNL     1       1.701  -3.739   4.046  0.00  0.00    +0.214 C 
ATOM     24  O   UNL     1       0.788  -4.148   4.731  0.00  0.00    -0.276 OA
ATOM     25  H   UNL     1       2.171  -2.745   2.355  0.00  0.00    +0.149 HD
BRANCH  22  26
ATOM     26  C   UNL     1       0.054  -2.845   2.489  0.00  0.00    +0.139 C 
BRANCH  26  32
ATOM     27  C   UNL     1      -0.018   1.503   0.010  0.00  0.00    +0.044 C 
ATOM     28  C   UNL     1       0.002  -0.004   0.002  0.00  0.00    -0.050 A 
ATOM     29  C   UNL     1       0.006  -0.689  -1.199  0.00  0.00    +0.003 A 
ATOM     30  C   UNL     1       0.025  -2.071  -1.207  0.00  0.00    +0.001 A 
ATOM     31  C   UNL     1       0.040  -2.768  -0.013  0.00  0.00    +0.005 A 
ATOM     32  C   UNL     1       0.037  -2.084   1.188  0.00  0.00    -0.030 A 
ATOM     33  C   UNL     1       0.023  -0.702   1.195  0.00  0.00    +0.008 A 
ENDBRANCH  26  32
ENDBRANCH  22  26
ENDBRANCH  21  23
ENDBRANCH   1  21
TORSDOF 6
