REMARK  Name = ZINC39699763
REMARK  3 active torsions:
REMARK  status: ('A' for Active; 'I' for Inactive)
REMARK    1  A    between atoms: C_4  and  C_7
REMARK    2  A    between atoms: N_17  and  N_18
REMARK    3  A    between atoms: C_19  and  C_20
REMARK                            x       y       z     vdW  Elec       q    Type
REMARK                         _______ _______ _______ _____ _____    ______ ____
ROOT
ATOM      1  C   UNL     1       3.697  -0.686  -0.038  0.00  0.00    +0.084 A 
ATOM      2  C   UNL     1       3.885  -1.862   0.731  0.00  0.00    +0.028 A 
ATOM      3  C   UNL     1       2.871  -2.394   1.535  0.00  0.00    +0.027 A 
ATOM      4  C   UNL     1       3.108  -3.529   2.254  0.00  0.00    +0.019 A 
ATOM      5  C   UNL     1       4.347  -4.164   2.200  0.00  0.00    +0.017 A 
ATOM      6  C   UNL     1       5.356  -3.671   1.427  0.00  0.00    +0.029 A 
ATOM      7  C   UNL     1       5.146  -2.507   0.674  0.00  0.00    +0.077 A 
ATOM      8  N   UNL     1       6.105  -1.982  -0.101  0.00  0.00    -0.213 NA
ATOM      9  C   UNL     1       5.876  -0.885  -0.797  0.00  0.00    +0.236 A 
ATOM     10  N   UNL     1       4.707  -0.251  -0.778  0.00  0.00    -0.213 NA
ATOM     11  N   UNL     1       6.894  -0.376  -1.585  0.00  0.00    -0.205 N 
ATOM     12 BR   UNL     1       1.738  -4.248   3.340  0.00  0.00    -0.050 Br
ATOM     13  H   UNL     1       6.747   0.429  -2.106  0.00  0.00    +0.177 HD
ENDROOT
BRANCH   1  17
ATOM     14  C   UNL     1      -0.016   1.381   0.011  0.00  0.00    +0.000 A 
ATOM     15  C   UNL     1       0.537   0.930   1.196  0.00  0.00    +0.001 A 
ATOM     16  C   UNL     1       1.743   0.259   1.187  0.00  0.00    +0.010 A 
ATOM     17  C   UNL     1       2.403   0.034  -0.021  0.00  0.00    +0.001 A 
ATOM     18  C   UNL     1       1.839   0.490  -1.213  0.00  0.00    +0.010 A 
ATOM     19  C   UNL     1       0.634   1.161  -1.190  0.00  0.00    +0.001 A 
ENDBRANCH   1  17
BRANCH  11  20
ATOM     20  N   UNL     1       8.135  -1.024  -1.632  0.00  0.00    -0.191 NA
ATOM     21  C   UNL     1       9.076  -0.553  -2.361  0.00  0.00    +0.120 C 
BRANCH  21  22
ATOM     22  C   UNL     1      10.411  -1.250  -2.410  0.00  0.00    +0.141 C 
ATOM     23  C   UNL     1      11.450  -0.307  -1.836  0.00  0.00    +0.001 C 
ATOM     24  C   UNL     1      12.501   0.028  -2.637  0.00  0.00    -0.007 A 
ATOM     25  C   UNL     1      13.549   0.933  -2.163  0.00  0.00    +0.009 A 
ATOM     26  C   UNL     1      14.576   1.239  -2.996  0.00  0.00    +0.001 A 
ATOM     27  C   UNL     1      14.649   0.710  -4.285  0.00  0.00    +0.002 A 
ATOM     28  C   UNL     1      13.710  -0.136  -4.784  0.00  0.00    +0.024 A 
ATOM     29  C   UNL     1      12.604  -0.516  -4.003  0.00  0.00    +0.040 A 
ATOM     30  N   UNL     1      11.688  -1.346  -4.503  0.00  0.00    -0.284 N 
ATOM     31  C   UNL     1      10.625  -1.742  -3.824  0.00  0.00    +0.229 C 
ATOM     32  O   UNL     1       9.823  -2.500  -4.335  0.00  0.00    -0.274 OA
ATOM     33  H   UNL     1      11.807  -1.674  -5.408  0.00  0.00    +0.155 HD
ENDBRANCH  21  22
ENDBRANCH  11  20
TORSDOF 3
