REMARK  Name = ZINC02602350
REMARK  4 active torsions:
REMARK  status: ('A' for Active; 'I' for Inactive)
REMARK    1  A    between atoms: C_3  and  C_6
REMARK    2  A    between atoms: C_8  and  C_11
REMARK    3  A    between atoms: N_13  and  C_14
REMARK    4  A    between atoms: C_15  and  C_22
REMARK                            x       y       z     vdW  Elec       q    Type
REMARK                         _______ _______ _______ _____ _____    ______ ____
ROOT
ATOM      1  C   UNL     1       1.147   1.655   0.000  0.00  0.00    +0.270 C 
ATOM      2  O   UNL     1       1.130   2.870   0.007  0.00  0.00    -0.268 OA
ATOM      3  N   UNL     1      -0.011   0.966   0.007  0.00  0.00    -0.274 N 
ATOM      4  H   UNL     1       0.002  -0.004   0.002  0.00  0.00    +0.156 HD
ENDROOT
BRANCH   3   5
ATOM      5  C   UNL     1      -1.221   1.643   0.017  0.00  0.00    +0.090 A 
ATOM      6  C   UNL     1      -2.501   1.116   0.020  0.00  0.00    +0.084 A 
ATOM      7  C   UNL     1      -3.620   2.057   0.031  0.00  0.00    -0.018 A 
ATOM      8  C   UNL     1      -3.274   3.357   0.035  0.00  0.00    -0.004 A 
ATOM      9  S   UNL     1      -1.498   3.351   0.035  0.00  0.00    -0.077 S 
ATOM     10  C   UNL     1      -4.477   4.261   0.043  0.00  0.00    +0.043 C 
ATOM     11  C   UNL     1      -5.649   3.353  -0.392  0.00  0.00    +0.010 C 
ATOM     12  C   UNL     1      -5.147   1.962   0.043  0.00  0.00    +0.037 C 
BRANCH   6  13
ATOM     13  C   UNL     1      -2.721  -0.299   0.012  0.00  0.00    +0.102 C 
ATOM     14  N   UNL     1      -2.896  -1.421   0.006  0.00  0.00    -0.191 NA
ENDBRANCH   6  13
ENDBRANCH   3   5
BRANCH   1  17
ATOM     15  C   UNL     1       4.576   0.423  -0.040  0.00  0.00    +0.203 A 
ATOM     16  C   UNL     1       3.736   1.507  -0.031  0.00  0.00    +0.089 A 
ATOM     17  C   UNL     1       2.441   0.932  -0.016  0.00  0.00    +0.169 A 
ATOM     18  N   UNL     1       2.614  -0.369  -0.025  0.00  0.00    -0.073 NA
ATOM     19  O   UNL     1       3.786  -0.666  -0.038  0.00  0.00    -0.351 OA
BRANCH  15  22
ATOM     20  C   UNL     1       8.184  -0.160  -0.078  0.00  0.00    +0.042 A 
ATOM     21  C   UNL     1       6.864  -0.644  -0.062  0.00  0.00    +0.053 A 
ATOM     22  C   UNL     1       6.046   0.446  -0.054  0.00  0.00    +0.172 A 
ATOM     23  O   UNL     1       6.820   1.550  -0.055  0.00  0.00    -0.460 OA
ATOM     24  C   UNL     1       8.112   1.187  -0.070  0.00  0.00    +0.196 A 
ENDBRANCH  15  22
ENDBRANCH   1  17
TORSDOF 4
