REMARK  Name = ZINC04188746
REMARK  2 active torsions:
REMARK  status: ('A' for Active; 'I' for Inactive)
REMARK    1  A    between atoms: C_7  and  N_8
REMARK    2  A    between atoms: C_7  and  N_42
REMARK                            x       y       z     vdW  Elec       q    Type
REMARK                         _______ _______ _______ _____ _____    ______ ____
ROOT
ATOM      1  N   UNL     1       1.774   1.601  -1.311  0.00  0.00    -0.259 N 
ATOM      2  C   UNL     1       0.720   1.380  -2.183  0.00  0.00    +0.225 C 
ATOM      3  O   UNL     1       0.745   0.980  -3.327  0.00  0.00    -0.275 OA
ATOM      4  C   UNL     1      -0.412   1.748  -1.375  0.00  0.00    +0.095 C 
ATOM      5  C   UNL     1      -1.905   1.845  -1.357  0.00  0.00    +0.025 C 
ATOM      6  C   UNL     1      -2.321   1.029  -0.061  0.00  0.00    +0.016 C 
ATOM      7  C   UNL     1      -1.157   1.660   0.844  0.00  0.00    +0.025 C 
ATOM      8  C   UNL     1      -0.013   1.086   0.008  0.00  0.00    +0.095 C 
ATOM      9  C   UNL     1       1.365   1.691  -0.002  0.00  0.00    +0.225 C 
ATOM     10  O   UNL     1       1.977   2.155   0.936  0.00  0.00    -0.275 OA
ATOM     11  C   UNL     1      -1.468   3.122   0.512  0.00  0.00    -0.027 C 
ATOM     12  C   UNL     1      -1.978   3.263  -0.700  0.00  0.00    -0.027 C 
ENDROOT
BRANCH   1  13
ATOM     13  C   UNL     1       3.171   1.725  -1.737  0.00  0.00    +0.041 C 
BRANCH  13  20
ATOM     14  C   UNL     1       6.477  -0.780  -0.210  0.00  0.00    -0.002 C 
ATOM     15  C   UNL     1       7.006  -0.338  -1.496  0.00  0.00    -0.002 C 
ATOM     16  C   UNL     1       6.223   0.863  -2.067  0.00  0.00    -0.019 C 
ATOM     17  C   UNL     1       4.944   0.353  -2.675  0.00  0.00    -0.077 C 
ATOM     18  C   UNL     1       4.124  -0.032  -0.354  0.00  0.00    -0.077 C 
ATOM     19  C   UNL     1       5.010  -1.247  -0.313  0.00  0.00    -0.019 C 
ATOM     20  N   UNL     1       3.757   0.376  -1.753  0.00  0.00    +0.390 N 
ATOM     21  H   UNL     1       3.058  -0.286  -2.111  0.00  0.00    -0.080 HD
ENDBRANCH  13  20
ENDBRANCH   1  13
TORSDOF 2
