REMARK  Name = ZINC15727298
REMARK  10 active torsions:
REMARK  status: ('A' for Active; 'I' for Inactive)
REMARK    1  A    between atoms: C_1  and  C_2
REMARK    2  A    between atoms: C_2  and  O_3
REMARK    3  A    between atoms: O_3  and  C_4
REMARK    4  A    between atoms: C_4  and  C_6
REMARK    5  A    between atoms: C_7  and  C_30
REMARK    6  A    between atoms: C_11  and  N_15
REMARK    7  A    between atoms: N_15  and  C_16
REMARK    8  A    between atoms: C_16  and  C_17
REMARK    9  A    between atoms: C_22  and  C_23
REMARK   10  A    between atoms: C_22  and  N_58
REMARK                            x       y       z     vdW  Elec       q    Type
REMARK                         _______ _______ _______ _____ _____    ______ ____
ROOT
ATOM      1  N   UNL     1       4.173   0.031  -2.649  0.00  0.00    -0.328 N 
ATOM      2  H   UNL     1       4.535   0.515  -1.890  0.00  0.00    +0.147 HD
ENDROOT
BRANCH   1   8
ATOM      3  C   UNL     1       7.216   0.863  -2.839  0.00  0.00    +0.112 A 
ATOM      4  C   UNL     1       8.422   0.918  -3.470  0.00  0.00    +0.119 A 
ATOM      5  O   UNL     1       8.339   0.307  -4.660  0.00  0.00    -0.441 OA
ATOM      6  C   UNL     1       7.104  -0.176  -4.878  0.00  0.00    +0.233 A 
ATOM      7  C   UNL     1       6.321   0.138  -3.758  0.00  0.00    +0.094 A 
ATOM      8  C   UNL     1       4.980  -0.258  -3.735  0.00  0.00    +0.134 A 
ATOM      9  N   UNL     1       4.501  -0.925  -4.783  0.00  0.00    -0.220 NA
ATOM     10  C   UNL     1       5.270  -1.198  -5.820  0.00  0.00    +0.227 A 
ATOM     11  N   UNL     1       6.535  -0.843  -5.880  0.00  0.00    -0.200 NA
ATOM     12  C   UNL     1       9.662   1.569  -2.915  0.00  0.00    +0.087 C 
BRANCH   3  13
ATOM     13  C   UNL     1       6.879   1.411  -1.518  0.00  0.00    +0.343 C 
ATOM     14  O   UNL     1       7.016   0.728  -0.523  0.00  0.00    -0.245 OA
BRANCH  13  15
ATOM     15  O   UNL     1       6.418   2.674  -1.411  0.00  0.00    -0.461 OA
BRANCH  15  17
ATOM     16  C   UNL     1       5.599   4.591  -0.153  0.00  0.00    +0.048 C 
ATOM     17  C   UNL     1       6.105   3.149  -0.075  0.00  0.00    +0.229 C 
ENDBRANCH  15  17
ENDBRANCH  13  15
ENDBRANCH   3  13
ENDBRANCH   1   8
BRANCH   1  18
ATOM     18  C   UNL     1       2.770  -0.392  -2.645  0.00  0.00    +0.106 C 
BRANCH  18  19
ATOM     19  C   UNL     1       2.108   0.049  -1.338  0.00  0.00    +0.003 C 
ATOM     20  C   UNL     1       0.680  -0.499  -1.278  0.00  0.00    -0.014 C 
ATOM     21  C   UNL     1       0.002  -0.004   0.002  0.00  0.00    -0.078 C 
ATOM     22  C   UNL     1       1.344   2.014   0.000  0.00  0.00    -0.078 C 
ATOM     23  C   UNL     1       2.062   1.579  -1.280  0.00  0.00    -0.014 C 
ATOM     24  N   UNL     1      -0.032   1.474  -0.014  0.00  0.00    +0.382 N 
ATOM     25  H   UNL     1      -0.504   1.786  -0.871  0.00  0.00    -0.081 HD
BRANCH  24  26
ATOM     26  C   UNL     1      -0.783   1.974   1.156  0.00  0.00    -0.040 C 
BRANCH  26  27
ATOM     27  C   UNL     1      -0.580   3.463   1.273  0.00  0.00    -0.029 A 
ATOM     28  C   UNL     1       0.314   3.967   2.199  0.00  0.00    +0.004 A 
ATOM     29  C   UNL     1       0.505   5.332   2.303  0.00  0.00    +0.000 A 
ATOM     30  C   UNL     1      -0.206   6.195   1.489  0.00  0.00    +0.003 A 
ATOM     31  C   UNL     1      -1.104   5.693   0.567  0.00  0.00    +0.038 A 
ATOM     32  C   UNL     1      -1.292   4.325   0.458  0.00  0.00    +0.125 A 
ATOM     33  F   UNL     1      -2.170   3.833  -0.443  0.00  0.00    -0.205 F 
ENDBRANCH  26  27
ENDBRANCH  24  26
ENDBRANCH  18  19
ENDBRANCH   1  18
TORSDOF 8
