REMARK  Name = ZINC50566776
REMARK  4 active torsions:
REMARK  status: ('A' for Active; 'I' for Inactive)
REMARK    1  A    between atoms: C_1  and  C_2
REMARK    2  A    between atoms: N_7  and  C_11
REMARK    3  A    between atoms: C_8  and  C_10
REMARK    4  A    between atoms: C_20  and  C_21
REMARK                            x       y       z     vdW  Elec       q    Type
REMARK                         _______ _______ _______ _____ _____    ______ ____
ROOT
ATOM      1  C   UNL     1       0.438  -2.777   2.182  0.00  0.00    +0.055 A 
ATOM      2  C   UNL     1      -0.888  -3.273   2.217  0.00  0.00    +0.020 A 
ATOM      3  C   UNL     1      -1.807  -2.961   1.206  0.00  0.00    +0.012 A 
ATOM      4  C   UNL     1      -3.076  -3.455   1.271  0.00  0.00    +0.001 A 
ATOM      5  C   UNL     1      -3.470  -4.266   2.332  0.00  0.00    +0.002 A 
ATOM      6  C   UNL     1      -2.601  -4.586   3.331  0.00  0.00    +0.026 A 
ATOM      7  C   UNL     1      -1.286  -4.096   3.297  0.00  0.00    +0.048 A 
ATOM      8  N   UNL     1      -0.415  -4.402   4.271  0.00  0.00    -0.360 N 
ATOM      9  C   UNL     1       0.816  -3.960   4.265  0.00  0.00    +0.100 A 
ATOM     10  C   UNL     1       1.300  -3.140   3.230  0.00  0.00    +0.101 A 
ATOM     11  H   UNL     1      -0.708  -4.968   5.002  0.00  0.00    +0.165 HD
ENDROOT
BRANCH   1  17
ATOM     12  C   UNL     1      -0.019   1.526   0.010  0.00  0.00    +0.009 C 
ATOM     13  C   UNL     1       0.002  -0.004   0.002  0.00  0.00    +0.006 C 
ATOM     14  C   UNL     1       0.720  -0.498  -1.256  0.00  0.00    +0.006 C 
ATOM     15  C   UNL     1       0.712  -2.028  -1.282  0.00  0.00    +0.019 C 
ATOM     16  C   UNL     1       1.463  -2.559  -0.057  0.00  0.00    +0.105 C 
ATOM     17  N   UNL     1       0.869  -1.973   1.153  0.00  0.00    -0.326 N 
ATOM     18  C   UNL     1       0.744  -0.512   1.242  0.00  0.00    +0.073 C 
ATOM     19  C   UNL     1      -0.044  -0.140   2.500  0.00  0.00    +0.028 C 
ENDBRANCH   1  17
BRANCH  10  20
ATOM     20  C   UNL     1       2.688  -2.665   3.248  0.00  0.00    +0.390 C 
ATOM     21  O   UNL     1       3.433  -2.985   4.165  0.00  0.00    -0.240 OA
ATOM     22  O   UNL     1       3.102  -1.948   2.346  0.00  0.00    -0.240 OA
ENDBRANCH  10  20
TORSDOF 2
