REMARK  Name = ZINC67614098
REMARK  9 active torsions:
REMARK  status: ('A' for Active; 'I' for Inactive)
REMARK    1  A    between atoms: C_1  and  C_2
REMARK    2  A    between atoms: C_2  and  C_3
REMARK    3  A    between atoms: C_2  and  C_4
REMARK    4  A    between atoms: C_2  and  O_5
REMARK    5  A    between atoms: O_5  and  C_6
REMARK    6  A    between atoms: C_11  and  C_14
REMARK    7  A    between atoms: C_14  and  C_15
REMARK    8  A    between atoms: C_21  and  C_23
REMARK    9  A    between atoms: C_23  and  N_24
REMARK                            x       y       z     vdW  Elec       q    Type
REMARK                         _______ _______ _______ _____ _____    ______ ____
ROOT
ATOM      1  C   UNL     1       5.346  -2.977  -4.012  0.00  0.00    +0.099 C 
ENDROOT
BRANCH   1   7
ATOM      2  C   UNL     1       2.903   0.603  -0.705  0.00  0.00    +0.403 C 
ATOM      3  O   UNL     1       3.600   1.174   0.110  0.00  0.00    -0.226 OA
ATOM      4  N   UNL     1       3.440   0.160  -1.859  0.00  0.00    -0.267 N 
ATOM      5  C   UNL     1       2.609  -0.527  -2.857  0.00  0.00    +0.111 C 
ATOM      6  C   UNL     1       3.258  -1.872  -3.198  0.00  0.00    +0.023 C 
ATOM      7  C   UNL     1       4.705  -1.639  -3.638  0.00  0.00    +0.001 C 
ATOM      8  C   UNL     1       5.492  -0.999  -2.492  0.00  0.00    +0.023 C 
ATOM      9  C   UNL     1       4.867   0.361  -2.146  0.00  0.00    +0.111 C 
BRANCH   2  10
ATOM     10  O   UNL     1       1.593   0.412  -0.456  0.00  0.00    -0.445 OA
BRANCH  10  12
ATOM     11  C   UNL     1       1.307   2.420   0.858  0.00  0.00    +0.055 C 
ATOM     12  C   UNL     1       1.091   0.907   0.787  0.00  0.00    +0.107 C 
ATOM     13  C   UNL     1       1.832   0.231   1.942  0.00  0.00    +0.055 C 
ATOM     14  C   UNL     1      -0.404   0.600   0.892  0.00  0.00    +0.055 C 
ENDBRANCH  10  12
ENDBRANCH   2  10
ENDBRANCH   1   7
BRANCH   1  15
ATOM     15  C   UNL     1       6.728  -2.736  -4.561  0.00  0.00    +0.216 C 
ATOM     16  O   UNL     1       7.159  -1.605  -4.645  0.00  0.00    -0.276 OA
ATOM     17  N   UNL     1       7.486  -3.776  -4.959  0.00  0.00    -0.300 N 
ATOM     18  C   UNL     1       7.131  -5.201  -4.821  0.00  0.00    +0.108 C 
ATOM     19  C   UNL     1       8.487  -5.950  -4.824  0.00  0.00    +0.021 C 
ATOM     20  C   UNL     1       9.299  -5.120  -5.853  0.00  0.00    +0.022 C 
ATOM     21  C   UNL     1       8.802  -3.680  -5.609  0.00  0.00    +0.060 C 
BRANCH  21  22
ATOM     22  C   UNL     1       8.671  -2.938  -6.941  0.00  0.00    -0.056 C 
BRANCH  22  23
ATOM     23  N   UNL     1      10.009  -2.670  -7.485  0.00  0.00    +0.381 N 
ATOM     24  C   UNL     1      10.643  -3.937  -7.932  0.00  0.00    -0.079 C 
ATOM     25  C   UNL     1      11.714  -3.458  -8.945  0.00  0.00    -0.020 C 
ATOM     26  C   UNL     1      11.010  -2.284  -9.663  0.00  0.00    -0.020 C 
ATOM     27  C   UNL     1       9.907  -1.822  -8.693  0.00  0.00    -0.079 C 
ATOM     28  H   UNL     1      10.584  -2.218  -6.790  0.00  0.00    -0.082 HD
ENDBRANCH  22  23
ENDBRANCH  21  22
ENDBRANCH   1  15
TORSDOF 6
