REMARK  Name = ZINC60341709
REMARK  8 active torsions:
REMARK  status: ('A' for Active; 'I' for Inactive)
REMARK    1  A    between atoms: C_1  and  N_2
REMARK    2  A    between atoms: N_2  and  C_3
REMARK    3  A    between atoms: C_6  and  S_20
REMARK    4  A    between atoms: C_8  and  N_9
REMARK    5  A    between atoms: N_9  and  S_10
REMARK    6  A    between atoms: S_10  and  C_13
REMARK    7  A    between atoms: S_20  and  N_23
REMARK    8  A    between atoms: N_23  and  C_24
REMARK                            x       y       z     vdW  Elec       q    Type
REMARK                         _______ _______ _______ _____ _____    ______ ____
ROOT
ATOM      1  C   UNL     1      -0.734  -0.733   0.304  0.00  0.00    +0.050 A 
ATOM      2  C   UNL     1      -1.787   0.168   0.355  0.00  0.00    +0.027 A 
ATOM      3  C   UNL     1      -3.082  -0.269   0.152  0.00  0.00    +0.030 A 
ATOM      4  C   UNL     1      -3.333  -1.605  -0.103  0.00  0.00    +0.107 A 
ATOM      5  C   UNL     1      -2.290  -2.510  -0.156  0.00  0.00    +0.054 A 
ATOM      6  C   UNL     1      -0.987  -2.079   0.042  0.00  0.00    +0.071 A 
ENDROOT
BRANCH   1   8
ATOM      7  C   UNL     1       0.842   1.122   0.784  0.00  0.00    +0.125 C 
ATOM      8  N   UNL     1       0.579  -0.292   0.509  0.00  0.00    -0.345 N 
ATOM      9  H   UNL     1       1.314  -0.923   0.469  0.00  0.00    +0.146 HD
ENDBRANCH   1   8
BRANCH   4  10
ATOM     10  S   UNL     1      -4.988  -2.154  -0.360  0.00  0.00    +0.058 S 
ATOM     11  O   UNL     1      -4.985  -3.561  -0.158  0.00  0.00    -0.153 OA
ATOM     12  O   UNL     1      -5.826  -1.279   0.383  0.00  0.00    -0.153 OA
BRANCH  10  13
ATOM     13  N   UNL     1      -5.343  -1.906  -1.958  0.00  0.00    -0.193 NA
ATOM     14  C   UNL     1      -4.609  -2.638  -2.994  0.00  0.00    +0.127 C 
ATOM     15  H   UNL     1      -6.037  -1.277  -2.209  0.00  0.00    +0.148 HD
ENDBRANCH  10  13
ENDBRANCH   4  10
BRANCH   6  16
ATOM     16  N   UNL     1       0.071  -2.994  -0.017  0.00  0.00    -0.214 N 
ATOM     17  H   UNL     1       0.926  -2.724  -0.387  0.00  0.00    +0.174 HD
BRANCH  16  18
ATOM     18  S   UNL     1      -0.136  -4.537   0.547  0.00  0.00    +0.073 S 
ATOM     19  O   UNL     1      -1.283  -5.059  -0.110  0.00  0.00    -0.150 OA
ATOM     20  O   UNL     1       1.135  -5.169   0.477  0.00  0.00    -0.150 OA
BRANCH  18  21
ATOM     21  C   UNL     1      -0.545  -4.417   2.256  0.00  0.00    +0.122 A 
ATOM     22  C   UNL     1      -1.784  -4.839   2.702  0.00  0.00    +0.030 A 
ATOM     23  C   UNL     1      -2.105  -4.745   4.043  0.00  0.00    +0.002 A 
ATOM     24  C   UNL     1      -1.188  -4.229   4.939  0.00  0.00    +0.001 A 
ATOM     25  C   UNL     1       0.051  -3.808   4.495  0.00  0.00    +0.017 A 
ATOM     26  C   UNL     1       0.375  -3.906   3.154  0.00  0.00    +0.044 A 
ATOM     27 BR   UNL     1       2.072  -3.336   2.546  0.00  0.00    -0.048 Br
ENDBRANCH  18  21
ENDBRANCH  16  18
ENDBRANCH   6  16
TORSDOF 6
