REMARK  Name = ZINC67201974
REMARK  7 active torsions:
REMARK  status: ('A' for Active; 'I' for Inactive)
REMARK    1  A    between atoms: N_9  and  C_12
REMARK    2  A    between atoms: C_12  and  C_13
REMARK    3  A    between atoms: C_13  and  C_14
REMARK    4  A    between atoms: N_16  and  C_17
REMARK    5  A    between atoms: C_17  and  C_18
REMARK    6  A    between atoms: N_23  and  C_24
REMARK    7  A    between atoms: C_24  and  C_25
REMARK                            x       y       z     vdW  Elec       q    Type
REMARK                         _______ _______ _______ _____ _____    ______ ____
ROOT
ATOM      1  C   UNL     1       2.661  -5.748  -1.625  0.00  0.00    +0.215 C 
ATOM      2  O   UNL     1       2.722  -6.259  -0.526  0.00  0.00    -0.276 OA
ATOM      3  N   UNL     1       2.775  -6.511  -2.730  0.00  0.00    -0.317 N 
ATOM      4  H   UNL     1       2.727  -6.103  -3.608  0.00  0.00    +0.149 HD
ENDROOT
BRANCH   1   5
ATOM      5  C   UNL     1       2.458  -4.261  -1.754  0.00  0.00    +0.119 C 
BRANCH   5   6
ATOM      6  C   UNL     1       2.360  -3.637  -0.360  0.00  0.00    +0.158 C 
BRANCH   6  15
ATOM      7  C   UNL     1      -0.543   1.766  -0.872  0.00  0.00    +0.001 A 
ATOM      8  C   UNL     1       0.614   2.533  -0.912  0.00  0.00    +0.002 A 
ATOM      9  C   UNL     1       1.855   1.942  -0.838  0.00  0.00    +0.030 A 
ATOM     10  C   UNL     1       1.956   0.553  -0.720  0.00  0.00    +0.100 A 
ATOM     11  C   UNL     1       0.777  -0.223  -0.678  0.00  0.00    +0.068 A 
ATOM     12  C   UNL     1      -0.470   0.395  -0.755  0.00  0.00    +0.015 A 
ATOM     13  C   UNL     1       0.909  -1.683  -0.553  0.00  0.00    +0.278 A 
ATOM     14  O   UNL     1      -0.069  -2.406  -0.512  0.00  0.00    -0.265 OA
ATOM     15  N   UNL     1       2.163  -2.191  -0.485  0.00  0.00    -0.210 N 
ATOM     16  N   UNL     1       3.268  -1.337  -0.534  0.00  0.00    -0.062 NA
ATOM     17  N   UNL     1       3.162  -0.063  -0.644  0.00  0.00    -0.131 NA
ENDBRANCH   6  15
ENDBRANCH   5   6
ENDBRANCH   1   5
BRANCH   3  18
ATOM     18  C   UNL     1       2.973  -7.957  -2.605  0.00  0.00    +0.089 C 
BRANCH  18  19
ATOM     19  C   UNL     1       3.071  -8.581  -3.998  0.00  0.00    -0.051 C 
ATOM     20  C   UNL     1       3.109 -10.120  -3.883  0.00  0.00    -0.016 C 
ATOM     21  C   UNL     1       1.632 -10.526  -4.129  0.00  0.00    -0.020 C 
ATOM     22  C   UNL     1       1.192  -9.482  -5.185  0.00  0.00    -0.078 C 
ATOM     23  N   UNL     1       1.878  -8.229  -4.790  0.00  0.00    +0.383 N 
ATOM     24  H   UNL     1       1.256  -7.662  -4.234  0.00  0.00    -0.081 HD
BRANCH  23  25
ATOM     25  C   UNL     1       2.283  -7.484  -5.990  0.00  0.00    -0.075 C 
BRANCH  25  26
ATOM     26  C   UNL     1       1.038  -7.000  -6.735  0.00  0.00    -0.028 C 
ATOM     27  C   UNL     1       1.454  -6.347  -8.055  0.00  0.00    +0.002 C 
ATOM     28  C   UNL     1       0.209  -5.864  -8.800  0.00  0.00    +0.000 C 
ATOM     29  C   UNL     1      -0.537  -4.843  -7.938  0.00  0.00    +0.000 C 
ATOM     30  C   UNL     1      -0.953  -5.496  -6.619  0.00  0.00    +0.000 C 
ATOM     31  C   UNL     1       0.292  -5.979  -5.873  0.00  0.00    +0.002 C 
ENDBRANCH  25  26
ENDBRANCH  23  25
ENDBRANCH  18  19
ENDBRANCH   3  18
TORSDOF 7
