REMARK  Name = ZINC54729018
REMARK  7 active torsions:
REMARK  status: ('A' for Active; 'I' for Inactive)
REMARK    1  A    between atoms: C_1  and  C_2
REMARK    2  A    between atoms: C_5  and  C_7
REMARK    3  A    between atoms: C_7  and  C_9
REMARK    4  A    between atoms: C_7  and  N_10
REMARK    5  A    between atoms: C_19  and  C_21
REMARK    6  A    between atoms: C_23  and  C_27
REMARK    7  A    between atoms: C_25  and  C_26
REMARK                            x       y       z     vdW  Elec       q    Type
REMARK                         _______ _______ _______ _____ _____    ______ ____
ROOT
ATOM      1  N   UNL     1       5.590  -5.668  -0.854  0.00  0.00    -0.292 N 
ATOM      2  C   UNL     1       5.250  -6.559   0.098  0.00  0.00    +0.303 C 
ATOM      3  O   UNL     1       4.480  -7.463  -0.163  0.00  0.00    -0.253 OA
ATOM      4  N   UNL     1       5.764  -6.448   1.339  0.00  0.00    -0.283 N 
ATOM      5  C   UNL     1       6.599  -5.295   1.702  0.00  0.00    +0.128 C 
ATOM      6  C   UNL     1       5.992  -4.620   2.938  0.00  0.00    +0.127 C 
ATOM      7  N   UNL     1       5.727  -5.650   3.953  0.00  0.00    -0.294 N 
ATOM      8  C   UNL     1       4.891  -6.803   3.590  0.00  0.00    +0.127 C 
ATOM      9  C   UNL     1       5.493  -7.475   2.355  0.00  0.00    +0.128 C 
ATOM     10  C   UNL     1       6.240  -5.539   5.194  0.00  0.00    +0.250 C 
ATOM     11  O   UNL     1       6.094  -6.442   5.995  0.00  0.00    -0.270 OA
ATOM     12  H   UNL     1       6.146  -4.906  -0.629  0.00  0.00    +0.151 HD
ENDROOT
BRANCH  10  13
ATOM     13  C   UNL     1       6.980  -4.324   5.579  0.00  0.00    +0.078 A 
ATOM     14  C   UNL     1       6.686  -2.940   5.179  0.00  0.00    +0.057 A 
ATOM     15  C   UNL     1       7.620  -2.179   5.769  0.00  0.00    +0.103 A 
ATOM     16  O   UNL     1       8.442  -2.965   6.482  0.00  0.00    -0.464 OA
ATOM     17  C   UNL     1       8.076  -4.247   6.388  0.00  0.00    +0.114 A 
ATOM     18  C   UNL     1       8.761  -5.411   7.058  0.00  0.00    +0.087 C 
ATOM     19  C   UNL     1       7.728  -0.681   5.652  0.00  0.00    +0.086 C 
ENDBRANCH  10  13
BRANCH   1  20
ATOM     20  C   UNL     1       5.119  -5.850  -2.229  0.00  0.00    +0.108 C 
ATOM     21  C   UNL     1       6.070  -6.788  -2.975  0.00  0.00    +0.033 C 
BRANCH  20  26
ATOM     22  C   UNL     1       5.823  -0.657  -4.381  0.00  0.00    +0.051 C 
ATOM     23  C   UNL     1       5.415  -2.043  -3.952  0.00  0.00    -0.013 A 
ATOM     24  C   UNL     1       4.324  -2.761  -4.312  0.00  0.00    +0.011 A 
ATOM     25  C   UNL     1       4.152  -4.028  -3.788  0.00  0.00    +0.013 A 
ATOM     26  C   UNL     1       5.080  -4.515  -2.928  0.00  0.00    +0.010 A 
ATOM     27  S   UNL     1       6.247  -3.167  -2.843  0.00  0.00    -0.097 S 
ENDBRANCH  20  26
ENDBRANCH   1  20
TORSDOF 3
