REMARK  Name = ZINC15890545
REMARK  8 active torsions:
REMARK  status: ('A' for Active; 'I' for Inactive)
REMARK    1  A    between atoms: C_1  and  N_2
REMARK    2  A    between atoms: N_2  and  C_3
REMARK    3  A    between atoms: N_2  and  C_4
REMARK    4  A    between atoms: C_7  and  N_10
REMARK    5  A    between atoms: N_22  and  C_23
REMARK    6  A    between atoms: C_23  and  C_25
REMARK    7  A    between atoms: C_25  and  O_26
REMARK    8  A    between atoms: O_26  and  C_27
REMARK                            x       y       z     vdW  Elec       q    Type
REMARK                         _______ _______ _______ _____ _____    ______ ____
ROOT
ATOM      1  N   UNL     1      -0.007  -2.763  -4.836  0.00  0.00    -0.276 N 
ATOM      2  C   UNL     1      -0.126  -2.052  -6.084  0.00  0.00    +0.116 C 
ATOM      3  C   UNL     1      -1.287  -1.059  -6.122  0.00  0.00    +0.190 C 
ATOM      4  S   UNL     1      -2.416  -1.767  -7.385  0.00  0.00    -0.028 S 
ATOM      5  O   UNL     1      -3.618  -2.179  -6.748  0.00  0.00    -0.174 OA
ATOM      6  O   UNL     1      -2.482  -0.880  -8.493  0.00  0.00    -0.174 OA
ATOM      7  C   UNL     1      -1.460  -3.257  -7.872  0.00  0.00    +0.182 C 
ATOM      8  C   UNL     1      -0.058  -2.950  -7.330  0.00  0.00    +0.097 C 
ATOM      9  S   UNL     1       0.552  -4.506  -6.544  0.00  0.00    -0.086 S 
ATOM     10  C   UNL     1       0.109  -4.127  -4.860  0.00  0.00    +0.154 C 
ATOM     11  N   UNL     1      -0.083  -4.979  -3.860  0.00  0.00    -0.156 NA
ENDROOT
BRANCH   1  15
ATOM     12  C   UNL     1       0.000  -0.697  -1.213  0.00  0.00    +0.029 A 
ATOM     13  C   UNL     1      -0.008  -2.086  -1.221  0.00  0.00    +0.025 A 
ATOM     14  C   UNL     1      -0.011  -2.769  -2.420  0.00  0.00    +0.025 A 
ATOM     15  C   UNL     1      -0.005  -2.069  -3.619  0.00  0.00    +0.036 A 
ATOM     16  C   UNL     1       0.003  -0.680  -3.612  0.00  0.00    +0.025 A 
ATOM     17  C   UNL     1       0.000   0.004  -2.412  0.00  0.00    +0.025 A 
BRANCH  12  19
ATOM     18  C   UNL     1       0.004   1.461   0.010  0.00  0.00    +0.129 C 
ATOM     19  N   UNL     1       0.002  -0.004   0.002  0.00  0.00    -0.336 N 
ATOM     20  C   UNL     1       0.002  -0.743   1.267  0.00  0.00    +0.129 C 
ENDBRANCH  12  19
ENDBRANCH   1  15
BRANCH  11  21
ATOM     21  C   UNL     1       0.075  -6.285  -4.059  0.00  0.00    +0.276 C 
ATOM     22  O   UNL     1       0.395  -6.698  -5.157  0.00  0.00    -0.270 OA
BRANCH  21  23
ATOM     23  C   UNL     1      -0.143  -7.253  -2.925  0.00  0.00    +0.326 C 
BRANCH  23  24
ATOM     24  O   UNL     1       0.085  -8.586  -3.385  0.00  0.00    -0.483 OA
BRANCH  24  25
ATOM     25  C   UNL     1      -0.071  -9.587  -2.479  0.00  0.00    +0.121 A 
ATOM     26  C   UNL     1      -0.441  -9.293  -1.175  0.00  0.00    +0.045 A 
ATOM     27  C   UNL     1      -0.599 -10.312  -0.256  0.00  0.00    +0.004 A 
ATOM     28  C   UNL     1      -0.388 -11.625  -0.635  0.00  0.00    +0.000 A 
ATOM     29  C   UNL     1      -0.018 -11.921  -1.934  0.00  0.00    +0.004 A 
ATOM     30  C   UNL     1       0.135 -10.906  -2.858  0.00  0.00    +0.045 A 
ENDBRANCH  24  25
ENDBRANCH  23  24
ENDBRANCH  21  23
ENDBRANCH  11  21
TORSDOF 6
