REMARK  Name = ZINC01210179
REMARK  7 active torsions:
REMARK  status: ('A' for Active; 'I' for Inactive)
REMARK    1  A    between atoms: C_1  and  C_2
REMARK    2  A    between atoms: C_3  and  C_13
REMARK    3  A    between atoms: C_4  and  C_7
REMARK    4  A    between atoms: N_15  and  N_16
REMARK    5  A    between atoms: N_24  and  C_27
REMARK    6  A    between atoms: C_27  and  C_28
REMARK    7  A    between atoms: C_28  and  C_29
REMARK                            x       y       z     vdW  Elec       q    Type
REMARK                         _______ _______ _______ _____ _____    ______ ____
ROOT
ATOM      1  N   UNL     1      -4.484   0.196   1.192  0.00  0.00    -0.174 NA
ATOM      2  C   UNL     1      -5.106   0.378   2.332  0.00  0.00    +0.153 C 
ATOM      3  C   UNL     1      -6.513   0.794   2.535  0.00  0.00    +0.028 A 
ATOM      4  C   UNL     1      -7.551   1.102   1.661  0.00  0.00    +0.012 A 
ATOM      5  C   UNL     1      -8.784   1.466   2.164  0.00  0.00    +0.001 A 
ATOM      6  C   UNL     1      -8.985   1.524   3.533  0.00  0.00    +0.002 A 
ATOM      7  C   UNL     1      -7.962   1.221   4.408  0.00  0.00    +0.024 A 
ATOM      8  C   UNL     1      -6.713   0.852   3.920  0.00  0.00    +0.046 A 
ATOM      9  N   UNL     1      -5.534   0.502   4.569  0.00  0.00    -0.265 N 
ATOM     10  C   UNL     1      -4.559   0.208   3.692  0.00  0.00    +0.271 C 
ATOM     11  O   UNL     1      -3.425  -0.134   3.970  0.00  0.00    -0.268 OA
ENDROOT
BRANCH   1  14
ATOM     12  C   UNL     1      -2.502  -0.395   0.012  0.00  0.00    +0.269 C 
ATOM     13  O   UNL     1      -3.090  -0.215  -1.037  0.00  0.00    -0.268 OA
ATOM     14  N   UNL     1      -3.142  -0.207   1.183  0.00  0.00    -0.202 N 
ATOM     15  H   UNL     1      -2.673  -0.351   2.020  0.00  0.00    +0.178 HD
BRANCH  12  18
ATOM     16  C   UNL     1      -0.018   1.503   0.010  0.00  0.00    +0.090 C 
ATOM     17  C   UNL     1       0.002  -0.004   0.002  0.00  0.00    +0.147 A 
ATOM     18  C   UNL     1      -1.093  -0.819   0.003  0.00  0.00    +0.108 A 
ATOM     19  C   UNL     1      -0.592  -2.202  -0.008  0.00  0.00    +0.126 A 
ATOM     20  N   UNL     1       0.715  -2.133  -0.014  0.00  0.00    -0.077 NA
ATOM     21  O   UNL     1       1.095  -0.772  -0.013  0.00  0.00    -0.359 OA
BRANCH  19  22
ATOM     22  C   UNL     1      -1.412  -3.438  -0.011  0.00  0.00    +0.004 A 
ATOM     23  C   UNL     1      -2.621  -3.477   0.682  0.00  0.00    +0.010 A 
ATOM     24  C   UNL     1      -3.379  -4.630   0.676  0.00  0.00    +0.001 A 
ATOM     25  C   UNL     1      -2.942  -5.745  -0.015  0.00  0.00    +0.000 A 
ATOM     26  C   UNL     1      -1.743  -5.712  -0.704  0.00  0.00    +0.001 A 
ATOM     27  C   UNL     1      -0.979  -4.563  -0.711  0.00  0.00    +0.010 A 
ENDBRANCH  19  22
ENDBRANCH  12  18
ENDBRANCH   1  14
BRANCH   9  28
ATOM     28  C   UNL     1      -5.377   0.454   6.025  0.00  0.00    +0.118 C 
BRANCH  28  29
ATOM     29  C   UNL     1      -5.731  -0.946   6.530  0.00  0.00    +0.054 C 
BRANCH  29  30
ATOM     30  C   UNL     1      -5.569  -0.996   8.027  0.00  0.00    -0.046 A 
ATOM     31  C   UNL     1      -4.353  -1.350   8.580  0.00  0.00    +0.004 A 
ATOM     32  C   UNL     1      -4.204  -1.396   9.953  0.00  0.00    +0.000 A 
ATOM     33  C   UNL     1      -5.272  -1.086  10.774  0.00  0.00    +0.000 A 
ATOM     34  C   UNL     1      -6.489  -0.731  10.222  0.00  0.00    +0.000 A 
ATOM     35  C   UNL     1      -6.636  -0.681   8.849  0.00  0.00    +0.004 A 
ENDBRANCH  29  30
ENDBRANCH  28  29
ENDBRANCH   9  28
TORSDOF 6
