REMARK  Name = ZINC39684606
REMARK  10 active torsions:
REMARK  status: ('A' for Active; 'I' for Inactive)
REMARK    1  A    between atoms: C_1  and  C_2
REMARK    2  A    between atoms: C_2  and  C_4
REMARK    3  A    between atoms: C_2  and  N_8
REMARK    4  A    between atoms: C_4  and  C_5
REMARK    5  A    between atoms: C_4  and  C_6
REMARK    6  A    between atoms: C_4  and  C_7
REMARK    7  A    between atoms: C_9  and  C_11
REMARK    8  A    between atoms: C_22  and  C_24
REMARK    9  A    between atoms: C_28  and  O_29
REMARK   10  A    between atoms: O_29  and  C_30
REMARK                            x       y       z     vdW  Elec       q    Type
REMARK                         _______ _______ _______ _____ _____    ______ ____
ROOT
ATOM      1  C   UNL     1       0.729  -1.098  -3.605  0.00  0.00    +0.100 C 
ATOM      2  C   UNL     1       1.353  -2.490  -3.357  0.00  0.00    +0.121 C 
ATOM      3  N   UNL     1       0.337  -3.449  -3.850  0.00  0.00    -0.296 N 
ATOM      4  C   UNL     1      -0.199  -2.818  -5.080  0.00  0.00    +0.115 C 
ATOM      5  C   UNL     1      -0.286  -1.317  -4.740  0.00  0.00    -0.004 C 
ATOM      6  C   UNL     1       0.090  -0.477  -5.956  0.00  0.00    -0.010 C 
ATOM      7  C   UNL     1      -0.965  -0.666  -7.049  0.00  0.00    -0.082 C 
ATOM      8  N   UNL     1      -2.280  -0.262  -6.538  0.00  0.00    +0.379 N 
ATOM      9  C   UNL     1      -2.676  -1.136  -5.427  0.00  0.00    -0.082 C 
ATOM     10  C   UNL     1      -1.693  -0.966  -4.265  0.00  0.00    -0.010 C 
ATOM     11  C   UNL     1      -0.019  -4.629  -3.304  0.00  0.00    +0.251 C 
ATOM     12  O   UNL     1       0.445  -4.968  -2.233  0.00  0.00    -0.270 OA
ATOM     13  H   UNL     1      -2.234   0.693  -6.213  0.00  0.00    -0.086 HD
ATOM     14  H   UNL     1      -2.962  -0.330  -7.278  0.00  0.00    -0.086 HD
ENDROOT
BRANCH  11  15
ATOM     15  C   UNL     1      -0.970  -5.506  -4.005  0.00  0.00    +0.087 A 
ATOM     16  C   UNL     1      -0.994  -5.593  -5.380  0.00  0.00    +0.063 A 
ATOM     17  S   UNL     1      -2.217  -6.694  -5.704  0.00  0.00    -0.081 S 
ATOM     18  C   UNL     1      -2.739  -7.079  -4.047  0.00  0.00    +0.120 A 
ATOM     19  C   UNL     1      -1.919  -6.322  -3.283  0.00  0.00    +0.158 A 
ATOM     20 CL   UNL     1      -3.993  -8.165  -3.536  0.00  0.00    -0.072 Cl
BRANCH  19  21
ATOM     21  O   UNL     1      -1.987  -6.326  -1.923  0.00  0.00    -0.492 OA
ATOM     22  C   UNL     1      -2.866  -5.378  -1.315  0.00  0.00    +0.277 C 
ENDBRANCH  19  21
ENDBRANCH  11  15
BRANCH   1  24
ATOM     23  N   UNL     1      -0.043   0.714  -2.109  0.00  0.00    -0.312 N 
ATOM     24  C   UNL     1       0.030  -0.607  -2.364  0.00  0.00    +0.218 C 
ATOM     25  O   UNL     1      -0.468  -1.401  -1.593  0.00  0.00    -0.275 OA
ATOM     26  H   UNL     1       0.355   1.349  -2.725  0.00  0.00    +0.149 HD
BRANCH  23  28
ATOM     27  C   UNL     1      -2.223   1.311  -1.175  0.00  0.00    +0.028 C 
ATOM     28  C   UNL     1      -0.722   1.192  -0.902  0.00  0.00    +0.075 C 
BRANCH  28  29
ATOM     29  C   UNL     1      -0.165   2.562  -0.511  0.00  0.00    -0.020 C 
ATOM     30  C   UNL     1      -0.874   3.060   0.749  0.00  0.00    +0.012 C 
ATOM     31  C   UNL     1       1.336   2.443  -0.238  0.00  0.00    +0.012 C 
ATOM     32  C   UNL     1      -0.398   3.553  -1.653  0.00  0.00    +0.012 C 
ENDBRANCH  28  29
ENDBRANCH  23  28
ENDBRANCH   1  24
TORSDOF 5
