REMARK  Name = ZINC35485408
REMARK  7 active torsions:
REMARK  status: ('A' for Active; 'I' for Inactive)
REMARK    1  A    between atoms: C_1  and  C_2
REMARK    2  A    between atoms: C_2  and  C_3
REMARK    3  A    between atoms: C_3  and  C_5
REMARK    4  A    between atoms: C_3  and  N_6
REMARK    5  A    between atoms: C_26  and  C_28
REMARK    6  A    between atoms: C_28  and  C_30
REMARK    7  A    between atoms: C_28  and  O_31
REMARK                            x       y       z     vdW  Elec       q    Type
REMARK                         _______ _______ _______ _____ _____    ______ ____
ROOT
ATOM      1  N   UNL     1      -0.045  -0.096   2.266  0.00  0.00    -0.239 N 
ATOM      2  C   UNL     1      -1.263  -0.573   2.546  0.00  0.00    +0.228 C 
ATOM      3  O   UNL     1      -1.842  -1.431   1.914  0.00  0.00    -0.275 OA
ATOM      4  C   UNL     1      -1.806   0.123   3.774  0.00  0.00    +0.109 C 
ATOM      5  C   UNL     1      -0.663   1.100   4.166  0.00  0.00    +0.123 C 
ATOM      6  C   UNL     1       0.391   0.844   3.113  0.00  0.00    +0.228 C 
ATOM      7  O   UNL     1       1.463   1.406   3.044  0.00  0.00    -0.275 OA
ATOM      8  C   UNL     1      -1.270   2.497   3.991  0.00  0.00    +0.136 C 
ATOM      9  C   UNL     1      -0.871   3.112   2.680  0.00  0.00    +0.003 A 
ATOM     10  C   UNL     1      -1.036   2.734   1.366  0.00  0.00    +0.008 A 
ATOM     11  C   UNL     1      -0.544   3.533   0.349  0.00  0.00    +0.000 A 
ATOM     12  C   UNL     1       0.111   4.712   0.656  0.00  0.00    +0.002 A 
ATOM     13  C   UNL     1       0.278   5.095   1.970  0.00  0.00    +0.023 A 
ATOM     14  C   UNL     1      -0.213   4.296   3.001  0.00  0.00    +0.039 A 
ATOM     15  N   UNL     1      -0.170   4.465   4.386  0.00  0.00    -0.283 N 
ATOM     16  C   UNL     1      -0.768   3.450   5.041  0.00  0.00    +0.243 C 
ATOM     17  O   UNL     1      -0.880   3.330   6.242  0.00  0.00    -0.273 OA
ATOM     18  N   UNL     1      -2.731   2.318   4.083  0.00  0.00    -0.293 NA
ATOM     19  C   UNL     1      -2.992   1.021   3.364  0.00  0.00    +0.096 C 
ATOM     20  H   UNL     1       0.244   5.223   4.826  0.00  0.00    +0.155 HD
ATOM     21  H   UNL     1      -3.030   2.266   5.045  0.00  0.00    +0.124 HD
ENDROOT
BRANCH   1  22
ATOM     22  C   UNL     1       0.749  -0.568   1.130  0.00  0.00    +0.081 C 
ATOM     23  C   UNL     1       1.061   0.607   0.202  0.00  0.00    +0.028 C 
BRANCH  22  25
ATOM     24  C   UNL     1       1.751  -2.433   2.457  0.00  0.00    +0.006 C 
ATOM     25  C   UNL     1       2.057  -1.177   1.639  0.00  0.00    +0.019 C 
ENDBRANCH  22  25
ENDBRANCH   1  22
BRANCH  19  26
ATOM     26  C   UNL     1      -4.313   0.408   3.834  0.00  0.00    +0.129 C 
ATOM     27  C   UNL     1      -5.473   1.314   3.417  0.00  0.00    +0.039 C 
BRANCH  26  28
ATOM     28  O   UNL     1      -4.477  -0.881   3.239  0.00  0.00    -0.390 OA
ATOM     29  H   UNL     1      -4.497  -0.869   2.272  0.00  0.00    +0.210 HD
ENDBRANCH  26  28
ENDBRANCH  19  26
TORSDOF 4
