REMARK  Name = ZINC20636705
REMARK  5 active torsions:
REMARK  status: ('A' for Active; 'I' for Inactive)
REMARK    1  A    between atoms: C_1  and  C_2
REMARK    2  A    between atoms: C_8  and  C_29
REMARK    3  A    between atoms: N_18  and  C_21
REMARK    4  A    between atoms: C_26  and  O_27
REMARK    5  A    between atoms: O_27  and  C_28
REMARK                            x       y       z     vdW  Elec       q    Type
REMARK                         _______ _______ _______ _____ _____    ______ ____
ROOT
ATOM      1  C   UNL     1      -6.795  -2.919   4.852  0.00  0.00    +0.007 C 
ATOM      2  C   UNL     1      -7.733  -2.499   3.719  0.00  0.00    -0.014 C 
ATOM      3  C   UNL     1      -8.102  -1.024   3.882  0.00  0.00    +0.005 C 
ATOM      4  C   UNL     1      -9.042  -0.605   2.749  0.00  0.00    +0.028 C 
ATOM      5  C   UNL     1      -8.348  -0.818   1.406  0.00  0.00    +0.058 C 
ATOM      6  C   UNL     1      -7.973  -2.289   1.241  0.00  0.00    +0.028 C 
ATOM      7  C   UNL     1      -7.033  -2.706   2.374  0.00  0.00    +0.005 C 
ATOM      8  C   UNL     1      -9.279  -0.388   0.266  0.00  0.00    +0.202 C 
ATOM      9  C   UNL     1      -8.479  -0.303  -1.009  0.00  0.00    +0.258 C 
ATOM     10  O   UNL     1      -9.039  -0.472  -2.075  0.00  0.00    -0.272 OA
ATOM     11  N   UNL     1      -7.179  -0.048  -0.992  0.00  0.00    -0.150 NA
ATOM     12  C   UNL     1      -6.501   0.119   0.133  0.00  0.00    +0.175 C 
ATOM     13  N   UNL     1      -7.135   0.006   1.339  0.00  0.00    -0.312 N 
ATOM     14  N   UNL     1      -5.169   0.398   0.088  0.00  0.00    -0.302 N 
ATOM     15  C   UNL     1      -4.465   0.518  -1.198  0.00  0.00    +0.126 C 
ATOM     16  C   UNL     1      -3.221  -0.377  -1.157  0.00  0.00    +0.124 C 
ATOM     17  N   UNL     1      -2.417  -0.039   0.024  0.00  0.00    -0.324 N 
ATOM     18  C   UNL     1      -3.155  -0.309   1.266  0.00  0.00    +0.124 C 
ATOM     19  C   UNL     1      -4.396   0.588   1.325  0.00  0.00    +0.126 C 
ATOM     20  H   UNL     1      -6.761   0.510   2.243  0.00  0.00    +0.149 HD
ENDROOT
BRANCH  17  21
ATOM     21  C   UNL     1      -1.194  -0.719   0.010  0.00  0.00    +0.072 A 
ATOM     22  C   UNL     1      -1.169  -2.106   0.002  0.00  0.00    +0.027 A 
ATOM     23  C   UNL     1       0.041  -2.775  -0.013  0.00  0.00    +0.002 A 
ATOM     24  C   UNL     1       1.227  -2.065  -0.021  0.00  0.00    +0.004 A 
ATOM     25  C   UNL     1       1.210  -0.682  -0.019  0.00  0.00    +0.047 A 
ATOM     26  C   UNL     1       0.002  -0.004   0.002  0.00  0.00    +0.141 A 
BRANCH  26  27
ATOM     27  O   UNL     1      -0.016   1.356   0.009  0.00  0.00    -0.493 OA
ATOM     28  C   UNL     1       1.248   2.022   0.001  0.00  0.00    +0.277 C 
ENDBRANCH  26  27
ENDBRANCH  17  21
BRANCH   8  29
ATOM     29  C   UNL     1      -9.862   0.928   0.572  0.00  0.00    +0.077 C 
ATOM     30  N   UNL     1     -10.312   1.944   0.808  0.00  0.00    -0.196 NA
ENDBRANCH   8  29
TORSDOF 3
