REMARK  Name = ZINC12329068
REMARK  9 active torsions:
REMARK  status: ('A' for Active; 'I' for Inactive)
REMARK    1  A    between atoms: C_1  and  C_2
REMARK    2  A    between atoms: C_9  and  C_16
REMARK    3  A    between atoms: C_16  and  N_17
REMARK    4  A    between atoms: N_17  and  C_18
REMARK    5  A    between atoms: C_18  and  C_19
REMARK    6  A    between atoms: C_19  and  O_20
REMARK    7  A    between atoms: O_20  and  C_21
REMARK    8  A    between atoms: C_22  and  C_24
REMARK    9  A    between atoms: C_27  and  C_29
REMARK                            x       y       z     vdW  Elec       q    Type
REMARK                         _______ _______ _______ _____ _____    ______ ____
ROOT
ATOM      1  C   UNL     1       6.810   1.986   1.682  0.00  0.00    +0.044 C 
ATOM      2  C   UNL     1       5.320   1.788   1.575  0.00  0.00    -0.050 A 
ATOM      3  C   UNL     1       4.462   2.635   2.272  0.00  0.00    +0.005 A 
ATOM      4  C   UNL     1       3.111   2.484   2.196  0.00  0.00    +0.026 A 
ATOM      5  C   UNL     1       2.568   1.458   1.404  0.00  0.00    +0.048 A 
ATOM      6  C   UNL     1       3.442   0.598   0.696  0.00  0.00    -0.001 A 
ATOM      7  C   UNL     1       4.830   0.783   0.797  0.00  0.00    +0.013 A 
ATOM      8  C   UNL     1       2.898  -0.431  -0.099  0.00  0.00    +0.018 A 
ATOM      9  C   UNL     1       1.543  -0.557  -0.154  0.00  0.00    +0.008 A 
ATOM     10  C   UNL     1       0.730   0.327   0.570  0.00  0.00    +0.104 A 
ATOM     11  N   UNL     1      -0.648   0.187   0.504  0.00  0.00    -0.316 N 
ATOM     12  C   UNL     1      -1.121  -0.871   1.434  0.00  0.00    +0.106 C 
ATOM     13  C   UNL     1      -2.621  -0.533   1.623  0.00  0.00    +0.020 C 
ATOM     14  C   UNL     1      -2.627   1.012   1.644  0.00  0.00    +0.020 C 
ATOM     15  C   UNL     1      -1.328   1.430   0.930  0.00  0.00    +0.106 C 
ATOM     16  N   UNL     1       1.197   1.333   1.350  0.00  0.00    -0.343 N 
ATOM     17  H   UNL     1       0.570   1.961   1.867  0.00  0.00    +0.167 HD
ENDROOT
BRANCH   9  18
ATOM     18  C   UNL     1       0.918  -1.643  -0.992  0.00  0.00    +0.146 C 
BRANCH  18  19
ATOM     19  N   UNL     1       1.963  -2.549  -1.474  0.00  0.00    -0.290 N 
ATOM     20  C   UNL     1       2.267  -3.660  -0.774  0.00  0.00    +0.266 C 
ATOM     21  O   UNL     1       1.726  -3.872   0.295  0.00  0.00    -0.268 OA
BRANCH  20  22
ATOM     22  C   UNL     1       3.254  -4.617  -1.302  0.00  0.00    +0.133 A 
ATOM     23  C   UNL     1       3.688  -5.679  -0.550  0.00  0.00    +0.080 A 
ATOM     24  S   UNL     1       4.803  -6.441  -1.639  0.00  0.00    -0.080 S 
ATOM     25  C   UNL     1       4.633  -5.348  -2.974  0.00  0.00    +0.076 A 
ATOM     26  N   UNL     1       3.754  -4.486  -2.532  0.00  0.00    -0.240 NA
ATOM     27  C   UNL     1       5.321  -5.385  -4.314  0.00  0.00    +0.073 C 
ENDBRANCH  20  22
BRANCH  19  28
ATOM     28  C   UNL     1       2.678  -2.249  -2.717  0.00  0.00    +0.136 C 
BRANCH  28  29
ATOM     29  C   UNL     1       2.006  -2.979  -3.881  0.00  0.00    +0.178 C 
BRANCH  29  30
ATOM     30  O   UNL     1       0.682  -2.474  -4.060  0.00  0.00    -0.381 OA
ATOM     31  C   UNL     1      -0.037  -3.093  -5.129  0.00  0.00    +0.194 C 
ENDBRANCH  29  30
ENDBRANCH  28  29
ENDBRANCH  19  28
ENDBRANCH  18  19
ENDBRANCH   9  18
TORSDOF 6
