REMARK  Name = ZINC22356643
REMARK  4 active torsions:
REMARK  status: ('A' for Active; 'I' for Inactive)
REMARK    1  A    between atoms: C_1  and  C_2
REMARK    2  A    between atoms: C_8  and  C_10
REMARK    3  A    between atoms: C_11  and  C_25
REMARK    4  A    between atoms: C_16  and  C_18
REMARK                            x       y       z     vdW  Elec       q    Type
REMARK                         _______ _______ _______ _____ _____    ______ ____
ROOT
ATOM      1  C   UNL     1       1.804  -3.979  -0.024  0.00  0.00    +0.056 C 
ATOM      2  C   UNL     1       1.146  -5.157  -0.061  0.00  0.00    +0.017 C 
ATOM      3  N   UNL     1       1.822  -6.343  -0.069  0.00  0.00    -0.300 N 
ATOM      4  C   UNL     1       3.158  -6.436  -0.030  0.00  0.00    +0.135 C 
ATOM      5  S   UNL     1       3.879  -7.988  -0.037  0.00  0.00    -0.019 S 
ATOM      6  N   UNL     1       3.951  -5.348   0.016  0.00  0.00    -0.315 N 
ATOM      7  C   UNL     1       3.318  -4.018   0.022  0.00  0.00    +0.139 C 
ATOM      8  C   UNL     1      -0.361  -5.162  -0.101  0.00  0.00    +0.061 C 
ATOM      9  H   UNL     1       1.268  -7.292  -0.110  0.00  0.00    +0.154 HD
ATOM     10  H   UNL     1       5.048  -5.436   0.048  0.00  0.00    +0.149 HD
ENDROOT
BRANCH   1  18
ATOM     11  C   UNL     1      -1.146   2.237  -0.123  0.00  0.00    +0.089 C 
ATOM     12  C   UNL     1      -0.744   0.976   0.598  0.00  0.00    +0.136 A 
ATOM     13  C   UNL     1      -0.126  -0.100   0.061  0.00  0.00    +0.091 A 
ATOM     14  C   UNL     1       0.024  -0.992   1.157  0.00  0.00    +0.168 A 
ATOM     15  N   UNL     1      -0.495  -0.387   2.193  0.00  0.00    -0.063 NA
ATOM     16  O   UNL     1      -0.925   0.705   1.899  0.00  0.00    -0.358 OA
ATOM     17  N   UNL     1       0.609  -2.257   1.132  0.00  0.00    -0.264 N 
ATOM     18  C   UNL     1       1.104  -2.748  -0.021  0.00  0.00    +0.249 C 
ATOM     19  O   UNL     1       0.949  -2.134  -1.061  0.00  0.00    -0.270 OA
ATOM     20  H   UNL     1       0.666  -2.854   2.054  0.00  0.00    +0.157 HD
ENDBRANCH   1  18
BRANCH   7  21
ATOM     21  C   UNL     1       3.765  -3.298   1.268  0.00  0.00    -0.021 A 
ATOM     22  C   UNL     1       4.145  -1.970   1.200  0.00  0.00    +0.006 A 
ATOM     23  C   UNL     1       4.554  -1.308   2.342  0.00  0.00    +0.002 A 
ATOM     24  C   UNL     1       4.583  -1.973   3.554  0.00  0.00    +0.020 A 
ATOM     25  C   UNL     1       4.203  -3.302   3.623  0.00  0.00    +0.041 A 
ATOM     26  C   UNL     1       3.788  -3.962   2.480  0.00  0.00    +0.025 A 
ATOM     27 CL   UNL     1       4.240  -4.138   5.144  0.00  0.00    -0.084 Cl
ENDBRANCH   7  21
TORSDOF 2
