REMARK  Name = ZINC34747169
REMARK  4 active torsions:
REMARK  status: ('A' for Active; 'I' for Inactive)
REMARK    1  A    between atoms: C_2  and  C_3
REMARK    2  A    between atoms: C_3  and  N_4
REMARK    3  A    between atoms: N_23  and  C_24
REMARK    4  A    between atoms: C_24  and  C_25
REMARK                            x       y       z     vdW  Elec       q    Type
REMARK                         _______ _______ _______ _____ _____    ______ ____
ROOT
ATOM      1  N   UNL     1       0.316  -1.710   2.162  0.00  0.00    +0.384 N 
ATOM      2  C   UNL     1       0.248  -2.426   3.442  0.00  0.00    -0.059 C 
ATOM      3  C   UNL     1       1.513  -3.271   3.621  0.00  0.00    +0.089 C 
ATOM      4  N   UNL     1       1.663  -4.143   2.445  0.00  0.00    -0.304 N 
ATOM      5  C   UNL     1       1.579  -3.527   1.111  0.00  0.00    +0.089 C 
ATOM      6  C   UNL     1       0.310  -2.670   1.051  0.00  0.00    -0.059 C 
ATOM      7  C   UNL     1       1.874  -5.491   2.588  0.00  0.00    +0.202 A 
ATOM      8  N   UNL     1       0.843  -6.307   2.657  0.00  0.00    -0.208 NA
ATOM      9  C   UNL     1       1.019  -7.616   2.795  0.00  0.00    +0.117 A 
ATOM     10  C   UNL     1       2.297  -8.194   2.875  0.00  0.00    +0.076 A 
ATOM     11  C   UNL     1       2.332  -9.649   3.028  0.00  0.00    -0.023 A 
ATOM     12  C   UNL     1       1.146 -10.289   3.075  0.00  0.00    -0.004 A 
ATOM     13  S   UNL     1      -0.073  -9.010   2.922  0.00  0.00    -0.073 S 
ATOM     14  C   UNL     1       0.914 -11.761   3.225  0.00  0.00    +0.043 C 
ATOM     15  C   UNL     1       2.235 -12.491   2.947  0.00  0.00    +0.005 C 
ATOM     16  C   UNL     1       3.353 -11.801   3.735  0.00  0.00    +0.005 C 
ATOM     17  C   UNL     1       3.641 -10.427   3.131  0.00  0.00    +0.037 C 
ATOM     18  C   UNL     1       3.398  -7.283   2.798  0.00  0.00    +0.264 A 
ATOM     19  O   UNL     1       4.544  -7.693   2.858  0.00  0.00    -0.267 OA
ATOM     20  N   UNL     1       3.150  -5.968   2.652  0.00  0.00    -0.271 N 
ATOM     21  H   UNL     1       1.164  -1.165   2.129  0.00  0.00    -0.081 HD
ENDROOT
BRANCH   1  22
ATOM     22  C   UNL     1      -0.844  -0.817   2.040  0.00  0.00    -0.052 C 
BRANCH  22  24
ATOM     23  C   UNL     1      -0.817   1.512   2.774  0.00  0.00    +0.002 C 
ATOM     24  C   UNL     1      -0.774   0.245   3.107  0.00  0.00    -0.053 C 
ENDBRANCH  22  24
ENDBRANCH   1  22
BRANCH  20  25
ATOM     25  C   UNL     1       4.273  -5.031   2.567  0.00  0.00    +0.224 C 
BRANCH  25  26
ATOM     26  C   UNL     1       4.699  -4.630   3.956  0.00  0.00    +0.236 C 
ATOM     27  O   UNL     1       4.121  -5.082   4.922  0.00  0.00    -0.274 OA
ATOM     28  N   UNL     1       5.721  -3.768   4.125  0.00  0.00    -0.300 N 
ATOM     29  C   UNL     1       6.500  -3.142   3.047  0.00  0.00    +0.108 C 
ATOM     30  C   UNL     1       7.576  -2.257   3.714  0.00  0.00    +0.020 C 
ATOM     31  C   UNL     1       7.705  -2.876   5.131  0.00  0.00    +0.020 C 
ATOM     32  C   UNL     1       6.239  -3.293   5.421  0.00  0.00    +0.108 C 
ENDBRANCH  25  26
ENDBRANCH  20  25
TORSDOF 4
