REMARK  Name = ZINC55591057
REMARK  10 active torsions:
REMARK  status: ('A' for Active; 'I' for Inactive)
REMARK    1  A    between atoms: C_1  and  C_2
REMARK    2  A    between atoms: C_4  and  S_12
REMARK    3  A    between atoms: C_7  and  O_8
REMARK    4  A    between atoms: O_8  and  C_9
REMARK    5  A    between atoms: C_9  and  C_10
REMARK    6  A    between atoms: C_9  and  C_11
REMARK    7  A    between atoms: S_12  and  N_15
REMARK    8  A    between atoms: N_15  and  C_16
REMARK    9  A    between atoms: C_21  and  C_22
REMARK   10  A    between atoms: C_25  and  C_27
REMARK                            x       y       z     vdW  Elec       q    Type
REMARK                         _______ _______ _______ _____ _____    ______ ____
ROOT
ATOM      1  S   UNL     1       0.085  -3.042  -2.841  0.00  0.00    +0.072 S 
ATOM      2  O   UNL     1      -0.574  -4.294  -2.707  0.00  0.00    -0.150 OA
ATOM      3  O   UNL     1      -0.488  -1.951  -3.549  0.00  0.00    -0.150 OA
ENDROOT
BRANCH   1   7
ATOM      4  C   UNL     1       1.018   0.813   0.562  0.00  0.00    +0.047 C 
ATOM      5  C   UNL     1       0.835  -0.661   0.307  0.00  0.00    -0.007 A 
ATOM      6  C   UNL     1       0.580  -1.115  -0.973  0.00  0.00    +0.035 A 
ATOM      7  C   UNL     1       0.411  -2.467  -1.208  0.00  0.00    +0.109 A 
ATOM      8  C   UNL     1       0.497  -3.368  -0.163  0.00  0.00    +0.032 A 
ATOM      9  C   UNL     1       0.753  -2.920   1.119  0.00  0.00    +0.048 A 
ATOM     10  C   UNL     1       0.927  -1.564   1.356  0.00  0.00    +0.124 A 
BRANCH  10  11
ATOM     11  O   UNL     1       1.184  -1.121   2.615  0.00  0.00    -0.489 OA
BRANCH  11  12
ATOM     12  C   UNL     1       1.168  -2.095   3.661  0.00  0.00    +0.167 C 
ATOM     13  C   UNL     1       2.018  -1.598   4.832  0.00  0.00    +0.051 C 
ATOM     14  C   UNL     1      -0.271  -2.313   4.132  0.00  0.00    +0.051 C 
ENDBRANCH  11  12
ENDBRANCH  10  11
ENDBRANCH   1   7
BRANCH   1  15
ATOM     15  N   UNL     1       1.548  -3.351  -3.553  0.00  0.00    -0.216 N 
ATOM     16  H   UNL     1       1.806  -2.876  -4.358  0.00  0.00    +0.174 HD
BRANCH  15  17
ATOM     17  C   UNL     1       2.409  -4.293  -2.994  0.00  0.00    +0.060 A 
ATOM     18  C   UNL     1       1.898  -5.436  -2.396  0.00  0.00    +0.025 A 
ATOM     19  C   UNL     1       2.754  -6.369  -1.843  0.00  0.00    +0.002 A 
ATOM     20  C   UNL     1       4.124  -6.172  -1.881  0.00  0.00    +0.001 A 
ATOM     21  C   UNL     1       4.648  -5.042  -2.472  0.00  0.00    +0.015 A 
ATOM     22  C   UNL     1       3.796  -4.093  -3.039  0.00  0.00    +0.061 A 
BRANCH  22  23
ATOM     23  C   UNL     1       4.352  -2.884  -3.678  0.00  0.00    +0.250 A 
ATOM     24  N   UNL     1       3.667  -1.913  -4.238  0.00  0.00    -0.107 NA
ATOM     25  N   UNL     1       4.481  -1.025  -4.690  0.00  0.00    -0.112 NA
ATOM     26  C   UNL     1       5.707  -1.390  -4.441  0.00  0.00    +0.215 A 
ATOM     27  O   UNL     1       5.658  -2.567  -3.792  0.00  0.00    -0.420 OA
ATOM     28  C   UNL     1       6.954  -0.627  -4.808  0.00  0.00    +0.111 C 
ENDBRANCH  22  23
ENDBRANCH  15  17
ENDBRANCH   1  15
TORSDOF 6
