REMARK  Name = ZINC02398774
REMARK  3 active torsions:
REMARK  status: ('A' for Active; 'I' for Inactive)
REMARK    1  A    between atoms: C_1  and  C_2
REMARK    2  A    between atoms: C_5  and  C_8
REMARK    3  A    between atoms: C_11  and  C_26
REMARK                            x       y       z     vdW  Elec       q    Type
REMARK                         _______ _______ _______ _____ _____    ______ ____
ROOT
ATOM      1  C   UNL     1       0.059  -4.275  -0.021  0.00  0.00    +0.106 C 
ATOM      2  C   UNL     1      -1.353  -4.810   0.243  0.00  0.00    +0.058 C 
ATOM      3  C   UNL     1      -1.872  -4.262   1.578  0.00  0.00    +0.143 C 
ATOM      4  N   UNL     1      -0.849  -4.470   2.603  0.00  0.00    -0.224 N 
ATOM      5  C   UNL     1       0.459  -4.705   2.339  0.00  0.00    +0.216 A 
ATOM      6  N   UNL     1       1.084  -4.845   3.477  0.00  0.00    -0.179 NA
ATOM      7  C   UNL     1       0.213  -4.704   4.487  0.00  0.00    +0.251 A 
ATOM      8  N   UNL     1      -0.982  -4.473   3.992  0.00  0.00    -0.131 NA
ATOM      9  N   UNL     1       0.526  -4.791   5.849  0.00  0.00    -0.176 N 
ATOM     10  C   UNL     1      -0.391  -4.648   6.814  0.00  0.00    +0.229 C 
ATOM     11  O   UNL     1      -1.571  -4.432   6.635  0.00  0.00    -0.275 OA
ATOM     12  C   UNL     1       0.277  -4.798   8.163  0.00  0.00    +0.106 C 
ATOM     13  C   UNL     1       1.756  -5.056   7.807  0.00  0.00    +0.106 C 
ATOM     14  C   UNL     1       1.766  -5.030   6.294  0.00  0.00    +0.229 C 
ATOM     15  O   UNL     1       2.743  -5.196   5.596  0.00  0.00    -0.275 OA
ATOM     16  N   UNL     1       0.959  -4.765   1.041  0.00  0.00    -0.307 N 
ATOM     17  H   UNL     1       1.844  -5.110   0.845  0.00  0.00    +0.149 HD
ENDROOT
BRANCH   1  22
ATOM     18  C   UNL     1      -0.018   1.503   0.010  0.00  0.00    +0.044 C 
ATOM     19  C   UNL     1       0.002  -0.004   0.002  0.00  0.00    -0.050 A 
ATOM     20  C   UNL     1       0.006  -0.689  -1.199  0.00  0.00    +0.004 A 
ATOM     21  C   UNL     1       0.025  -2.071  -1.206  0.00  0.00    +0.006 A 
ATOM     22  C   UNL     1       0.040  -2.768  -0.013  0.00  0.00    -0.027 A 
ATOM     23  C   UNL     1       0.037  -2.084   1.188  0.00  0.00    +0.006 A 
ATOM     24  C   UNL     1       0.023  -0.702   1.195  0.00  0.00    +0.004 A 
ENDBRANCH   1  22
BRANCH   3  25
ATOM     25  C   UNL     1      -3.134  -4.989   1.966  0.00  0.00    -0.023 A 
ATOM     26  C   UNL     1      -3.111  -6.358   2.159  0.00  0.00    +0.008 A 
ATOM     27  C   UNL     1      -4.268  -7.025   2.515  0.00  0.00    +0.038 A 
ATOM     28  C   UNL     1      -5.450  -6.323   2.677  0.00  0.00    +0.123 A 
ATOM     29  C   UNL     1      -5.471  -4.952   2.483  0.00  0.00    +0.038 A 
ATOM     30  C   UNL     1      -4.312  -4.286   2.133  0.00  0.00    +0.008 A 
ATOM     31  F   UNL     1      -6.581  -6.974   3.025  0.00  0.00    -0.205 F 
ENDBRANCH   3  25
TORSDOF 2
