REMARK  Name = ZINC52015748
REMARK  6 active torsions:
REMARK  status: ('A' for Active; 'I' for Inactive)
REMARK    1  A    between atoms: C_1  and  N_2
REMARK    2  A    between atoms: N_2  and  C_3
REMARK    3  A    between atoms: C_4  and  S_11
REMARK    4  A    between atoms: S_11  and  N_14
REMARK    5  A    between atoms: N_14  and  C_15
REMARK    6  A    between atoms: C_21  and  O_23
REMARK                            x       y       z     vdW  Elec       q    Type
REMARK                         _______ _______ _______ _____ _____    ______ ____
ROOT
ATOM      1  S   UNL     1       0.079  -3.228   0.017  0.00  0.00    +0.078 S 
ATOM      2  O   UNL     1      -0.032  -2.568  -1.237  0.00  0.00    -0.151 OA
ATOM      3  O   UNL     1       0.844  -4.413   0.188  0.00  0.00    -0.151 OA
ENDROOT
BRANCH   1   5
ATOM      4  C   UNL     1       0.629  -0.703   1.045  0.00  0.00    +0.166 A 
ATOM      5  C   UNL     1       0.722  -2.045   1.153  0.00  0.00    +0.221 A 
ATOM      6  N   UNL     1       1.420  -2.325   2.331  0.00  0.00    -0.276 N 
ATOM      7  C   UNL     1       1.854  -3.431   3.030  0.00  0.00    +0.102 A 
ATOM      8  C   UNL     1       2.523  -3.295   4.174  0.00  0.00    +0.067 A 
ATOM      9  S   UNL     1       2.591  -1.520   4.353  0.00  0.00    -0.058 S 
ATOM     10  C   UNL     1       1.709  -1.099   2.868  0.00  0.00    +0.181 A 
ATOM     11  N   UNL     1       1.246  -0.151   2.104  0.00  0.00    -0.204 NA
BRANCH   4  13
ATOM     12  C   UNL     1      -0.018   1.461   0.010  0.00  0.00    +0.127 C 
ATOM     13  N   UNL     1       0.002  -0.004   0.002  0.00  0.00    -0.329 N 
ATOM     14  H   UNL     1      -0.418  -0.491  -0.724  0.00  0.00    +0.147 HD
ENDBRANCH   4  13
ENDBRANCH   1   5
BRANCH   1  15
ATOM     15  N   UNL     1      -1.463  -3.585   0.502  0.00  0.00    -0.183 NA
ATOM     16  H   UNL     1      -1.680  -4.480   0.808  0.00  0.00    +0.148 HD
BRANCH  15  17
ATOM     17  C   UNL     1      -2.500  -2.551   0.470  0.00  0.00    +0.105 C 
ATOM     18  C   UNL     1      -2.609  -1.895   1.848  0.00  0.00    +0.023 C 
ATOM     19  C   UNL     1      -2.977  -2.954   2.889  0.00  0.00    +0.002 C 
ATOM     20  C   UNL     1      -4.319  -3.588   2.519  0.00  0.00    +0.003 C 
ATOM     21  C   UNL     1      -4.210  -4.244   1.141  0.00  0.00    +0.033 C 
ATOM     22  C   UNL     1      -3.842  -3.185   0.100  0.00  0.00    +0.133 C 
BRANCH  22  23
ATOM     23  O   UNL     1      -3.740  -3.798  -1.187  0.00  0.00    -0.390 OA
ATOM     24  H   UNL     1      -4.556  -4.221  -1.487  0.00  0.00    +0.210 HD
ENDBRANCH  22  23
ENDBRANCH  15  17
ENDBRANCH   1  15
TORSDOF 5
