REMARK  Name = ZINC26498169
REMARK  7 active torsions:
REMARK  status: ('A' for Active; 'I' for Inactive)
REMARK    1  A    between atoms: C_1  and  C_2
REMARK    2  A    between atoms: C_3  and  C_20
REMARK    3  A    between atoms: C_4  and  N_19
REMARK    4  A    between atoms: C_20  and  O_22
REMARK    5  A    between atoms: O_22  and  C_23
REMARK    6  A    between atoms: C_23  and  C_24
REMARK    7  A    between atoms: C_24  and  C_25
REMARK                            x       y       z     vdW  Elec       q    Type
REMARK                         _______ _______ _______ _____ _____    ______ ____
ROOT
ATOM      1  C   UNL     1      -0.567  -6.268  -0.208  0.00  0.00    +0.064 C 
ATOM      2  C   UNL     1      -0.074  -4.846  -0.146  0.00  0.00    +0.030 A 
ATOM      3  C   UNL     1       1.261  -4.578  -0.462  0.00  0.00    +0.099 A 
ATOM      4  C   UNL     1       1.778  -3.268  -0.421  0.00  0.00    +0.050 A 
ATOM      5  C   UNL     1       0.854  -2.254  -0.039  0.00  0.00    +0.031 A 
ATOM      6  C   UNL     1       1.141  -0.831   0.081  0.00  0.00    -0.026 A 
ATOM      7  C   UNL     1       0.116  -0.035   0.458  0.00  0.00    +0.001 A 
ATOM      8  S   UNL     1      -1.268  -1.128   0.671  0.00  0.00    -0.075 S 
ATOM      9  C   UNL     1      -0.472  -2.649   0.256  0.00  0.00    +0.087 A 
ATOM     10  N   UNL     1      -0.919  -3.890   0.206  0.00  0.00    -0.352 N 
ATOM     11  C   UNL     1       0.142   1.444   0.653  0.00  0.00    +0.107 C 
ATOM     12  C   UNL     1       1.580   1.954   0.671  0.00  0.00    +0.175 C 
ATOM     13  C   UNL     1       2.446   1.259  -0.363  0.00  0.00    +0.070 C 
ATOM     14  C   UNL     1       2.516  -0.243  -0.198  0.00  0.00    +0.042 C 
ATOM     15  O   UNL     1       2.135   1.726   1.983  0.00  0.00    -0.346 OA
ATOM     16  C   UNL     1       2.974   2.877   2.237  0.00  0.00    +0.191 C 
ATOM     17  C   UNL     1       2.156   4.013   1.574  0.00  0.00    +0.191 C 
ATOM     18  O   UNL     1       1.579   3.370   0.421  0.00  0.00    -0.346 OA
ATOM     19  H   UNL     1      -1.963  -4.140   0.448  0.00  0.00    +0.166 HD
ENDROOT
BRANCH   4  20
ATOM     20  N   UNL     1       3.095  -2.986  -0.730  0.00  0.00    -0.357 N 
ATOM     21  H   UNL     1       3.461  -1.950  -0.685  0.00  0.00    +0.142 HD
ATOM     22  H   UNL     1       3.778  -3.799  -1.020  0.00  0.00    +0.142 HD
ENDBRANCH   4  20
BRANCH   3  23
ATOM     23  C   UNL     1       2.145  -5.688  -0.846  0.00  0.00    +0.343 C 
ATOM     24  O   UNL     1       2.776  -6.284   0.004  0.00  0.00    -0.245 OA
BRANCH  23  25
ATOM     25  O   UNL     1       2.255  -6.045  -2.141  0.00  0.00    -0.461 OA
BRANCH  25  26
ATOM     26  C   UNL     1       3.146  -7.150  -2.447  0.00  0.00    +0.233 C 
BRANCH  26  27
ATOM     27  C   UNL     1       3.140  -7.408  -3.955  0.00  0.00    +0.044 C 
BRANCH  27  28
ATOM     28  C   UNL     1       4.079  -8.572  -4.277  0.00  0.00    -0.008 C 
ATOM     29  C   UNL     1       5.303  -8.273  -5.146  0.00  0.00    +0.004 C 
ATOM     30  C   UNL     1       4.126  -9.062  -5.726  0.00  0.00    +0.004 C 
ENDBRANCH  27  28
ENDBRANCH  26  27
ENDBRANCH  25  26
ENDBRANCH  23  25
ENDBRANCH   3  23
TORSDOF 6
