REMARK  Name = ZINC02704257
REMARK  12 active torsions:
REMARK  status: ('A' for Active; 'I' for Inactive)
REMARK    1  A    between atoms: C_1  and  C_2
REMARK    2  A    between atoms: C_7  and  C_8
REMARK    3  A    between atoms: C_14  and  C_24
REMARK    4  A    between atoms: N_16  and  C_19
REMARK    5  A    between atoms: C_19  and  C_20
REMARK    6  A    between atoms: C_20  and  C_21
REMARK    7  A    between atoms: C_21  and  N_64
REMARK    8  A    between atoms: C_22  and  N_64
REMARK    9  A    between atoms: C_23  and  N_64
REMARK   10  A    between atoms: C_27  and  C_30
REMARK   11  A    between atoms: C_30  and  C_31
REMARK   12  A    between atoms: C_30  and  C_32
REMARK                            x       y       z     vdW  Elec       q    Type
REMARK                         _______ _______ _______ _____ _____    ______ ____
ROOT
ATOM      1  C   UNL     1      -2.509   0.985   0.019  0.00  0.00    +0.044 C 
ATOM      2  C   UNL     1      -1.212   1.753   0.017  0.00  0.00    -0.047 A 
ATOM      3  C   UNL     1      -0.013   1.076   0.008  0.00  0.00    +0.019 A 
ATOM      4  C   UNL     1       1.182   1.794   0.000  0.00  0.00    +0.065 A 
ATOM      5  C   UNL     1       1.168   3.200   0.008  0.00  0.00    +0.140 A 
ATOM      6  C   UNL     1      -0.056   3.862   0.024  0.00  0.00    +0.050 A 
ATOM      7  C   UNL     1      -1.230   3.141   0.032  0.00  0.00    -0.044 A 
ATOM      8  C   UNL     1      -2.550   3.868   0.049  0.00  0.00    +0.044 C 
ATOM      9  O   UNL     1       2.320   3.893   0.001  0.00  0.00    -0.450 OA
ATOM     10  C   UNL     1       3.539   3.317  -0.015  0.00  0.00    +0.199 A 
ATOM     11  C   UNL     1       3.679   1.969  -0.024  0.00  0.00    +0.072 A 
ATOM     12  C   UNL     1       2.491   1.112  -0.016  0.00  0.00    +0.199 A 
ATOM     13  O   UNL     1       2.579  -0.103  -0.024  0.00  0.00    -0.287 OA
ATOM     14  C   UNL     1       5.155   1.668  -0.041  0.00  0.00    +0.144 C 
ATOM     15  N   UNL     1       5.834   2.970  -0.040  0.00  0.00    -0.284 N 
ATOM     16  C   UNL     1       4.892   3.928  -0.025  0.00  0.00    +0.283 C 
ATOM     17  O   UNL     1       5.115   5.122  -0.021  0.00  0.00    -0.267 OA
ENDROOT
BRANCH  14  18
ATOM     18  C   UNL     1       5.513   0.896  -1.284  0.00  0.00    -0.022 A 
ATOM     19  C   UNL     1       5.644   1.555  -2.493  0.00  0.00    +0.006 A 
ATOM     20  C   UNL     1       5.978   0.847  -3.633  0.00  0.00    +0.004 A 
ATOM     21  C   UNL     1       6.170  -0.520  -3.566  0.00  0.00    -0.045 A 
ATOM     22  C   UNL     1       6.034  -1.179  -2.359  0.00  0.00    +0.004 A 
ATOM     23  C   UNL     1       5.706  -0.471  -1.218  0.00  0.00    +0.006 A 
BRANCH  21  24
ATOM     24  C   UNL     1       6.528  -1.292  -4.810  0.00  0.00    +0.013 C 
ATOM     25  C   UNL     1       5.418  -1.125  -5.851  0.00  0.00    +0.012 C 
ATOM     26  C   UNL     1       7.845  -0.761  -5.379  0.00  0.00    +0.012 C 
ENDBRANCH  21  24
ENDBRANCH  14  18
BRANCH  15  27
ATOM     27  C   UNL     1       7.283   3.186  -0.053  0.00  0.00    +0.107 C 
BRANCH  27  28
ATOM     28  C   UNL     1       7.773   3.269  -1.500  0.00  0.00    +0.000 C 
BRANCH  28  29
ATOM     29  C   UNL     1       9.286   3.495  -1.514  0.00  0.00    -0.078 C 
BRANCH  29  32
ATOM     30  C   UNL     1       9.219   4.766  -3.574  0.00  0.00    -0.097 C 
ATOM     31  C   UNL     1      11.224   3.554  -2.964  0.00  0.00    -0.097 C 
ATOM     32  N   UNL     1       9.747   3.552  -2.917  0.00  0.00    +0.376 N 
ATOM     33  H   UNL     1       9.399   2.725  -3.417  0.00  0.00    -0.083 HD
ENDBRANCH  29  32
ENDBRANCH  28  29
ENDBRANCH  27  28
ENDBRANCH  15  27
TORSDOF 6
