REMARK  Name = ZINC10233171
REMARK  13 active torsions:
REMARK  status: ('A' for Active; 'I' for Inactive)
REMARK    1  A    between atoms: C_1  and  C_2
REMARK    2  A    between atoms: C_2  and  N_65
REMARK    3  A    between atoms: C_3  and  C_4
REMARK    4  A    between atoms: C_3  and  N_65
REMARK    5  A    between atoms: C_5  and  C_6
REMARK    6  A    between atoms: C_5  and  N_65
REMARK    7  A    between atoms: C_6  and  C_7
REMARK    8  A    between atoms: C_7  and  N_8
REMARK    9  A    between atoms: C_9  and  C_26
REMARK   10  A    between atoms: C_16  and  C_25
REMARK   11  A    between atoms: C_17  and  C_24
REMARK   12  A    between atoms: C_29  and  O_32
REMARK   13  A    between atoms: O_32  and  C_33
REMARK                            x       y       z     vdW  Elec       q    Type
REMARK                         _______ _______ _______ _____ _____    ______ ____
ROOT
ATOM      1  N   UNL     1       6.128   3.057   0.073  0.00  0.00    -0.284 N 
ATOM      2  C   UNL     1       5.386   1.793  -0.013  0.00  0.00    +0.144 C 
ATOM      3  C   UNL     1       3.927   2.163   0.059  0.00  0.00    +0.072 A 
ATOM      4  C   UNL     1       2.698   1.366   0.028  0.00  0.00    +0.199 A 
ATOM      5  O   UNL     1       2.725   0.152  -0.075  0.00  0.00    -0.287 OA
ATOM      6  C   UNL     1       1.425   2.107   0.126  0.00  0.00    +0.065 A 
ATOM      7  C   UNL     1       0.197   1.448   0.106  0.00  0.00    +0.019 A 
ATOM      8  C   UNL     1      -0.960   2.173   0.194  0.00  0.00    -0.047 A 
ATOM      9  C   UNL     1      -0.915   3.555   0.315  0.00  0.00    -0.044 A 
ATOM     10  C   UNL     1       0.291   4.222   0.337  0.00  0.00    +0.050 A 
ATOM     11  C   UNL     1       1.481   3.506   0.242  0.00  0.00    +0.140 A 
ATOM     12  O   UNL     1       2.666   4.142   0.262  0.00  0.00    -0.450 OA
ATOM     13  C   UNL     1       3.854   3.511   0.175  0.00  0.00    +0.199 A 
ATOM     14  C   UNL     1       5.235   4.056   0.182  0.00  0.00    +0.283 C 
ATOM     15  O   UNL     1       5.518   5.234   0.272  0.00  0.00    -0.267 OA
ATOM     16  C   UNL     1      -2.199   4.336   0.417  0.00  0.00    +0.044 C 
ATOM     17  C   UNL     1      -2.291   1.466   0.166  0.00  0.00    +0.044 C 
ENDROOT
BRANCH   2  18
ATOM     18  C   UNL     1       5.682   1.103  -1.319  0.00  0.00    -0.022 A 
ATOM     19  C   UNL     1       5.665   1.822  -2.499  0.00  0.00    +0.009 A 
ATOM     20  C   UNL     1       5.942   1.193  -3.698  0.00  0.00    +0.046 A 
ATOM     21  C   UNL     1       6.226  -0.165  -3.717  0.00  0.00    +0.120 A 
ATOM     22  C   UNL     1       6.238  -0.886  -2.532  0.00  0.00    +0.046 A 
ATOM     23  C   UNL     1       5.966  -0.251  -1.335  0.00  0.00    +0.009 A 
BRANCH  21  24
ATOM     24  O   UNL     1       6.494  -0.788  -4.895  0.00  0.00    -0.495 OA
ATOM     25  C   UNL     1       6.465   0.017  -6.075  0.00  0.00    +0.277 C 
ENDBRANCH  21  24
ENDBRANCH   2  18
BRANCH   1  26
ATOM     26  C   UNL     1       7.586   3.204   0.044  0.00  0.00    +0.107 C 
BRANCH  26  27
ATOM     27  C   UNL     1       8.039   3.514  -1.384  0.00  0.00    +0.000 C 
BRANCH  27  28
ATOM     28  C   UNL     1       9.567   3.583  -1.431  0.00  0.00    -0.077 C 
BRANCH  28  29
ATOM     29  N   UNL     1       9.991   3.742  -2.838  0.00  0.00    +0.379 N 
ATOM     30  H   UNL     1       9.423   3.123  -3.429  0.00  0.00    -0.082 HD
BRANCH  29  32
ATOM     31  C   UNL     1      10.020   5.226  -4.782  0.00  0.00    -0.017 C 
ATOM     32  C   UNL     1       9.788   5.140  -3.272  0.00  0.00    -0.082 C 
ENDBRANCH  29  32
BRANCH  29  33
ATOM     33  C   UNL     1      11.414   3.370  -2.981  0.00  0.00    -0.082 C 
ATOM     34  C   UNL     1      11.524   1.844  -2.984  0.00  0.00    -0.017 C 
ENDBRANCH  29  33
ENDBRANCH  28  29
ENDBRANCH  27  28
ENDBRANCH  26  27
ENDBRANCH   1  26
TORSDOF 8
