REMARK  Name = ZINC64813632
REMARK  7 active torsions:
REMARK  status: ('A' for Active; 'I' for Inactive)
REMARK    1  A    between atoms: C_1  and  C_2
REMARK    2  A    between atoms: C_3  and  C_22
REMARK    3  A    between atoms: N_9  and  C_10
REMARK    4  A    between atoms: C_10  and  C_11
REMARK    5  A    between atoms: C_14  and  C_16
REMARK    6  A    between atoms: C_22  and  C_23
REMARK    7  A    between atoms: N_25  and  C_26
REMARK                            x       y       z     vdW  Elec       q    Type
REMARK                         _______ _______ _______ _____ _____    ______ ____
ROOT
ATOM      1  C   UNL     1       0.225   1.495  -0.017  0.00  0.00    +0.061 C 
ATOM      2  C   UNL     1       0.117  -0.008  -0.011  0.00  0.00    +0.015 C 
ATOM      3  C   UNL     1      -0.097  -0.666  -1.170  0.00  0.00    +0.042 C 
ATOM      4  C   UNL     1      -0.212  -2.085  -1.180  0.00  0.00    +0.267 C 
ATOM      5  O   UNL     1      -0.480  -2.699  -2.198  0.00  0.00    -0.268 OA
ATOM      6  N   UNL     1      -0.009  -2.714  -0.008  0.00  0.00    -0.150 N 
ATOM      7  C   UNL     1       0.746  -2.071   1.097  0.00  0.00    +0.279 C 
ATOM      8  N   UNL     1       0.244  -0.695   1.176  0.00  0.00    -0.295 N 
ATOM      9  N   UNL     1       0.369  -2.876   2.261  0.00  0.00    -0.293 N 
ATOM     10  C   UNL     1      -0.237  -4.026   1.757  0.00  0.00    +0.147 C 
ATOM     11  N   UNL     1      -0.410  -3.950   0.470  0.00  0.00    -0.158 NA
ATOM     12  H   UNL     1       0.512  -2.655   3.194  0.00  0.00    +0.151 HD
ENDROOT
BRANCH  10  13
ATOM     13  C   UNL     1      -0.633  -5.187   2.582  0.00  0.00    +0.016 A 
ATOM     14  C   UNL     1      -0.411  -5.176   3.960  0.00  0.00    +0.011 A 
ATOM     15  C   UNL     1      -0.782  -6.262   4.724  0.00  0.00    +0.001 A 
ATOM     16  C   UNL     1      -1.374  -7.362   4.128  0.00  0.00    +0.000 A 
ATOM     17  C   UNL     1      -1.597  -7.379   2.762  0.00  0.00    +0.001 A 
ATOM     18  C   UNL     1      -1.235  -6.296   1.987  0.00  0.00    +0.011 A 
ENDBRANCH  10  13
BRANCH   8  19
ATOM     19  C   UNL     1      -0.109  -0.083   2.459  0.00  0.00    +0.135 C 
BRANCH  19  20
ATOM     20  C   UNL     1      -1.560  -0.355   2.763  0.00  0.00    -0.016 C 
ATOM     21  C   UNL     1      -1.897  -0.926   3.892  0.00  0.00    +0.005 C 
ENDBRANCH  19  20
ENDBRANCH   8  19
BRANCH   3  22
ATOM     22  C   UNL     1      -0.215   0.105  -2.459  0.00  0.00    +0.137 C 
BRANCH  22  23
ATOM     23  C   UNL     1       1.129   0.159  -3.138  0.00  0.00    +0.220 C 
ATOM     24  O   UNL     1       2.089  -0.376  -2.625  0.00  0.00    -0.275 OA
ATOM     25  N   UNL     1       1.265   0.802  -4.314  0.00  0.00    -0.278 N 
ATOM     26  H   UNL     1       0.497   1.230  -4.725  0.00  0.00    +0.152 HD
BRANCH  25  27
ATOM     27  C   UNL     1       2.572   0.855  -4.974  0.00  0.00    +0.269 C 
ATOM     28  N   UNL     1       3.421   1.865  -4.330  0.00  0.00    -0.348 N 
ATOM     29  C   UNL     1       3.719   2.756  -5.230  0.00  0.00    +0.061 A 
ATOM     30  C   UNL     1       4.524   3.985  -5.191  0.00  0.00    +0.027 A 
ATOM     31  C   UNL     1       4.659   4.727  -6.309  0.00  0.00    +0.002 A 
ATOM     32  C   UNL     1       4.057   4.376  -7.530  0.00  0.00    +0.002 A 
ATOM     33  C   UNL     1       3.299   3.271  -7.675  0.00  0.00    +0.027 A 
ATOM     34  C   UNL     1       3.082   2.384  -6.523  0.00  0.00    +0.061 A 
ATOM     35  N   UNL     1       2.414   1.277  -6.372  0.00  0.00    -0.348 N 
ATOM     36  H   UNL     1       3.707   1.867  -3.403  0.00  0.00    +0.163 HD
ATOM     37  H   UNL     1       1.907   0.815  -7.057  0.00  0.00    +0.163 HD
ENDBRANCH  25  27
ENDBRANCH  22  23
ENDBRANCH   3  22
TORSDOF 6
