REMARK  Name = ZINC04482907
REMARK  6 active torsions:
REMARK  status: ('A' for Active; 'I' for Inactive)
REMARK    1  A    between atoms: C_1  and  C_2
REMARK    2  A    between atoms: N_13  and  C_16
REMARK    3  A    between atoms: C_16  and  C_18
REMARK    4  A    between atoms: C_16  and  C_19
REMARK    5  A    between atoms: N_21  and  N_22
REMARK    6  A    between atoms: N_22  and  C_23
REMARK                            x       y       z     vdW  Elec       q    Type
REMARK                         _______ _______ _______ _____ _____    ______ ____
ROOT
ATOM      1  C   UNL     1      -2.164  -7.406   0.426  0.00  0.00    +0.175 C 
ATOM      2  C   UNL     1      -1.341  -8.484  -0.281  0.00  0.00    +0.041 C 
ENDROOT
BRANCH   1  14
ATOM      3  C   UNL     1      -0.019   1.526   0.010  0.00  0.00    +0.008 C 
ATOM      4  C   UNL     1       0.002  -0.004   0.002  0.00  0.00    -0.009 C 
ATOM      5  C   UNL     1      -1.433  -0.537   0.021  0.00  0.00    +0.008 C 
ATOM      6  C   UNL     1      -1.430  -2.044  -0.237  0.00  0.00    +0.037 C 
ATOM      7  C   UNL     1      -0.472  -2.712   0.745  0.00  0.00    -0.023 A 
ATOM      8  C   UNL     1       0.476  -1.985   1.383  0.00  0.00    -0.004 A 
ATOM      9  S   UNL     1       1.343  -3.148   2.406  0.00  0.00    -0.073 S 
ATOM     10  C   UNL     1       0.437  -4.601   1.978  0.00  0.00    +0.116 A 
ATOM     11  C   UNL     1      -0.517  -4.131   1.048  0.00  0.00    +0.076 A 
ATOM     12  C   UNL     1      -1.426  -5.099   0.502  0.00  0.00    +0.263 A 
ATOM     13  O   UNL     1      -2.286  -4.796  -0.308  0.00  0.00    -0.267 OA
ATOM     14  N   UNL     1      -1.267  -6.369   0.944  0.00  0.00    -0.287 N 
ATOM     15  C   UNL     1      -0.319  -6.726   1.843  0.00  0.00    +0.204 A 
ATOM     16  N   UNL     1       0.532  -5.869   2.365  0.00  0.00    -0.230 NA
ATOM     17  C   UNL     1       0.737  -0.516   1.249  0.00  0.00    +0.046 C 
ENDBRANCH   1  14
BRANCH   1  18
ATOM     18  C   UNL     1      -2.928  -8.025   1.568  0.00  0.00    +0.252 C 
ATOM     19  O   UNL     1      -2.742  -7.638   2.702  0.00  0.00    -0.272 OA
ATOM     20  N   UNL     1      -3.818  -9.008   1.329  0.00  0.00    -0.235 N 
ATOM     21  H   UNL     1      -3.967  -9.317   0.421  0.00  0.00    +0.173 HD
BRANCH  20  22
ATOM     22  N   UNL     1      -4.528  -9.584   2.390  0.00  0.00    -0.271 N 
ATOM     23  H   UNL     1      -4.380  -9.275   3.297  0.00  0.00    +0.169 HD
BRANCH  22  24
ATOM     24  C   UNL     1      -5.414 -10.562   2.152  0.00  0.00    +0.099 C 
ATOM     25  C   UNL     1      -6.123 -11.136   3.210  0.00  0.00    +0.037 C 
ATOM     26  C   UNL     1      -5.923 -10.694   4.536  0.00  0.00    +0.013 C 
ATOM     27  C   UNL     1      -6.622 -11.265   5.553  0.00  0.00    +0.001 C 
ATOM     28  C   UNL     1      -7.540 -12.285   5.321  0.00  0.00    +0.004 C 
ATOM     29  C   UNL     1      -7.780 -12.757   4.067  0.00  0.00    +0.051 C 
ATOM     30  C   UNL     1      -7.096 -12.209   2.968  0.00  0.00    +0.187 C 
ATOM     31  O   UNL     1      -7.305 -12.619   1.834  0.00  0.00    -0.287 OA
ENDBRANCH  22  24
ENDBRANCH  20  22
ENDBRANCH   1  18
TORSDOF 4
