REMARK  Name = ZINC24797896
REMARK  9 active torsions:
REMARK  status: ('A' for Active; 'I' for Inactive)
REMARK    1  A    between atoms: C_1  and  C_2
REMARK    2  A    between atoms: C_5  and  C_7
REMARK    3  A    between atoms: C_7  and  N_8
REMARK    4  A    between atoms: N_8  and  C_9
REMARK    5  A    between atoms: N_8  and  C_10
REMARK    6  A    between atoms: C_10  and  C_11
REMARK    7  A    between atoms: N_13  and  C_14
REMARK    8  A    between atoms: C_14  and  C_15
REMARK    9  A    between atoms: N_17  and  C_18
REMARK                            x       y       z     vdW  Elec       q    Type
REMARK                         _______ _______ _______ _____ _____    ______ ____
ROOT
ATOM      1  C   UNL     1      -2.773  -2.730   2.867  0.00  0.00    +0.197 C 
ATOM      2  O   UNL     1      -2.115  -2.226   3.753  0.00  0.00    -0.278 OA
ATOM      3  N   UNL     1      -3.673  -3.689   3.159  0.00  0.00    -0.308 N 
ATOM      4  H   UNL     1      -4.270  -4.146   2.356  0.00  0.00    +0.149 HD
ENDROOT
BRANCH   1   5
ATOM      5  C   UNL     1      -2.584  -2.283   1.441  0.00  0.00    +0.019 C 
BRANCH   5   6
ATOM      6  N   UNL     1      -1.555  -1.236   1.388  0.00  0.00    +0.388 N 
ATOM      7  C   UNL     1      -2.005  -0.020   2.079  0.00  0.00    -0.095 C 
ATOM      8  H   UNL     1      -0.663  -1.611   1.912  0.00  0.00    -0.081 HD
BRANCH   6   9
ATOM      9  C   UNL     1      -1.173  -0.942   0.000  0.00  0.00    -0.003 C 
BRANCH   9  14
ATOM     10  C   UNL     1       1.714   3.194  -0.013  0.00  0.00    +0.086 C 
ATOM     11  C   UNL     1       1.299   1.745  -0.014  0.00  0.00    +0.102 A 
ATOM     12  C   UNL     1       2.132   0.689  -0.026  0.00  0.00    +0.044 A 
ATOM     13  C   UNL     1       1.323  -0.471  -0.023  0.00  0.00    +0.043 A 
ATOM     14  C   UNL     1       0.044  -0.054  -0.009  0.00  0.00    +0.089 A 
ATOM     15  O   UNL     1       0.036   1.289  -0.004  0.00  0.00    -0.467 OA
ENDBRANCH   9  14
ENDBRANCH   6   9
ENDBRANCH   5   6
ENDBRANCH   1   5
BRANCH   3  16
ATOM     16  C   UNL     1      -3.857  -4.124   4.546  0.00  0.00    +0.200 C 
BRANCH  16  17
ATOM     17  C   UNL     1      -4.913  -5.198   4.600  0.00  0.00    +0.234 C 
ATOM     18  O   UNL     1      -5.458  -5.564   3.580  0.00  0.00    -0.274 OA
ATOM     19  N   UNL     1      -5.252  -5.752   5.781  0.00  0.00    -0.283 N 
ATOM     20  H   UNL     1      -4.707  -5.473   6.695  0.00  0.00    +0.155 HD
BRANCH  19  21
ATOM     21  C   UNL     1      -6.296  -6.681   5.845  0.00  0.00    +0.047 A 
ATOM     22  C   UNL     1      -6.511  -7.560   4.793  0.00  0.00    +0.024 A 
ATOM     23  C   UNL     1      -7.540  -8.478   4.860  0.00  0.00    +0.002 A 
ATOM     24  C   UNL     1      -8.363  -8.516   5.971  0.00  0.00    +0.001 A 
ATOM     25  C   UNL     1      -8.156  -7.639   7.019  0.00  0.00    +0.017 A 
ATOM     26  C   UNL     1      -7.125  -6.721   6.960  0.00  0.00    +0.039 A 
ATOM     27 BR   UNL     1      -6.843  -5.520   8.393  0.00  0.00    -0.048 Br
ENDBRANCH  19  21
ENDBRANCH  16  17
ENDBRANCH   3  16
TORSDOF 7
