REMARK  Name = ZINC34974551
REMARK  8 active torsions:
REMARK  status: ('A' for Active; 'I' for Inactive)
REMARK    1  A    between atoms: C_1  and  C_2
REMARK    2  A    between atoms: C_9  and  C_11
REMARK    3  A    between atoms: C_14  and  C_16
REMARK    4  A    between atoms: C_16  and  C_18
REMARK    5  A    between atoms: C_16  and  N_21
REMARK    6  A    between atoms: C_18  and  C_19
REMARK    7  A    between atoms: C_18  and  C_20
REMARK    8  A    between atoms: N_24  and  C_25
REMARK                            x       y       z     vdW  Elec       q    Type
REMARK                         _______ _______ _______ _____ _____    ______ ____
ROOT
ATOM      1  C   UNL     1      -3.804   0.639   2.809  0.00  0.00    +0.163 C 
ENDROOT
BRANCH   1  11
ATOM      2  C   UNL     1       0.134   1.430   0.203  0.00  0.00    +0.029 C 
ATOM      3  C   UNL     1       0.293  -0.067   0.478  0.00  0.00    +0.090 C 
ATOM      4  C   UNL     1      -1.085  -0.739   0.479  0.00  0.00    +0.130 C 
ATOM      5  N   UNL     1      -1.818  -0.307   1.677  0.00  0.00    -0.297 N 
ATOM      6  C   UNL     1      -1.199  -0.503   2.995  0.00  0.00    +0.127 C 
ATOM      7  C   UNL     1       0.179   0.170   2.994  0.00  0.00    +0.127 C 
ATOM      8  N   UNL     1       0.916  -0.263   1.794  0.00  0.00    -0.295 N 
ATOM      9  C   UNL     1       2.134  -0.830   1.899  0.00  0.00    +0.219 C 
ATOM     10  O   UNL     1       2.726  -1.184   0.902  0.00  0.00    -0.275 OA
ATOM     11  C   UNL     1      -3.036   0.260   1.568  0.00  0.00    +0.236 C 
ATOM     12  O   UNL     1      -3.514   0.465   0.473  0.00  0.00    -0.274 OA
BRANCH   9  13
ATOM     13  C   UNL     1       2.760  -1.025   3.256  0.00  0.00    +0.075 C 
ATOM     14  C   UNL     1       3.990  -0.180   3.595  0.00  0.00    +0.013 C 
ATOM     15  C   UNL     1       4.145  -1.675   3.309  0.00  0.00    +0.013 C 
ENDBRANCH   9  13
ENDBRANCH   1  11
BRANCH   1  16
ATOM     16  N   UNL     1      -4.994   1.405   2.431  0.00  0.00    -0.288 N 
ATOM     17  C   UNL     1      -5.550   2.263   3.310  0.00  0.00    +0.305 C 
ATOM     18  O   UNL     1      -5.064   2.400   4.416  0.00  0.00    -0.252 OA
ATOM     19  N   UNL     1      -6.644   2.968   2.962  0.00  0.00    -0.267 N 
ATOM     20  H   UNL     1      -5.381   1.296   1.549  0.00  0.00    +0.151 HD
ATOM     21  H   UNL     1      -6.989   2.914   2.058  0.00  0.00    +0.156 HD
BRANCH  19  22
ATOM     22  C   UNL     1      -7.285   3.780   3.909  0.00  0.00    +0.070 A 
ATOM     23  C   UNL     1      -6.541   4.426   4.887  0.00  0.00    +0.029 A 
ATOM     24  C   UNL     1      -7.174   5.226   5.819  0.00  0.00    +0.040 A 
ATOM     25  C   UNL     1      -8.549   5.384   5.779  0.00  0.00    +0.126 A 
ATOM     26  C   UNL     1      -9.294   4.741   4.805  0.00  0.00    +0.078 A 
ATOM     27  C   UNL     1      -8.664   3.944   3.866  0.00  0.00    +0.147 A 
ATOM     28  F   UNL     1      -9.390   3.321   2.912  0.00  0.00    -0.203 F 
ATOM     29  F   UNL     1      -9.164   6.167   6.692  0.00  0.00    -0.205 F 
ENDBRANCH  19  22
ENDBRANCH   1  16
BRANCH   1  30
ATOM     30  C   UNL     1      -4.229  -0.629   3.553  0.00  0.00    +0.012 C 
ATOM     31  C   UNL     1      -5.011  -0.244   4.810  0.00  0.00    +0.009 C 
ATOM     32  C   UNL     1      -5.114  -1.482   2.642  0.00  0.00    +0.009 C 
ENDBRANCH   1  30
TORSDOF 5
