REMARK  Name = ZINC04694518
REMARK  2 active torsions:
REMARK  status: ('A' for Active; 'I' for Inactive)
REMARK    1  A    between atoms: C_1  and  N_2
REMARK    2  A    between atoms: N_5  and  C_8
REMARK                            x       y       z     vdW  Elec       q    Type
REMARK                         _______ _______ _______ _____ _____    ______ ____
ROOT
ATOM      1  C   UNL     1      -0.013   1.086   0.008  0.00  0.00    +0.156 C 
ATOM      2  C   UNL     1      -0.709   1.567   1.252  0.00  0.00    +0.022 A 
ATOM      3  C   UNL     1      -0.460   0.934   2.457  0.00  0.00    +0.009 A 
ATOM      4  C   UNL     1      -1.091   1.361   3.610  0.00  0.00    +0.001 A 
ATOM      5  C   UNL     1      -1.975   2.423   3.563  0.00  0.00    +0.004 A 
ATOM      6  C   UNL     1      -2.218   3.059   2.371  0.00  0.00    +0.046 A 
ATOM      7  C   UNL     1      -1.589   2.632   1.207  0.00  0.00    +0.134 A 
ATOM      8  O   UNL     1      -1.855   3.267   0.041  0.00  0.00    -0.455 OA
ATOM      9  C   UNL     1      -1.615   2.645  -1.139  0.00  0.00    +0.134 A 
ATOM     10  C   UNL     1      -0.732   1.580  -1.217  0.00  0.00    +0.022 A 
ATOM     11  C   UNL     1      -0.507   0.960  -2.433  0.00  0.00    +0.009 A 
ATOM     12  C   UNL     1      -1.159   1.399  -3.570  0.00  0.00    +0.001 A 
ATOM     13  C   UNL     1      -2.040   2.463  -3.495  0.00  0.00    +0.004 A 
ATOM     14  C   UNL     1      -2.269   3.085  -2.284  0.00  0.00    +0.046 A 
ENDROOT
BRANCH   1  19
ATOM     15  C   UNL     1       4.951   1.260  -0.038  0.00  0.00    +0.151 C 
ATOM     16  N   UNL     1       3.544   1.665  -0.023  0.00  0.00    -0.329 N 
ATOM     17  C   UNL     1       3.071   2.969  -0.011  0.00  0.00    +0.105 A 
ATOM     18  C   UNL     1       1.743   2.922   0.002  0.00  0.00    +0.107 A 
ATOM     19  N   UNL     1       1.363   1.589  -0.002  0.00  0.00    -0.315 N 
ATOM     20  C   UNL     1       2.481   0.836  -0.012  0.00  0.00    +0.161 A 
ATOM     21  S   UNL     1       2.541  -0.875  -0.013  0.00  0.00    -0.013 S 
ENDBRANCH   1  19
TORSDOF 1
