REMARK  Name = ZINC15811940
REMARK  11 active torsions:
REMARK  status: ('A' for Active; 'I' for Inactive)
REMARK    1  A    between atoms: C_1  and  C_2
REMARK    2  A    between atoms: C_4  and  C_15
REMARK    3  A    between atoms: C_5  and  C_14
REMARK    4  A    between atoms: N_6  and  C_7
REMARK    5  A    between atoms: C_15  and  O_17
REMARK    6  A    between atoms: O_17  and  C_18
REMARK    7  A    between atoms: C_18  and  C_20
REMARK    8  A    between atoms: C_18  and  C_21
REMARK    9  A    between atoms: N_23  and  C_24
REMARK   10  A    between atoms: C_28  and  S_30
REMARK   11  A    between atoms: S_30  and  N_33
REMARK                            x       y       z     vdW  Elec       q    Type
REMARK                         _______ _______ _______ _____ _____    ______ ____
ROOT
ATOM      1  C   UNL     1      -3.702   2.128  -0.184  0.00  0.00    +0.259 C 
ATOM      2  C   UNL     1      -3.893   2.999   1.059  0.00  0.00    +0.062 C 
ENDROOT
BRANCH   1   3
ATOM      3  C   UNL     1      -2.394   1.385  -0.081  0.00  0.00    +0.258 C 
ATOM      4  O   UNL     1      -2.383   0.173  -0.088  0.00  0.00    -0.271 OA
ATOM      5  N   UNL     1      -1.237   2.069   0.019  0.00  0.00    -0.282 N 
ATOM      6  H   UNL     1      -1.250   3.036   0.102  0.00  0.00    +0.155 HD
BRANCH   5   7
ATOM      7  C   UNL     1      -0.017   1.385   0.004  0.00  0.00    +0.035 A 
ATOM      8  C   UNL     1       0.124   0.230  -0.753  0.00  0.00    +0.023 A 
ATOM      9  C   UNL     1       1.332  -0.440  -0.771  0.00  0.00    +0.004 A 
ATOM     10  C   UNL     1       2.400   0.039  -0.035  0.00  0.00    +0.028 A 
ATOM     11  C   UNL     1       2.264   1.189   0.720  0.00  0.00    +0.107 A 
ATOM     12  C   UNL     1       1.058   1.863   0.742  0.00  0.00    +0.051 A 
BRANCH  11  13
ATOM     13  S   UNL     1       3.628   1.796   1.655  0.00  0.00    +0.056 S 
ATOM     14  O   UNL     1       3.083   2.582   2.705  0.00  0.00    -0.153 OA
ATOM     15  O   UNL     1       4.480   0.684   1.898  0.00  0.00    -0.153 OA
BRANCH  13  16
ATOM     16  N   UNL     1       4.471   2.832   0.676  0.00  0.00    -0.204 NA
ATOM     17  H   UNL     1       4.169   2.995  -0.232  0.00  0.00    +0.144 HD
ATOM     18  H   UNL     1       5.267   3.275   1.009  0.00  0.00    +0.144 HD
ENDBRANCH  13  16
ENDBRANCH  11  13
ENDBRANCH   5   7
ENDBRANCH   1   3
BRANCH   1  19
ATOM     19  O   UNL     1      -4.793   1.175  -0.280  0.00  0.00    -0.449 OA
BRANCH  19  20
ATOM     20  C   UNL     1      -5.884   1.562  -0.971  0.00  0.00    +0.342 C 
ATOM     21  O   UNL     1      -5.922   2.666  -1.478  0.00  0.00    -0.245 OA
BRANCH  20  25
ATOM     22  C   UNL     1      -8.919  -2.522  -0.603  0.00  0.00    +0.064 C 
ATOM     23  C   UNL     1      -8.355  -1.165  -0.936  0.00  0.00    +0.022 A 
ATOM     24  C   UNL     1      -7.147  -0.709  -0.564  0.00  0.00    +0.038 A 
ATOM     25  C   UNL     1      -7.029   0.648  -1.110  0.00  0.00    +0.080 A 
ATOM     26  C   UNL     1      -8.211   0.895  -1.774  0.00  0.00    +0.035 A 
ATOM     27  N   UNL     1      -8.991  -0.200  -1.667  0.00  0.00    -0.317 N 
ATOM     28  C   UNL     1      -8.569   2.167  -2.500  0.00  0.00    +0.065 C 
BRANCH  27  29
ATOM     29  C   UNL     1     -10.273  -0.328  -2.220  0.00  0.00    +0.047 A 
ATOM     30  C   UNL     1     -10.439  -0.323  -3.598  0.00  0.00    +0.029 A 
ATOM     31  C   UNL     1     -11.702  -0.454  -4.141  0.00  0.00    +0.040 A 
ATOM     32  C   UNL     1     -12.803  -0.581  -3.311  0.00  0.00    +0.124 A 
ATOM     33  C   UNL     1     -12.640  -0.581  -1.936  0.00  0.00    +0.040 A 
ATOM     34  C   UNL     1     -11.378  -0.455  -1.390  0.00  0.00    +0.029 A 
ATOM     35  F   UNL     1     -14.039  -0.705  -3.844  0.00  0.00    -0.205 F 
ENDBRANCH  27  29
ENDBRANCH  20  25
ENDBRANCH  19  20
ENDBRANCH   1  19
TORSDOF 8
