REMARK  Name = ZINC09512097
REMARK  4 active torsions:
REMARK  status: ('A' for Active; 'I' for Inactive)
REMARK    1  A    between atoms: C_1  and  C_2
REMARK    2  A    between atoms: C_10  and  C_12
REMARK    3  A    between atoms: C_12  and  N_38
REMARK    4  A    between atoms: C_17  and  C_19
REMARK                            x       y       z     vdW  Elec       q    Type
REMARK                         _______ _______ _______ _____ _____    ______ ____
ROOT
ATOM      1  C   UNL     1      -7.383   4.288   5.112  0.00  0.00    +0.064 C 
ATOM      2  C   UNL     1      -6.341   3.212   4.946  0.00  0.00    +0.033 A 
ATOM      3  C   UNL     1      -5.841   2.611   6.026  0.00  0.00    +0.070 A 
ATOM      4  S   UNL     1      -4.685   1.459   5.301  0.00  0.00    -0.057 S 
ATOM      5  C   UNL     1      -4.972   1.884   3.596  0.00  0.00    +0.180 A 
ATOM      6  N   UNL     1      -5.921   2.867   3.684  0.00  0.00    -0.259 N 
ATOM      7  C   UNL     1      -6.352   3.404   2.504  0.00  0.00    +0.259 A 
ATOM      8  O   UNL     1      -7.197   4.285   2.506  0.00  0.00    -0.267 OA
ATOM      9  C   UNL     1      -5.826   2.945   1.296  0.00  0.00    +0.092 A 
ATOM     10  C   UNL     1      -4.872   1.949   1.300  0.00  0.00    +0.033 A 
ATOM     11  N   UNL     1      -4.477   1.444   2.466  0.00  0.00    -0.229 NA
ENDROOT
BRANCH  10  12
ATOM     12  C   UNL     1      -4.291   1.438   0.007  0.00  0.00    -0.022 C 
BRANCH  12  19
ATOM     13  C   UNL     1      -2.675   3.239   0.097  0.00  0.00    -0.078 C 
ATOM     14  C   UNL     1      -1.201   3.588  -0.127  0.00  0.00    -0.019 C 
ATOM     15  C   UNL     1      -0.343   2.825   0.886  0.00  0.00    -0.003 C 
ATOM     16  C   UNL     1      -0.597   1.323   0.730  0.00  0.00    -0.016 C 
ATOM     17  C   UNL     1      -2.088   1.040   0.929  0.00  0.00    -0.071 C 
ATOM     18  C   UNL     1      -2.350  -0.458   0.755  0.00  0.00    -0.013 C 
ATOM     19  N   UNL     1      -2.858   1.784  -0.091  0.00  0.00    +0.385 N 
ATOM     20  H   UNL     1      -2.515   1.523  -1.023  0.00  0.00    -0.081 HD
ENDBRANCH  12  19
ENDBRANCH  10  12
TORSDOF 2
