REMARK  Name = ZINC37514944
REMARK  6 active torsions:
REMARK  status: ('A' for Active; 'I' for Inactive)
REMARK    1  A    between atoms: C_1  and  C_2
REMARK    2  A    between atoms: C_2  and  C_4
REMARK    3  A    between atoms: C_2  and  C_19
REMARK    4  A    between atoms: C_8  and  C_18
REMARK    5  A    between atoms: C_15  and  O_17
REMARK    6  A    between atoms: C_19  and  N_21
REMARK                            x       y       z     vdW  Elec       q    Type
REMARK                         _______ _______ _______ _____ _____    ______ ____
ROOT
ATOM      1  C   UNL     1      -0.009   1.543   0.017  0.00  0.00    +0.017 C 
ATOM      2  C   UNL     1      -0.002   0.013   0.010  0.00  0.00    +0.080 C 
ENDROOT
BRANCH   2   3
ATOM      3  C   UNL     1      -1.443  -0.503   0.028  0.00  0.00    +0.033 C 
ATOM      4  C   UNL     1      -1.446  -2.039  -0.000  0.00  0.00    +0.008 C 
ATOM      5  C   UNL     1      -2.857  -2.514   0.339  0.00  0.00    +0.015 C 
ATOM      6  C   UNL     1      -3.891  -1.938  -0.589  0.00  0.00    +0.010 C 
ATOM      7  C   UNL     1      -4.525  -2.967  -1.483  0.00  0.00    -0.012 C 
ATOM      8  C   UNL     1      -5.421  -2.521  -2.389  0.00  0.00    +0.047 C 
ATOM      9  C   UNL     1      -5.635  -1.047  -2.391  0.00  0.00    +0.179 C 
ATOM     10  O   UNL     1      -6.738  -0.545  -2.502  0.00  0.00    -0.288 OA
ATOM     11  C   UNL     1      -4.396  -0.235  -2.247  0.00  0.00    +0.053 C 
ATOM     12  C   UNL     1      -3.506  -0.713  -1.346  0.00  0.00    -0.028 C 
ATOM     13  C   UNL     1      -2.184  -0.014  -1.217  0.00  0.00    +0.145 C 
ATOM     14  C   UNL     1      -5.031  -1.487   0.326  0.00  0.00    +0.020 C 
BRANCH  13  15
ATOM     15  O   UNL     1      -1.393  -0.284  -2.375  0.00  0.00    -0.387 OA
ATOM     16  H   UNL     1      -1.800   0.000  -3.205  0.00  0.00    +0.210 HD
ENDBRANCH  13  15
ENDBRANCH   2   3
BRANCH   2  17
ATOM     17  C   UNL     1       0.727  -0.491   1.229  0.00  0.00    +0.242 C 
ATOM     18  O   UNL     1       0.150  -1.196   2.034  0.00  0.00    -0.273 OA
BRANCH  17  19
ATOM     19  N   UNL     1       2.001  -0.166   1.423  0.00  0.00    -0.156 NA
ATOM     20  C   UNL     1       2.615  -0.523   2.549  0.00  0.00    +0.164 A 
ATOM     21  N   UNL     1       2.135  -1.309   3.545  0.00  0.00    -0.335 N 
ATOM     22  H   UNL     1       1.242  -1.683   3.483  0.00  0.00    +0.168 HD
ATOM     23  C   UNL     1       2.921  -1.576   4.650  0.00  0.00    +0.055 A 
ATOM     24  C   UNL     1       2.627  -2.352   5.780  0.00  0.00    +0.027 A 
ATOM     25  C   UNL     1       3.551  -2.501   6.787  0.00  0.00    +0.002 A 
ATOM     26  C   UNL     1       4.793  -1.891   6.717  0.00  0.00    +0.001 A 
ATOM     27  C   UNL     1       5.108  -1.120   5.612  0.00  0.00    +0.017 A 
ATOM     28  C   UNL     1       4.185  -0.971   4.604  0.00  0.00    +0.039 A 
ATOM     29  S   UNL     1       4.163  -0.109   3.054  0.00  0.00    -0.052 S 
ENDBRANCH  17  19
ENDBRANCH   2  17
TORSDOF 4
