REMARK  Name = ZINC19521499
REMARK  9 active torsions:
REMARK  status: ('A' for Active; 'I' for Inactive)
REMARK    1  A    between atoms: C_1  and  C_2
REMARK    2  A    between atoms: C_2  and  C_3
REMARK    3  A    between atoms: C_4  and  C_29
REMARK    4  A    between atoms: C_6  and  C_8
REMARK    5  A    between atoms: C_19  and  C_21
REMARK    6  A    between atoms: C_24  and  O_27
REMARK    7  A    between atoms: O_27  and  C_28
REMARK    8  A    between atoms: C_29  and  O_30
REMARK    9  A    between atoms: O_30  and  C_31
REMARK                            x       y       z     vdW  Elec       q    Type
REMARK                         _______ _______ _______ _____ _____    ______ ____
ROOT
ATOM      1  C   UNL     1      -3.330   3.356  -3.059  0.00  0.00    +0.283 C 
ATOM      2  O   UNL     1      -2.353   2.747  -2.664  0.00  0.00    -0.267 OA
ATOM      3  N   UNL     1      -3.600   3.413  -4.378  0.00  0.00    -0.282 N 
ATOM      4  C   UNL     1      -2.766   2.689  -5.349  0.00  0.00    +0.115 C 
ATOM      5  C   UNL     1      -3.615   1.611  -6.036  0.00  0.00    +0.074 C 
ATOM      6  C   UNL     1      -4.941   2.212  -6.423  0.00  0.00    +0.042 A 
ATOM      7  C   UNL     1      -5.448   3.356  -5.914  0.00  0.00    +0.087 A 
ATOM      8  N   UNL     1      -6.635   3.573  -6.484  0.00  0.00    -0.238 NA
ATOM      9  C   UNL     1      -6.886   2.610  -7.331  0.00  0.00    +0.197 A 
ATOM     10  N   UNL     1      -5.849   1.740  -7.322  0.00  0.00    -0.348 N 
ATOM     11  H   UNL     1      -5.648   0.809  -7.870  0.00  0.00    +0.166 HD
ATOM     12  C   UNL     1      -4.742   4.196  -4.882  0.00  0.00    +0.157 C 
ENDROOT
BRANCH  12  13
ATOM     13  C   UNL     1      -4.249   5.472  -5.516  0.00  0.00    -0.021 A 
ATOM     14  C   UNL     1      -4.597   6.693  -4.969  0.00  0.00    +0.009 A 
ATOM     15  C   UNL     1      -4.142   7.864  -5.544  0.00  0.00    +0.046 A 
ATOM     16  C   UNL     1      -3.345   7.813  -6.679  0.00  0.00    +0.120 A 
ATOM     17  C   UNL     1      -3.002   6.587  -7.229  0.00  0.00    +0.046 A 
ATOM     18  C   UNL     1      -3.455   5.419  -6.646  0.00  0.00    +0.009 A 
BRANCH  16  19
ATOM     19  O   UNL     1      -2.902   8.963  -7.250  0.00  0.00    -0.495 OA
ATOM     20  C   UNL     1      -3.294  10.190  -6.630  0.00  0.00    +0.277 C 
ENDBRANCH  16  19
ENDBRANCH  12  13
BRANCH   1  24
ATOM     21  C   UNL     1      -5.827   5.266  -1.279  0.00  0.00    +0.111 A 
ATOM     22  C   UNL     1      -5.170   4.736  -0.224  0.00  0.00    +0.020 A 
ATOM     23  C   UNL     1      -4.137   3.938  -0.740  0.00  0.00    +0.060 A 
ATOM     24  C   UNL     1      -4.213   4.027  -2.100  0.00  0.00    +0.190 A 
ATOM     25  O   UNL     1      -5.245   4.841  -2.408  0.00  0.00    -0.455 OA
BRANCH  21  27
ATOM     26  C   UNL     1      -6.537   7.638  -1.150  0.00  0.00    +0.012 C 
ATOM     27  C   UNL     1      -7.018   6.187  -1.199  0.00  0.00    +0.071 C 
ENDBRANCH  21  27
BRANCH  22  28
ATOM     28  C   UNL     1      -5.490   4.956   1.232  0.00  0.00    +0.198 C 
BRANCH  28  29
ATOM     29  O   UNL     1      -4.569   4.218   2.038  0.00  0.00    -0.378 OA
ATOM     30  C   UNL     1      -4.785   4.358   3.444  0.00  0.00    +0.194 C 
ENDBRANCH  28  29
ENDBRANCH  22  28
ENDBRANCH   1  24
TORSDOF 6
