REMARK  Name = ZINC39040845
REMARK  8 active torsions:
REMARK  status: ('A' for Active; 'I' for Inactive)
REMARK    1  A    between atoms: C_1  and  C_2
REMARK    2  A    between atoms: C_2  and  C_4
REMARK    3  A    between atoms: C_2  and  N_14
REMARK    4  A    between atoms: C_4  and  C_5
REMARK    5  A    between atoms: C_15  and  C_17
REMARK    6  A    between atoms: C_17  and  C_18
REMARK    7  A    between atoms: C_18  and  N_19
REMARK    8  A    between atoms: C_20  and  O_31
REMARK                            x       y       z     vdW  Elec       q    Type
REMARK                         _______ _______ _______ _____ _____    ______ ____
ROOT
ATOM      1  N   UNL     1       0.711  -0.489   1.189  0.00  0.00    -0.312 N 
ATOM      2  C   UNL     1       0.051  -0.633   2.355  0.00  0.00    +0.215 C 
ATOM      3  O   UNL     1      -1.129  -0.361   2.423  0.00  0.00    -0.276 OA
ATOM      4  H   UNL     1       1.654  -0.707   1.135  0.00  0.00    +0.149 HD
ENDROOT
BRANCH   1   6
ATOM      5  C   UNL     1      -0.019   1.526   0.010  0.00  0.00    +0.028 C 
ATOM      6  C   UNL     1       0.002  -0.004   0.002  0.00  0.00    +0.074 C 
BRANCH   6   7
ATOM      7  C   UNL     1       0.718  -0.497  -1.257  0.00  0.00    +0.059 C 
BRANCH   7   8
ATOM      8  C   UNL     1       0.632  -2.000  -1.327  0.00  0.00    -0.021 A 
ATOM      9  C   UNL     1      -0.473  -2.784  -1.884  0.00  0.00    +0.003 A 
ATOM     10  C   UNL     1      -1.694  -2.456  -2.477  0.00  0.00    +0.010 A 
ATOM     11  C   UNL     1      -2.529  -3.449  -2.906  0.00  0.00    +0.001 A 
ATOM     12  C   UNL     1      -2.174  -4.782  -2.756  0.00  0.00    +0.002 A 
ATOM     13  C   UNL     1      -0.974  -5.129  -2.174  0.00  0.00    +0.026 A 
ATOM     14  C   UNL     1      -0.108  -4.134  -1.731  0.00  0.00    +0.047 A 
ATOM     15  N   UNL     1       1.128  -4.154  -1.125  0.00  0.00    -0.360 N 
ATOM     16  C   UNL     1       1.555  -2.874  -0.897  0.00  0.00    +0.087 A 
ATOM     17  H   UNL     1       1.624  -4.956  -0.896  0.00  0.00    +0.165 HD
ENDBRANCH   7   8
ENDBRANCH   6   7
ENDBRANCH   1   6
BRANCH   2  18
ATOM     18  C   UNL     1       0.780  -1.133   3.576  0.00  0.00    +0.115 C 
BRANCH  18  19
ATOM     19  C   UNL     1      -0.191  -1.204   4.756  0.00  0.00    +0.121 C 
BRANCH  19  20
ATOM     20  N   UNL     1       0.517  -1.689   5.943  0.00  0.00    -0.256 N 
ATOM     21  C   UNL     1       0.575  -3.127   6.207  0.00  0.00    +0.299 C 
ATOM     22  N   UNL     1       1.823  -3.467   6.902  0.00  0.00    -0.303 N 
ATOM     23  C   UNL     1       2.240  -2.658   7.953  0.00  0.00    +0.042 A 
ATOM     24  C   UNL     1       2.982  -3.154   9.011  0.00  0.00    +0.024 A 
ATOM     25  C   UNL     1       3.368  -2.307  10.031  0.00  0.00    +0.002 A 
ATOM     26  C   UNL     1       3.019  -0.966  10.005  0.00  0.00    +0.001 A 
ATOM     27  C   UNL     1       2.281  -0.455   8.957  0.00  0.00    +0.015 A 
ATOM     28  C   UNL     1       1.886  -1.297   7.921  0.00  0.00    +0.058 A 
ATOM     29  C   UNL     1       1.109  -0.802   6.770  0.00  0.00    +0.251 C 
ATOM     30  O   UNL     1       1.000   0.392   6.571  0.00  0.00    -0.270 OA
ATOM     31  H   UNL     1       2.345  -4.239   6.633  0.00  0.00    +0.150 HD
BRANCH  21  32
ATOM     32  O   UNL     1      -0.535  -3.503   7.024  0.00  0.00    -0.359 OA
ATOM     33  H   UNL     1      -0.563  -4.445   7.241  0.00  0.00    +0.213 HD
ENDBRANCH  21  32
ENDBRANCH  19  20
ENDBRANCH  18  19
ENDBRANCH   2  18
TORSDOF 7
