REMARK  Name = ZINC13423340
REMARK  7 active torsions:
REMARK  status: ('A' for Active; 'I' for Inactive)
REMARK    1  A    between atoms: C_1  and  C_2
REMARK    2  A    between atoms: C_2  and  C_4
REMARK    3  A    between atoms: C_2  and  O_15
REMARK    4  A    between atoms: N_6  and  C_7
REMARK    5  A    between atoms: C_12  and  C_13
REMARK    6  A    between atoms: O_15  and  C_16
REMARK    7  A    between atoms: C_19  and  C_23
REMARK                            x       y       z     vdW  Elec       q    Type
REMARK                         _______ _______ _______ _____ _____    ______ ____
ROOT
ATOM      1  C   UNL     1       1.709   2.268   1.454  0.00  0.00    +0.062 C 
ATOM      2  C   UNL     1       1.245   2.027   0.016  0.00  0.00    +0.256 C 
ENDROOT
BRANCH   2   3
ATOM      3  C   UNL     1       1.111   3.349  -0.696  0.00  0.00    +0.258 C 
ATOM      4  O   UNL     1       0.021   3.729  -1.069  0.00  0.00    -0.271 OA
ATOM      5  N   UNL     1       2.203   4.107  -0.919  0.00  0.00    -0.281 N 
ATOM      6  H   UNL     1       3.063   3.835  -0.565  0.00  0.00    +0.155 HD
BRANCH   5   7
ATOM      7  C   UNL     1       2.094   5.284  -1.659  0.00  0.00    +0.051 A 
ATOM      8  C   UNL     1       0.948   6.061  -1.570  0.00  0.00    +0.024 A 
ATOM      9  C   UNL     1       0.844   7.228  -2.300  0.00  0.00    +0.002 A 
ATOM     10  C   UNL     1       1.876   7.628  -3.134  0.00  0.00    +0.001 A 
ATOM     11  C   UNL     1       3.020   6.865  -3.240  0.00  0.00    +0.021 A 
ATOM     12  C   UNL     1       3.141   5.685  -2.503  0.00  0.00    +0.073 A 
BRANCH  12  13
ATOM     13  C   UNL     1       4.326   4.888  -2.609  0.00  0.00    +0.101 C 
ATOM     14  N   UNL     1       5.267   4.256  -2.693  0.00  0.00    -0.191 NA
ENDBRANCH  12  13
ENDBRANCH   5   7
ENDBRANCH   2   3
BRANCH   2  15
ATOM     15  O   UNL     1      -0.020   1.363   0.028  0.00  0.00    -0.477 OA
BRANCH  15  16
ATOM     16  C   UNL     1      -0.003   0.005   0.031  0.00  0.00    +0.158 A 
ATOM     17  C   UNL     1      -0.011  -0.691  -1.173  0.00  0.00    +0.085 A 
ATOM     18  C   UNL     1       0.011  -2.069  -1.175  0.00  0.00    +0.039 A 
ATOM     19  C   UNL     1       0.031  -2.767   0.036  0.00  0.00    +0.066 A 
ATOM     20  C   UNL     1       0.033  -2.063   1.244  0.00  0.00    +0.039 A 
ATOM     21  C   UNL     1       0.016  -0.685   1.238  0.00  0.00    +0.085 A 
ATOM     22 CL   UNL     1       0.018   0.189   2.737  0.00  0.00    -0.080 Cl
ATOM     23 CL   UNL     1      -0.041   0.177  -2.676  0.00  0.00    -0.080 Cl
BRANCH  19  24
ATOM     24  C   UNL     1       0.050  -4.241   0.039  0.00  0.00    +0.387 C 
ATOM     25  O   UNL     1       0.067  -4.846   1.093  0.00  0.00    -0.241 OA
ATOM     26  O   UNL     1       0.048  -4.917  -1.126  0.00  0.00    -0.241 OA
ENDBRANCH  19  24
ENDBRANCH  15  16
ENDBRANCH   2  15
TORSDOF 6
