REMARK  Name = ZINC65119384
REMARK  4 active torsions:
REMARK  status: ('A' for Active; 'I' for Inactive)
REMARK    1  A    between atoms: C_6  and  N_7
REMARK    2  A    between atoms: N_7  and  S_8
REMARK    3  A    between atoms: S_8  and  C_11
REMARK    4  A    between atoms: C_13  and  C_16
REMARK                            x       y       z     vdW  Elec       q    Type
REMARK                         _______ _______ _______ _____ _____    ______ ____
ROOT
ATOM      1  C   UNL     1      -2.850  -2.921   0.015  0.00  0.00    +0.148 A 
ATOM      2  C   UNL     1      -3.666  -3.183  -1.031  0.00  0.00    +0.046 A 
ATOM      3  C   UNL     1      -4.968  -3.608  -0.783  0.00  0.00    +0.011 A 
ATOM      4  C   UNL     1      -5.373  -3.744   0.516  0.00  0.00    +0.057 A 
ATOM      5  S   UNL     1      -3.901  -3.276   1.413  0.00  0.00    -0.076 S 
ENDROOT
BRANCH   3   6
ATOM      6  C   UNL     1      -5.895  -3.905  -1.901  0.00  0.00    +0.092 A 
ATOM      7  C   UNL     1      -7.215  -4.336  -1.627  0.00  0.00    +0.035 A 
ATOM      8  C   UNL     1      -8.039  -4.600  -2.680  0.00  0.00    +0.073 A 
ATOM      9  C   UNL     1      -7.523  -4.428  -3.984  0.00  0.00    +0.265 A 
ATOM     10  O   UNL     1      -8.224  -4.652  -4.957  0.00  0.00    -0.266 OA
ATOM     11  N   UNL     1      -6.252  -4.014  -4.144  0.00  0.00    -0.243 N 
ATOM     12  N   UNL     1      -5.490  -3.764  -3.141  0.00  0.00    -0.171 NA
ATOM     13  H   UNL     1      -5.904  -3.898  -5.042  0.00  0.00    +0.192 HD
ENDBRANCH   3   6
BRANCH   1  14
ATOM     14  S   UNL     1      -1.175  -2.376   0.001  0.00  0.00    +0.098 S 
ATOM     15  O   UNL     1      -0.631  -2.768  -1.252  0.00  0.00    -0.148 OA
ATOM     16  O   UNL     1      -0.606  -2.781   1.239  0.00  0.00    -0.148 OA
BRANCH  14  17
ATOM     17  N   UNL     1      -1.199  -0.721   0.010  0.00  0.00    -0.097 NA
BRANCH  17  23
ATOM     18  C   UNL     1      -0.017   1.384   0.010  0.00  0.00    +0.029 A 
ATOM     19  C   UNL     1       1.171   2.091   0.002  0.00  0.00    +0.042 A 
ATOM     20  C   UNL     1       2.379   1.416  -0.013  0.00  0.00    +0.142 A 
ATOM     21  C   UNL     1       2.401   0.030  -0.022  0.00  0.00    +0.078 A 
ATOM     22  C   UNL     1       1.215  -0.680  -0.014  0.00  0.00    +0.049 A 
ATOM     23  C   UNL     1       0.002  -0.004   0.002  0.00  0.00    +0.076 A 
ATOM     24 CL   UNL     1       3.918  -0.814  -0.042  0.00  0.00    -0.081 Cl
ATOM     25  F   UNL     1       3.538   2.109  -0.021  0.00  0.00    -0.204 F 
ENDBRANCH  17  23
ENDBRANCH  14  17
ENDBRANCH   1  14
TORSDOF 4
