REMARK  Name = ZINC66772844
REMARK  5 active torsions:
REMARK  status: ('A' for Active; 'I' for Inactive)
REMARK    1  A    between atoms: C_1  and  C_2
REMARK    2  A    between atoms: C_2  and  C_3
REMARK    3  A    between atoms: C_2  and  C_4
REMARK    4  A    between atoms: C_2  and  N_11
REMARK    5  A    between atoms: C_12  and  C_14
REMARK                            x       y       z     vdW  Elec       q    Type
REMARK                         _______ _______ _______ _____ _____    ______ ____
ROOT
ATOM      1  N   UNL     1       0.448  -0.571  -1.486  0.00  0.00    -0.302 N 
ATOM      2  C   UNL     1       1.741  -0.439  -1.842  0.00  0.00    +0.250 C 
ATOM      3  O   UNL     1       2.548   0.005  -1.048  0.00  0.00    -0.270 OA
ATOM      4  H   UNL     1      -0.182  -0.993  -2.091  0.00  0.00    +0.150 HD
ENDROOT
BRANCH   2   5
ATOM      5  C   UNL     1       2.176  -0.831  -3.193  0.00  0.00    +0.101 A 
ATOM      6  C   UNL     1       3.475  -0.596  -3.605  0.00  0.00    +0.028 A 
ATOM      7  C   UNL     1       3.864  -0.985  -4.910  0.00  0.00    -0.001 A 
ATOM      8  C   UNL     1       5.176  -0.759  -5.354  0.00  0.00    +0.010 A 
ATOM      9  C   UNL     1       5.542  -1.138  -6.613  0.00  0.00    +0.001 A 
ATOM     10  C   UNL     1       4.625  -1.746  -7.461  0.00  0.00    +0.002 A 
ATOM     11  C   UNL     1       3.332  -1.979  -7.048  0.00  0.00    +0.026 A 
ATOM     12  C   UNL     1       2.934  -1.602  -5.768  0.00  0.00    +0.049 A 
ATOM     13  N   UNL     1       1.640  -1.834  -5.350  0.00  0.00    -0.321 N 
ATOM     14  H   UNL     1       1.012  -2.260  -5.954  0.00  0.00    +0.169 HD
ATOM     15  C   UNL     1       1.239  -1.482  -4.114  0.00  0.00    +0.261 A 
ATOM     16  O   UNL     1       0.094  -1.701  -3.763  0.00  0.00    -0.267 OA
ENDBRANCH   2   5
BRANCH   1  18
ATOM     17  C   UNL     1       0.334   1.409  -0.054  0.00  0.00    +0.036 C 
ATOM     18  C   UNL     1      -0.008  -0.077  -0.184  0.00  0.00    +0.054 C 
ATOM     19  C   UNL     1       0.689  -0.860   0.931  0.00  0.00    +0.036 C 
BRANCH  18  20
ATOM     20  C   UNL     1      -1.499  -0.261  -0.070  0.00  0.00    -0.025 A 
ATOM     21  C   UNL     1      -2.076  -0.476   1.167  0.00  0.00    +0.007 A 
ATOM     22  C   UNL     1      -3.444  -0.645   1.272  0.00  0.00    +0.020 A 
ATOM     23  C   UNL     1      -4.236  -0.599   0.138  0.00  0.00    +0.041 A 
ATOM     24  C   UNL     1      -3.657  -0.383  -1.100  0.00  0.00    +0.020 A 
ATOM     25  C   UNL     1      -2.290  -0.208  -1.203  0.00  0.00    +0.007 A 
ATOM     26 CL   UNL     1      -5.954  -0.811   0.269  0.00  0.00    -0.084 Cl
ENDBRANCH  18  20
ENDBRANCH   1  18
TORSDOF 3
