REMARK  Name = ZINC38981351
REMARK  3 active torsions:
REMARK  status: ('A' for Active; 'I' for Inactive)
REMARK    1  A    between atoms: C_1  and  C_2
REMARK    2  A    between atoms: C_4  and  C_8
REMARK    3  A    between atoms: C_15  and  C_17
REMARK                            x       y       z     vdW  Elec       q    Type
REMARK                         _______ _______ _______ _____ _____    ______ ____
ROOT
ATOM      1  C   UNL     1      -0.964  -2.951   1.248  0.00  0.00    +0.230 C 
ATOM      2  N   UNL     1      -0.412  -2.311   2.451  0.00  0.00    -0.242 N 
ATOM      3  N   UNL     1       0.408  -3.269   3.058  0.00  0.00    -0.161 NA
ATOM      4  C   UNL     1       0.416  -4.367   2.388  0.00  0.00    +0.201 C 
ATOM      5  N   UNL     1      -0.385  -4.318   1.251  0.00  0.00    -0.175 N 
ATOM      6  N   UNL     1      -0.427  -5.472   0.476  0.00  0.00    -0.168 NA
ATOM      7  C   UNL     1       0.248  -6.537   0.805  0.00  0.00    +0.130 C 
ATOM      8  S   UNL     1       1.067  -6.024   2.313  0.00  0.00    -0.029 S 
ATOM      9  H   UNL     1      -0.582  -1.408   2.762  0.00  0.00    +0.170 HD
ENDROOT
BRANCH   7  10
ATOM     10  C   UNL     1       0.321  -7.839   0.107  0.00  0.00    +0.009 A 
ATOM     11  C   UNL     1      -0.395  -8.042  -1.074  0.00  0.00    +0.012 A 
ATOM     12  C   UNL     1      -0.323  -9.258  -1.720  0.00  0.00    +0.016 A 
ATOM     13  C   UNL     1       0.457 -10.277  -1.198  0.00  0.00    +0.018 A 
ATOM     14  C   UNL     1       1.168 -10.082  -0.027  0.00  0.00    +0.016 A 
ATOM     15  C   UNL     1       1.109  -8.867   0.625  0.00  0.00    +0.012 A 
ATOM     16 BR   UNL     1       0.549 -11.942  -2.090  0.00  0.00    -0.050 Br
ENDBRANCH   7  10
BRANCH   1  20
ATOM     17  C   UNL     1      -0.018   1.503   0.010  0.00  0.00    +0.067 C 
ATOM     18  C   UNL     1       0.002  -0.004   0.002  0.00  0.00    +0.058 C 
ATOM     19  C   UNL     1      -1.086  -0.777   0.003  0.00  0.00    +0.029 C 
ATOM     20  C   UNL     1      -0.531  -2.190  -0.007  0.00  0.00    +0.194 C 
ATOM     21  N   UNL     1       0.926  -1.973  -0.013  0.00  0.00    -0.176 NA
ATOM     22  N   UNL     1       1.125  -0.756  -0.013  0.00  0.00    -0.159 NA
ENDBRANCH   1  20
TORSDOF 2
