REMARK  Name = ZINC49717240
REMARK  6 active torsions:
REMARK  status: ('A' for Active; 'I' for Inactive)
REMARK    1  A    between atoms: C_1  and  C_2
REMARK    2  A    between atoms: C_2  and  C_3
REMARK    3  A    between atoms: C_8  and  N_9
REMARK    4  A    between atoms: C_10  and  C_27
REMARK    5  A    between atoms: C_12  and  C_15
REMARK    6  A    between atoms: C_13  and  C_14
REMARK                            x       y       z     vdW  Elec       q    Type
REMARK                         _______ _______ _______ _____ _____    ______ ____
ROOT
ATOM      1  N   UNL     1       2.604  -0.676  -0.223  0.00  0.00    -0.317 N 
ATOM      2  C   UNL     1       2.989  -1.529   0.774  0.00  0.00    +0.022 A 
ATOM      3  C   UNL     1       3.833  -0.890   1.601  0.00  0.00    +0.031 A 
ATOM      4  C   UNL     1       3.982   0.473   1.071  0.00  0.00    -0.003 A 
ATOM      5  C   UNL     1       3.193   0.526  -0.066  0.00  0.00    +0.028 A 
ATOM      6  C   UNL     1       3.019   1.721  -0.968  0.00  0.00    +0.064 C 
ATOM      7  C   UNL     1       2.539  -2.959   0.922  0.00  0.00    +0.064 C 
ENDROOT
BRANCH   4   8
ATOM      8  C   UNL     1       4.776   1.518   1.610  0.00  0.00    +0.026 C 
ATOM      9  C   UNL     1       5.886   1.218   2.372  0.00  0.00    +0.079 C 
ATOM     10  C   UNL     1       6.398  -0.175   2.499  0.00  0.00    +0.132 C 
ATOM     11  N   UNL     1       6.321  -1.058   1.538  0.00  0.00    -0.385 N 
ATOM     12  N   UNL     1       6.974  -0.448   3.758  0.00  0.00    -0.154 N 
ATOM     13  C   UNL     1       7.443   0.622   4.488  0.00  0.00    +0.180 C 
ATOM     14  N   UNL     1       7.336   1.894   4.198  0.00  0.00    -0.152 NA
ATOM     15  C   UNL     1       6.637   2.265   3.105  0.00  0.00    +0.273 C 
ATOM     16  O   UNL     1       6.619   3.428   2.732  0.00  0.00    -0.268 OA
ATOM     17  S   UNL     1       8.182  -0.178   5.887  0.00  0.00    -0.041 S 
ATOM     18  C   UNL     1       7.733  -1.856   5.462  0.00  0.00    +0.179 C 
ATOM     19  N   UNL     1       7.121  -1.697   4.323  0.00  0.00    -0.173 NA
ATOM     20  H   UNL     1       5.992  -0.796   0.663  0.00  0.00    +0.157 HD
ATOM     21  H   UNL     1       6.593  -1.975   1.698  0.00  0.00    +0.157 HD
ENDBRANCH   4   8
BRANCH   1  27
ATOM     22  C   UNL     1       0.354  -0.924  -1.070  0.00  0.00    -0.024 A 
ATOM     23  C   UNL     1      -0.509  -1.245  -2.100  0.00  0.00    +0.005 A 
ATOM     24  C   UNL     1      -0.007  -1.655  -3.321  0.00  0.00    +0.000 A 
ATOM     25  C   UNL     1       1.359  -1.744  -3.516  0.00  0.00    +0.002 A 
ATOM     26  C   UNL     1       2.227  -1.425  -2.490  0.00  0.00    +0.026 A 
ATOM     27  C   UNL     1       1.726  -1.007  -1.264  0.00  0.00    +0.050 A 
BRANCH  22  29
ATOM     28  C   UNL     1      -0.257   1.050   0.300  0.00  0.00    +0.009 C 
ATOM     29  C   UNL     1      -0.194  -0.478   0.261  0.00  0.00    +0.034 C 
ENDBRANCH  22  29
ENDBRANCH   1  27
TORSDOF 3
