REMARK  Name = ZINC16420980
REMARK  3 active torsions:
REMARK  status: ('A' for Active; 'I' for Inactive)
REMARK    1  A    between atoms: C_1  and  C_2
REMARK    2  A    between atoms: N_11  and  C_12
REMARK    3  A    between atoms: C_12  and  C_13
REMARK                            x       y       z     vdW  Elec       q    Type
REMARK                         _______ _______ _______ _____ _____    ______ ____
ROOT
ATOM      1  C   UNL     1       2.098  -0.029   1.213  0.00  0.00    +0.142 C 
ENDROOT
BRANCH   1  11
ATOM      2  C   UNL     1      -0.019   1.526   0.010  0.00  0.00    +0.029 C 
ATOM      3  C   UNL     1       0.002  -0.004   0.002  0.00  0.00    +0.085 C 
ATOM      4  C   UNL     1      -1.428  -0.536   0.021  0.00  0.00    -0.020 A 
ATOM      5  C   UNL     1      -2.468   0.006  -0.729  0.00  0.00    +0.013 A 
ATOM      6  C   UNL     1      -3.710  -0.527  -0.650  0.00  0.00    +0.046 A 
ATOM      7  S   UNL     1      -3.466  -1.857   0.518  0.00  0.00    -0.101 S 
ATOM      8  C   UNL     1      -1.738  -1.603   0.810  0.00  0.00    -0.004 A 
ATOM      9  C   UNL     1      -0.803  -2.356   1.699  0.00  0.00    +0.058 C 
ATOM     10  C   UNL     1       0.632  -1.958   1.315  0.00  0.00    +0.090 C 
ATOM     11  N   UNL     1       0.705  -0.494   1.195  0.00  0.00    -0.290 NA
ENDBRANCH   1  11
BRANCH   1  12
ATOM     12  C   UNL     1       2.713  -0.338   2.554  0.00  0.00    +0.074 A 
ATOM     13  C   UNL     1       3.451  -1.431   2.849  0.00  0.00    +0.117 A 
ATOM     14  N   UNL     1       3.816  -1.328   4.164  0.00  0.00    -0.305 N 
ATOM     15  C   UNL     1       4.554  -2.134   4.983  0.00  0.00    +0.112 A 
ATOM     16  C   UNL     1       4.770  -1.791   6.271  0.00  0.00    +0.058 A 
ATOM     17  C   UNL     1       4.235  -0.598   6.786  0.00  0.00    +0.025 A 
ATOM     18  C   UNL     1       3.498   0.213   5.981  0.00  0.00    +0.048 A 
ATOM     19  C   UNL     1       3.282  -0.159   4.638  0.00  0.00    +0.138 A 
ATOM     20  N   UNL     1       2.624   0.425   3.646  0.00  0.00    -0.231 NA
ATOM     21 CL   UNL     1       5.711  -2.830   7.296  0.00  0.00    -0.082 Cl
ENDBRANCH   1  12
TORSDOF 2
