REMARK  Name = ZINC17219014
REMARK  4 active torsions:
REMARK  status: ('A' for Active; 'I' for Inactive)
REMARK    1  A    between atoms: C_1  and  C_2
REMARK    2  A    between atoms: N_8  and  N_9
REMARK    3  A    between atoms: C_10  and  C_17
REMARK    4  A    between atoms: C_26  and  O_27
REMARK                            x       y       z     vdW  Elec       q    Type
REMARK                         _______ _______ _______ _____ _____    ______ ____
ROOT
ATOM      1  N   UNL     1       3.580  -1.857  -0.025  0.00  0.00    -0.187 NA
ATOM      2  C   UNL     1       4.423  -2.193  -1.188  0.00  0.00    +0.181 C 
ATOM      3  C   UNL     1       5.616  -2.149  -0.258  0.00  0.00    +0.190 C 
ATOM      4  O   UNL     1       6.803  -1.945  -0.340  0.00  0.00    -0.292 OA
ATOM      5  C   UNL     1       4.612  -2.483   0.824  0.00  0.00    +0.235 C 
ATOM      6 CL   UNL     1       4.373  -4.254   1.062  0.00  0.00    -0.095 Cl
ENDROOT
BRANCH   1  14
ATOM      7  C   UNL     1      -0.018   1.503   0.010  0.00  0.00    +0.066 C 
ATOM      8  C   UNL     1       0.002  -0.004   0.002  0.00  0.00    +0.047 A 
ATOM      9  C   UNL     1      -1.171  -0.701   0.004  0.00  0.00    +0.093 A 
ATOM     10  C   UNL     1      -1.126  -2.107  -0.004  0.00  0.00    +0.253 A 
ATOM     11  N   UNL     1       0.078  -2.717  -0.013  0.00  0.00    -0.294 N 
ATOM     12  C   UNL     1       1.215  -1.970  -0.015  0.00  0.00    +0.210 A 
ATOM     13  N   UNL     1       1.164  -0.653  -0.013  0.00  0.00    -0.220 NA
ATOM     14  N   UNL     1       2.432  -2.597  -0.023  0.00  0.00    -0.245 N 
ATOM     15  O   UNL     1      -2.156  -2.762  -0.002  0.00  0.00    -0.268 OA
ATOM     16  H   UNL     1       2.478  -3.566  -0.028  0.00  0.00    +0.169 HD
ATOM     17  H   UNL     1       0.132  -3.686  -0.018  0.00  0.00    +0.172 HD
ENDBRANCH   1  14
BRANCH   2  18
ATOM     18  C   UNL     1       4.444  -1.119  -2.245  0.00  0.00    +0.028 A 
ATOM     19  C   UNL     1       4.303  -1.460  -3.601  0.00  0.00    -0.009 A 
ATOM     20  C   UNL     1       4.139  -2.797  -4.003  0.00  0.00    +0.009 A 
ATOM     21  C   UNL     1       4.005  -3.091  -5.325  0.00  0.00    +0.001 A 
ATOM     22  C   UNL     1       4.026  -2.085  -6.289  0.00  0.00    +0.001 A 
ATOM     23  C   UNL     1       4.182  -0.780  -5.937  0.00  0.00    +0.008 A 
ATOM     24  C   UNL     1       4.324  -0.437  -4.582  0.00  0.00    -0.017 A 
ATOM     25  C   UNL     1       4.486   0.901  -4.181  0.00  0.00    +0.012 A 
ATOM     26  C   UNL     1       4.621   1.198  -2.861  0.00  0.00    +0.046 A 
ATOM     27  C   UNL     1       4.595   0.191  -1.891  0.00  0.00    +0.123 A 
BRANCH  27  28
ATOM     28  O   UNL     1       4.726   0.520  -0.579  0.00  0.00    -0.506 OA
ATOM     29  H   UNL     1       5.641   0.532  -0.266  0.00  0.00    +0.292 HD
ENDBRANCH  27  28
ENDBRANCH   2  18
TORSDOF 3
