REMARK  Name = ZINC38906422
REMARK  7 active torsions:
REMARK  status: ('A' for Active; 'I' for Inactive)
REMARK    1  A    between atoms: C_1  and  C_2
REMARK    2  A    between atoms: C_9  and  C_14
REMARK    3  A    between atoms: C_14  and  N_16
REMARK    4  A    between atoms: C_20  and  C_27
REMARK    5  A    between atoms: C_21  and  C_23
REMARK    6  A    between atoms: C_23  and  O_25
REMARK    7  A    between atoms: O_25  and  C_26
REMARK                            x       y       z     vdW  Elec       q    Type
REMARK                         _______ _______ _______ _____ _____    ______ ____
ROOT
ATOM      1  C   UNL     1      -1.859  -5.072   1.488  0.00  0.00    +0.253 C 
ATOM      2  O   UNL     1      -2.573  -4.565   0.645  0.00  0.00    -0.272 OA
ENDROOT
BRANCH   1  11
ATOM      3  C   UNL     1      -0.018   1.503   0.010  0.00  0.00    +0.044 C 
ATOM      4  C   UNL     1       0.002  -0.004   0.002  0.00  0.00    -0.049 A 
ATOM      5  C   UNL     1       0.006  -0.699  -1.194  0.00  0.00    +0.004 A 
ATOM      6  C   UNL     1       0.033  -2.075  -1.211  0.00  0.00    +0.006 A 
ATOM      7  C   UNL     1       0.055  -2.812  -0.024  0.00  0.00    -0.015 A 
ATOM      8  C   UNL     1       0.035  -2.093   1.169  0.00  0.00    +0.014 A 
ATOM      9  C   UNL     1       0.023  -0.711   1.189  0.00  0.00    +0.018 A 
ATOM     10  S   UNL     1       0.019  -3.293   2.483  0.00  0.00    -0.110 S 
ATOM     11  C   UNL     1      -0.378  -4.791   1.490  0.00  0.00    +0.161 C 
ATOM     12  C   UNL     1       0.107  -4.314   0.102  0.00  0.00    +0.133 C 
ATOM     13 CL   UNL     1       1.805  -4.866  -0.148  0.00  0.00    -0.115 Cl
ENDBRANCH   1  11
BRANCH   1  14
ATOM     14  N   UNL     1      -2.383  -5.874   2.408  0.00  0.00    -0.156 NA
ATOM     15  C   UNL     1      -3.692  -6.123   2.407  0.00  0.00    +0.164 A 
ATOM     16  N   UNL     1      -4.404  -6.907   3.265  0.00  0.00    -0.339 N 
ATOM     17  H   UNL     1      -3.958  -7.370   3.992  0.00  0.00    +0.167 HD
ATOM     18  C   UNL     1      -5.732  -7.031   3.094  0.00  0.00    +0.036 A 
ATOM     19  C   UNL     1      -6.287  -6.352   2.055  0.00  0.00    +0.118 A 
ATOM     20  S   UNL     1      -4.863  -5.540   1.350  0.00  0.00    -0.046 S 
ATOM     21  C   UNL     1      -6.568  -7.885   4.013  0.00  0.00    +0.065 C 
BRANCH  19  22
ATOM     22  C   UNL     1      -7.688  -6.297   1.628  0.00  0.00    +0.347 C 
ATOM     23  O   UNL     1      -8.534  -6.920   2.239  0.00  0.00    -0.244 OA
BRANCH  22  24
ATOM     24  O   UNL     1      -8.038  -5.555   0.557  0.00  0.00    -0.464 OA
ATOM     25  C   UNL     1      -9.421  -5.548   0.198  0.00  0.00    +0.280 C 
ENDBRANCH  22  24
ENDBRANCH  19  22
ENDBRANCH   1  14
TORSDOF 4
