REMARK  Name = ZINC55214932
REMARK  4 active torsions:
REMARK  status: ('A' for Active; 'I' for Inactive)
REMARK    1  A    between atoms: C_6  and  N_7
REMARK    2  A    between atoms: C_8  and  C_10
REMARK    3  A    between atoms: C_10  and  N_11
REMARK    4  A    between atoms: C_12  and  C_14
REMARK                            x       y       z     vdW  Elec       q    Type
REMARK                         _______ _______ _______ _____ _____    ______ ____
ROOT
ATOM      1  N   UNL     1      -1.202  -0.721   0.010  0.00  0.00    -0.284 N 
ATOM      2  C   UNL     1      -2.374  -0.067   0.126  0.00  0.00    +0.234 C 
ATOM      3  O   UNL     1      -2.394   1.146   0.133  0.00  0.00    -0.274 OA
ATOM      4  H   UNL     1      -1.191  -1.688  -0.063  0.00  0.00    +0.155 HD
ENDROOT
BRANCH   1  10
ATOM      5  C   UNL     1       1.139  -0.542   0.583  0.00  0.00    +0.027 A 
ATOM      6  C   UNL     1       2.328   0.160   0.571  0.00  0.00    +0.050 A 
ATOM      7  C   UNL     1       2.390   1.407  -0.031  0.00  0.00    +0.157 A 
ATOM      8  C   UNL     1       1.249   1.950  -0.623  0.00  0.00    +0.089 A 
ATOM      9  C   UNL     1       0.057   1.245  -0.610  0.00  0.00    +0.052 A 
ATOM     10  C   UNL     1       0.002  -0.003  -0.006  0.00  0.00    +0.036 A 
ATOM     11  N   UNL     1       1.620   3.193  -1.135  0.00  0.00    -0.288 N 
ATOM     12  H   UNL     1       1.042   3.814  -1.606  0.00  0.00    +0.172 HD
ATOM     13  C   UNL     1       2.925   3.374  -0.856  0.00  0.00    +0.419 A 
ATOM     14  O   UNL     1       3.579   4.354  -1.158  0.00  0.00    -0.223 OA
ATOM     15  O   UNL     1       3.393   2.305  -0.193  0.00  0.00    -0.408 OA
ENDBRANCH   1  10
BRANCH   2  16
ATOM     16  C   UNL     1      -3.661  -0.842   0.248  0.00  0.00    +0.200 C 
BRANCH  16  17
ATOM     17  N   UNL     1      -4.785   0.091   0.361  0.00  0.00    -0.303 N 
ATOM     18  C   UNL     1      -6.042  -0.380   0.481  0.00  0.00    +0.245 C 
ATOM     19  O   UNL     1      -6.243  -1.579   0.495  0.00  0.00    -0.270 OA
ATOM     20  H   UNL     1      -4.624   1.047   0.349  0.00  0.00    +0.150 HD
BRANCH  18  21
ATOM     21  C   UNL     1      -7.171   0.557   0.594  0.00  0.00    +0.044 A 
ATOM     22  C   UNL     1      -8.529   0.090   0.730  0.00  0.00    +0.020 A 
ATOM     23  C   UNL     1      -9.472   1.050   0.825  0.00  0.00    +0.046 A 
ATOM     24  S   UNL     1      -8.526   2.555   0.732  0.00  0.00    -0.104 S 
ATOM     25  C   UNL     1      -6.980   1.921   0.582  0.00  0.00    +0.058 A 
ENDBRANCH  18  21
ENDBRANCH  16  17
ENDBRANCH   2  16
TORSDOF 4
