REMARK  Name = ZINC39446760
REMARK  3 active torsions:
REMARK  status: ('A' for Active; 'I' for Inactive)
REMARK    1  A    between atoms: C_1  and  C_2
REMARK    2  A    between atoms: C_11  and  C_13
REMARK    3  A    between atoms: C_13  and  N_15
REMARK                            x       y       z     vdW  Elec       q    Type
REMARK                         _______ _______ _______ _____ _____    ______ ____
ROOT
ATOM      1  C   UNL     1      -0.284  -0.816   2.366  0.00  0.00    +0.253 C 
ATOM      2  O   UNL     1      -1.371  -1.278   2.079  0.00  0.00    -0.272 OA
ENDROOT
BRANCH   1   3
ATOM      3  N   UNL     1       0.031  -0.600   3.640  0.00  0.00    -0.146 NA
ATOM      4  C   UNL     1      -0.879  -0.792   4.592  0.00  0.00    +0.198 A 
ATOM      5  N   UNL     1      -2.119  -1.313   4.402  0.00  0.00    -0.326 N 
ATOM      6  H   UNL     1      -2.488  -1.607   3.554  0.00  0.00    +0.169 HD
ATOM      7  C   UNL     1      -2.768  -1.354   5.631  0.00  0.00    +0.065 A 
ATOM      8  C   UNL     1      -4.029  -1.781   6.023  0.00  0.00    +0.028 A 
ATOM      9  C   UNL     1      -4.403  -1.696   7.349  0.00  0.00    +0.002 A 
ATOM     10  C   UNL     1      -3.525  -1.186   8.291  0.00  0.00    +0.002 A 
ATOM     11  C   UNL     1      -2.268  -0.758   7.912  0.00  0.00    +0.028 A 
ATOM     12  C   UNL     1      -1.883  -0.839   6.581  0.00  0.00    +0.065 A 
ATOM     13  N   UNL     1      -0.712  -0.502   5.909  0.00  0.00    -0.326 N 
ATOM     14  H   UNL     1       0.085  -0.123   6.311  0.00  0.00    +0.169 HD
ENDBRANCH   1   3
BRANCH   1  24
ATOM     15  C   UNL     1      -0.018   1.560   0.031  0.00  0.00    +0.014 C 
ATOM     16  C   UNL     1      -0.004   0.030   0.008  0.00  0.00    +0.039 C 
ATOM     17  C   UNL     1       0.690  -0.437  -1.248  0.00  0.00    -0.030 A 
ATOM     18  C   UNL     1       0.585   0.134  -2.519  0.00  0.00    +0.005 A 
ATOM     19  C   UNL     1       1.260  -0.397  -3.595  0.00  0.00    +0.000 A 
ATOM     20  C   UNL     1       2.062  -1.514  -3.448  0.00  0.00    +0.001 A 
ATOM     21  C   UNL     1       2.188  -2.091  -2.199  0.00  0.00    +0.015 A 
ATOM     22  C   UNL     1       1.516  -1.550  -1.119  0.00  0.00    +0.012 A 
ATOM     23  S   UNL     1       1.484  -2.008   0.601  0.00  0.00    -0.112 S 
ATOM     24  C   UNL     1       0.706  -0.486   1.279  0.00  0.00    +0.146 C 
ENDBRANCH   1  24
TORSDOF 2
