REMARK  Name = ZINC62320977
REMARK  3 active torsions:
REMARK  status: ('A' for Active; 'I' for Inactive)
REMARK    1  A    between atoms: C_1  and  C_2
REMARK    2  A    between atoms: C_2  and  C_23
REMARK    3  A    between atoms: N_19  and  C_20
REMARK                            x       y       z     vdW  Elec       q    Type
REMARK                         _______ _______ _______ _____ _____    ______ ____
ROOT
ATOM      1  C   UNL     1      -0.018   1.526   0.011  0.00  0.00    +0.017 C 
ATOM      2  C   UNL     1       0.007  -0.004   0.007  0.00  0.00    +0.003 C 
ATOM      3  C   UNL     1      -1.427  -0.534   0.003  0.00  0.00    +0.096 C 
ATOM      4  N   UNL     1      -2.036  -0.250   1.310  0.00  0.00    -0.292 NA
ATOM      5  C   UNL     1      -3.496  -0.411   1.260  0.00  0.00    +0.104 C 
ATOM      6  C   UNL     1      -4.101   0.059   2.587  0.00  0.00    +0.124 C 
ATOM      7  N   UNL     1      -3.430  -0.652   3.686  0.00  0.00    -0.283 N 
ATOM      8  C   UNL     1      -1.960  -0.652   3.722  0.00  0.00    +0.133 C 
ATOM      9  C   UNL     1      -1.443  -1.097   2.349  0.00  0.00    +0.104 C 
ATOM     10  C   UNL     1       0.059  -1.001   2.321  0.00  0.00    -0.025 A 
ATOM     11  C   UNL     1       0.735  -0.496   1.231  0.00  0.00    -0.036 A 
ATOM     12  C   UNL     1       2.120  -0.431   1.247  0.00  0.00    +0.004 A 
ATOM     13  C   UNL     1       2.826  -0.868   2.351  0.00  0.00    +0.000 A 
ATOM     14  C   UNL     1       2.148  -1.372   3.445  0.00  0.00    +0.000 A 
ATOM     15  C   UNL     1       0.769  -1.438   3.429  0.00  0.00    +0.005 A 
ATOM     16  C   UNL     1      -4.145  -1.287   4.636  0.00  0.00    +0.303 C 
ATOM     17  O   UNL     1      -3.577  -1.950   5.483  0.00  0.00    -0.253 OA
ATOM     18  N   UNL     1      -5.489  -1.188   4.647  0.00  0.00    -0.296 N 
ATOM     19  C   UNL     1       0.732  -0.496  -1.248  0.00  0.00    +0.017 C 
ATOM     20  H   UNL     1      -5.947  -0.721   3.931  0.00  0.00    +0.151 HD
ENDROOT
BRANCH  18  21
ATOM     21  C   UNL     1      -6.258  -1.787   5.741  0.00  0.00    +0.075 C 
ATOM     22  C   UNL     1      -7.526  -2.561   5.372  0.00  0.00    +0.024 C 
ATOM     23  C   UNL     1      -7.634  -1.191   6.045  0.00  0.00    +0.024 C 
ENDBRANCH  18  21
TORSDOF 1
