REMARK  Name = ZINC67385098
REMARK  6 active torsions:
REMARK  status: ('A' for Active; 'I' for Inactive)
REMARK    1  A    between atoms: C_1  and  C_2
REMARK    2  A    between atoms: N_5  and  C_8
REMARK    3  A    between atoms: C_8  and  C_9
REMARK    4  A    between atoms: C_9  and  C_10
REMARK    5  A    between atoms: C_10  and  N_11
REMARK    6  A    between atoms: C_18  and  C_21
REMARK                            x       y       z     vdW  Elec       q    Type
REMARK                         _______ _______ _______ _____ _____    ______ ____
ROOT
ATOM      1  N   UNL     1       0.416  -6.329   4.130  0.00  0.00    -0.299 N 
ATOM      2  C   UNL     1       0.481  -7.638   4.447  0.00  0.00    +0.302 C 
ATOM      3  O   UNL     1      -0.031  -8.466   3.719  0.00  0.00    -0.253 OA
ATOM      4  N   UNL     1       1.113  -8.028   5.572  0.00  0.00    -0.281 N 
ATOM      5  C   UNL     1       1.635  -7.040   6.529  0.00  0.00    +0.137 C 
ATOM      6  C   UNL     1       1.135  -7.412   7.929  0.00  0.00    +0.179 C 
ATOM      7  O   UNL     1       1.452  -8.781   8.194  0.00  0.00    -0.369 OA
ATOM      8  C   UNL     1       0.818  -9.709   7.311  0.00  0.00    +0.168 C 
ATOM      9  C   UNL     1       1.297  -9.455   5.881  0.00  0.00    +0.145 C 
ATOM     10  H   UNL     1       0.760  -5.663   4.746  0.00  0.00    +0.150 HD
ENDROOT
BRANCH   8  11
ATOM     11  C   UNL     1       1.172 -11.116   7.720  0.00  0.00    +0.018 A 
ATOM     12  C   UNL     1       2.336 -11.358   8.425  0.00  0.00    +0.009 A 
ATOM     13  C   UNL     1       2.661 -12.648   8.800  0.00  0.00    +0.001 A 
ATOM     14  C   UNL     1       1.823 -13.697   8.472  0.00  0.00    +0.003 A 
ATOM     15  C   UNL     1       0.658 -13.457   7.769  0.00  0.00    +0.039 A 
ATOM     16  C   UNL     1       0.329 -12.164   7.396  0.00  0.00    +0.129 A 
ATOM     17  F   UNL     1      -0.812 -11.928   6.712  0.00  0.00    -0.205 F 
ENDBRANCH   8  11
BRANCH   1  18
ATOM     18  C   UNL     1      -0.175  -5.913   2.856  0.00  0.00    +0.104 C 
BRANCH  18  19
ATOM     19  C   UNL     1      -0.126  -4.388   2.745  0.00  0.00    +0.000 C 
BRANCH  19  20
ATOM     20  C   UNL     1      -0.743  -3.953   1.414  0.00  0.00    -0.077 C 
BRANCH  20  25
ATOM     21  C   UNL     1       0.005   1.519  -0.006  0.00  0.00    +0.007 C 
ATOM     22  C   UNL     1       0.021  -0.011  -0.011  0.00  0.00    -0.018 C 
ATOM     23  C   UNL     1      -1.417  -0.538   0.013  0.00  0.00    -0.016 C 
ATOM     24  C   UNL     1      -1.393  -2.066   0.087  0.00  0.00    -0.079 C 
ATOM     25  N   UNL     1      -0.695  -2.489   1.307  0.00  0.00    +0.380 N 
ATOM     26  C   UNL     1       0.704  -2.049   1.258  0.00  0.00    -0.079 C 
ATOM     27  C   UNL     1       0.761  -0.520   1.229  0.00  0.00    -0.016 C 
ATOM     28  H   UNL     1      -1.147  -2.080   2.111  0.00  0.00    -0.082 HD
ENDBRANCH  20  25
ENDBRANCH  19  20
ENDBRANCH  18  19
ENDBRANCH   1  18
TORSDOF 5
