REMARK  Name = ZINC40127927
REMARK  5 active torsions:
REMARK  status: ('A' for Active; 'I' for Inactive)
REMARK    1  A    between atoms: C_1  and  C_2
REMARK    2  A    between atoms: N_10  and  C_13
REMARK    3  A    between atoms: C_13  and  C_14
REMARK    4  A    between atoms: N_19  and  C_20
REMARK    5  A    between atoms: C_26  and  C_28
REMARK                            x       y       z     vdW  Elec       q    Type
REMARK                         _______ _______ _______ _____ _____    ______ ____
ROOT
ATOM      1  C   UNL     1      -1.327  -5.363   3.928  0.00  0.00    +0.240 C 
ATOM      2  O   UNL     1      -2.258  -4.927   3.285  0.00  0.00    -0.273 OA
ATOM      3  N   UNL     1      -1.558  -6.122   5.018  0.00  0.00    -0.239 N 
ATOM      4  C   UNL     1      -2.824  -6.394   5.393  0.00  0.00    +0.306 C 
ATOM      5  O   UNL     1      -3.756  -5.957   4.748  0.00  0.00    -0.252 OA
ATOM      6  N   UNL     1      -3.055  -7.153   6.483  0.00  0.00    -0.296 N 
ATOM      7  H   UNL     1      -0.814  -6.471   5.532  0.00  0.00    +0.159 HD
ATOM      8  H   UNL     1      -2.310  -7.502   6.997  0.00  0.00    +0.151 HD
ENDROOT
BRANCH   6   9
ATOM      9  C   UNL     1      -4.430  -7.449   6.891  0.00  0.00    +0.077 C 
ATOM     10  C   UNL     1      -4.941  -8.666   6.117  0.00  0.00    +0.022 C 
ATOM     11  C   UNL     1      -6.377  -8.976   6.543  0.00  0.00    +0.002 C 
ATOM     12  C   UNL     1      -6.411  -9.275   8.043  0.00  0.00    +0.000 C 
ATOM     13  C   UNL     1      -5.900  -8.058   8.817  0.00  0.00    +0.005 C 
ATOM     14  C   UNL     1      -4.464  -7.748   8.391  0.00  0.00    +0.006 C 
ATOM     15  C   UNL     1      -3.953  -6.531   9.165  0.00  0.00    +0.009 C 
ENDBRANCH   6   9
BRANCH   1  16
ATOM     16  C   UNL     1       0.087  -5.058   3.508  0.00  0.00    +0.222 C 
BRANCH  16  26
ATOM     17  C   UNL     1      -0.018   1.503   0.010  0.00  0.00    +0.044 C 
ATOM     18  C   UNL     1       0.002  -0.004   0.002  0.00  0.00    -0.050 A 
ATOM     19  C   UNL     1       0.006  -0.686  -1.208  0.00  0.00    +0.005 A 
ATOM     20  C   UNL     1       0.024  -2.062  -1.242  0.00  0.00    +0.029 A 
ATOM     21  C   UNL     1       0.040  -2.783  -0.046  0.00  0.00    +0.078 A 
ATOM     22  C   UNL     1       0.037  -2.087   1.182  0.00  0.00    +0.065 A 
ATOM     23  C   UNL     1       0.023  -0.693   1.195  0.00  0.00    +0.018 A 
ATOM     24  C   UNL     1       0.053  -2.875   2.423  0.00  0.00    +0.262 A 
ATOM     25  O   UNL     1       0.051  -2.337   3.515  0.00  0.00    -0.267 OA
ATOM     26  N   UNL     1       0.071  -4.223   2.304  0.00  0.00    -0.290 N 
ATOM     27  C   UNL     1       0.073  -4.810   1.079  0.00  0.00    +0.203 A 
ATOM     28  N   UNL     1       0.058  -4.140  -0.034  0.00  0.00    -0.237 NA
ENDBRANCH  16  26
ENDBRANCH   1  16
TORSDOF 3
