REMARK  Name = ZINC13008242
REMARK  6 active torsions:
REMARK  status: ('A' for Active; 'I' for Inactive)
REMARK    1  A    between atoms: C_1  and  N_2
REMARK    2  A    between atoms: N_2  and  C_3
REMARK    3  A    between atoms: C_3  and  C_4
REMARK    4  A    between atoms: N_6  and  C_7
REMARK    5  A    between atoms: C_11  and  C_13
REMARK    6  A    between atoms: C_21  and  N_24
REMARK                            x       y       z     vdW  Elec       q    Type
REMARK                         _______ _______ _______ _____ _____    ______ ____
ROOT
ATOM      1  C   UNL     1       5.290   1.236  -1.609  0.00  0.00    +0.235 C 
ATOM      2  O   UNL     1       4.668   1.840  -2.459  0.00  0.00    -0.274 OA
ATOM      3  N   UNL     1       6.313   0.434  -1.965  0.00  0.00    -0.284 N 
ATOM      4  H   UNL     1       6.931  -0.044  -1.192  0.00  0.00    +0.155 HD
ENDROOT
BRANCH   3   5
ATOM      5  C   UNL     1       6.588   0.210  -3.319  0.00  0.00    +0.034 A 
ATOM      6  C   UNL     1       5.552   0.174  -4.243  0.00  0.00    +0.025 A 
ATOM      7  C   UNL     1       5.827  -0.042  -5.579  0.00  0.00    +0.022 A 
ATOM      8  C   UNL     1       7.133  -0.233  -5.996  0.00  0.00    +0.053 A 
ATOM      9  C   UNL     1       8.167  -0.202  -5.077  0.00  0.00    +0.075 A 
ATOM     10  C   UNL     1       7.898   0.019  -3.740  0.00  0.00    +0.037 A 
ATOM     11 CL   UNL     1       7.475  -0.511  -7.675  0.00  0.00    -0.083 Cl
BRANCH   9  12
ATOM     12  C   UNL     1       9.588  -0.410  -5.534  0.00  0.00    +0.419 C 
ATOM     13  F   UNL     1      10.448  -0.335  -4.433  0.00  0.00    -0.166 F 
ATOM     14  F   UNL     1       9.706  -1.669  -6.133  0.00  0.00    -0.166 F 
ATOM     15  F   UNL     1       9.929   0.581  -6.460  0.00  0.00    -0.166 F 
ENDBRANCH   9  12
ENDBRANCH   3   5
BRANCH   1  16
ATOM     16  C   UNL     1       4.918   1.384  -0.157  0.00  0.00    +0.202 C 
BRANCH  16  18
ATOM     17  C   UNL     1       4.019   3.739   0.134  0.00  0.00    +0.131 C 
ATOM     18  N   UNL     1       3.784   2.303  -0.034  0.00  0.00    -0.309 N 
ATOM     19  C   UNL     1       2.484   1.812  -0.076  0.00  0.00    +0.122 A 
ATOM     20  C   UNL     1       1.412   2.699  -0.064  0.00  0.00    +0.046 A 
ATOM     21  C   UNL     1       0.124   2.197  -0.106  0.00  0.00    +0.037 A 
ATOM     22  C   UNL     1      -0.050   0.820  -0.160  0.00  0.00    +0.144 A 
ATOM     23  C   UNL     1       1.060  -0.002  -0.169  0.00  0.00    +0.145 A 
ATOM     24  N   UNL     1       2.277   0.505  -0.128  0.00  0.00    -0.238 NA
BRANCH  22  25
ATOM     25  N   UNL     1      -1.410   0.239  -0.207  0.00  0.00    +0.058 N 
ATOM     26  O   UNL     1      -2.385   0.969  -0.200  0.00  0.00    -0.126 OA
ATOM     27  O   UNL     1      -1.555  -0.970  -0.255  0.00  0.00    -0.126 OA
ENDBRANCH  22  25
ENDBRANCH  16  18
ENDBRANCH   1  16
TORSDOF 5
