REMARK  Name = ZINC40144464
REMARK  8 active torsions:
REMARK  status: ('A' for Active; 'I' for Inactive)
REMARK    1  A    between atoms: C_1  and  C_2
REMARK    2  A    between atoms: C_2  and  N_3
REMARK    3  A    between atoms: C_7  and  C_8
REMARK    4  A    between atoms: C_11  and  O_16
REMARK    5  A    between atoms: C_12  and  O_14
REMARK    6  A    between atoms: O_14  and  C_15
REMARK    7  A    between atoms: N_19  and  S_20
REMARK    8  A    between atoms: S_20  and  C_23
REMARK                            x       y       z     vdW  Elec       q    Type
REMARK                         _______ _______ _______ _____ _____    ______ ____
ROOT
ATOM      1  N   UNL     1      -1.118  -1.497   0.110  0.00  0.00    -0.245 N 
ATOM      2  C   UNL     1      -1.809  -1.404   1.233  0.00  0.00    +0.259 C 
ATOM      3  O   UNL     1      -1.267  -1.165   2.296  0.00  0.00    -0.269 OA
ATOM      4  C   UNL     1      -3.268  -1.603   1.140  0.00  0.00    +0.078 C 
ATOM      5  C   UNL     1      -4.207  -1.564   2.119  0.00  0.00    +0.028 C 
ATOM      6  S   UNL     1      -3.468  -1.909  -0.609  0.00  0.00    -0.047 S 
ATOM      7  C   UNL     1      -1.754  -1.763  -1.086  0.00  0.00    +0.189 C 
ATOM      8  N   UNL     1      -1.229  -1.882  -2.274  0.00  0.00    -0.105 NA
ENDROOT
BRANCH   5   9
ATOM      9  C   UNL     1      -5.591  -1.956   1.826  0.00  0.00    -0.020 A 
ATOM     10  C   UNL     1      -5.882  -2.700   0.676  0.00  0.00    +0.012 A 
ATOM     11  C   UNL     1      -7.182  -3.066   0.403  0.00  0.00    +0.050 A 
ATOM     12  C   UNL     1      -8.206  -2.699   1.266  0.00  0.00    +0.158 A 
ATOM     13  C   UNL     1      -7.925  -1.958   2.413  0.00  0.00    +0.162 A 
ATOM     14  C   UNL     1      -6.624  -1.592   2.698  0.00  0.00    +0.057 A 
BRANCH  13  15
ATOM     15  O   UNL     1      -8.931  -1.601   3.255  0.00  0.00    -0.491 OA
ATOM     16  C   UNL     1      -8.572  -0.843   4.411  0.00  0.00    +0.277 C 
ENDBRANCH  13  15
BRANCH  12  17
ATOM     17  O   UNL     1      -9.486  -3.062   0.991  0.00  0.00    -0.503 OA
ATOM     18  H   UNL     1      -9.742  -3.915   1.366  0.00  0.00    +0.292 HD
ENDBRANCH  12  17
ENDBRANCH   5   9
BRANCH   8  19
ATOM     19  S   UNL     1      -2.197  -2.207  -3.578  0.00  0.00    +0.107 S 
ATOM     20  O   UNL     1      -2.722  -3.512  -3.379  0.00  0.00    -0.146 OA
ATOM     21  O   UNL     1      -3.031  -1.070  -3.758  0.00  0.00    -0.146 OA
BRANCH  19  22
ATOM     22  C   UNL     1      -1.153  -2.295  -4.994  0.00  0.00    +0.151 A 
ATOM     23  C   UNL     1      -0.521  -3.371  -5.522  0.00  0.00    +0.038 A 
ATOM     24  C   UNL     1       0.258  -3.203  -6.652  0.00  0.00    +0.030 A 
ATOM     25  C   UNL     1       0.366  -1.966  -7.198  0.00  0.00    +0.080 A 
ATOM     26  S   UNL     1      -0.658  -0.991  -6.109  0.00  0.00    -0.056 S 
ATOM     27 CL   UNL     1       1.262  -1.463  -8.598  0.00  0.00    -0.076 Cl
ENDBRANCH  19  22
ENDBRANCH   8  19
BRANCH   1  29
ATOM     28  C   UNL     1       0.662   0.170  -0.077  0.00  0.00    +0.025 C 
ATOM     29  C   UNL     1       0.335  -1.310   0.134  0.00  0.00    +0.112 C 
ENDBRANCH   1  29
TORSDOF 6
