REMARK  Name = ZINC40022186
REMARK  8 active torsions:
REMARK  status: ('A' for Active; 'I' for Inactive)
REMARK    1  A    between atoms: C_1  and  C_2
REMARK    2  A    between atoms: C_2  and  C_3
REMARK    3  A    between atoms: C_3  and  N_4
REMARK    4  A    between atoms: C_8  and  C_9
REMARK    5  A    between atoms: N_11  and  C_26
REMARK    6  A    between atoms: C_13  and  C_14
REMARK    7  A    between atoms: C_16  and  C_25
REMARK    8  A    between atoms: C_21  and  C_24
REMARK                            x       y       z     vdW  Elec       q    Type
REMARK                         _______ _______ _______ _____ _____    ______ ____
ROOT
ATOM      1  C   UNL     1      -1.361  -6.453  -1.805  0.00  0.00    +0.022 A 
ATOM      2  C   UNL     1      -1.353  -7.037  -0.552  0.00  0.00    +0.123 A 
ATOM      3  N   UNL     1      -1.333  -8.373  -0.721  0.00  0.00    -0.239 N 
ATOM      4  N   UNL     1      -1.329  -8.674  -2.085  0.00  0.00    -0.166 NA
ATOM      5  C   UNL     1      -1.350  -7.555  -2.775  0.00  0.00    +0.100 A 
ENDROOT
BRANCH   5   6
ATOM      6  C   UNL     1      -1.359  -7.430  -4.251  0.00  0.00    +0.003 A 
ATOM      7  C   UNL     1      -2.062  -6.394  -4.865  0.00  0.00    +0.017 A 
ATOM      8  C   UNL     1      -2.065  -6.276  -6.236  0.00  0.00    -0.008 A 
ATOM      9  C   UNL     1      -1.368  -7.190  -7.025  0.00  0.00    +0.127 A 
ATOM     10  C   UNL     1      -0.676  -8.226  -6.408  0.00  0.00    -0.001 A 
ATOM     11  C   UNL     1      -0.658  -8.346  -5.038  0.00  0.00    +0.017 A 
ATOM     12  C   UNL     1      -0.048  -9.059  -7.509  0.00  0.00    +0.083 C 
ATOM     13  C   UNL     1      -0.818  -8.570  -8.758  0.00  0.00    +0.175 C 
ATOM     14  O   UNL     1      -1.234  -7.247  -8.379  0.00  0.00    -0.488 OA
ATOM     15  C   UNL     1      -2.028  -9.465  -9.033  0.00  0.00    +0.052 C 
ATOM     16  C   UNL     1      -2.827  -5.151  -6.889  0.00  0.00    +0.047 C 
ENDBRANCH   5   6
BRANCH   1  21
ATOM     17  N   UNL     1      -1.413  -1.998   0.005  0.00  0.00    -0.255 N 
ATOM     18  C   UNL     1      -1.411  -2.639  -1.152  0.00  0.00    +0.258 C 
ATOM     19  O   UNL     1      -1.424  -2.041  -2.213  0.00  0.00    -0.269 OA
ATOM     20  C   UNL     1      -1.390  -4.111  -1.094  0.00  0.00    +0.077 C 
ATOM     21  C   UNL     1      -1.382  -5.018  -2.107  0.00  0.00    +0.032 C 
ATOM     22  S   UNL     1      -1.377  -4.377   0.673  0.00  0.00    -0.061 S 
ATOM     23  C   UNL     1      -1.393  -2.664   1.178  0.00  0.00    +0.121 C 
ATOM     24  S   UNL     1      -1.386  -2.022   2.765  0.00  0.00    -0.027 S 
BRANCH  17  25
ATOM     25  C   UNL     1      -1.433  -0.534   0.013  0.00  0.00    +0.115 C 
BRANCH  25  27
ATOM     26  C   UNL     1      -0.019   1.526   0.010  0.00  0.00    +0.005 C 
ATOM     27  C   UNL     1       0.002  -0.004   0.002  0.00  0.00    +0.016 C 
ENDBRANCH  25  27
ENDBRANCH  17  25
ENDBRANCH   1  21
BRANCH   3  28
ATOM     28  C   UNL     1      -1.319  -9.316   0.314  0.00  0.00    +0.065 A 
ATOM     29  C   UNL     1      -1.331  -8.897   1.638  0.00  0.00    +0.028 A 
ATOM     30  C   UNL     1      -1.317  -9.830   2.657  0.00  0.00    +0.002 A 
ATOM     31  C   UNL     1      -1.292 -11.180   2.359  0.00  0.00    +0.000 A 
ATOM     32  C   UNL     1      -1.280 -11.601   1.042  0.00  0.00    +0.002 A 
ATOM     33  C   UNL     1      -1.300 -10.673   0.019  0.00  0.00    +0.028 A 
ENDBRANCH   3  28
TORSDOF 5
