REMARK  Name = ZINC37129217
REMARK  4 active torsions:
REMARK  status: ('A' for Active; 'I' for Inactive)
REMARK    1  A    between atoms: C_1  and  C_2
REMARK    2  A    between atoms: C_2  and  C_4
REMARK    3  A    between atoms: C_2  and  N_11
REMARK    4  A    between atoms: N_11  and  C_12
REMARK                            x       y       z     vdW  Elec       q    Type
REMARK                         _______ _______ _______ _____ _____    ______ ____
ROOT
ATOM      1  N   UNL     1       0.812  -0.488   1.123  0.00  0.00    -0.334 N 
ATOM      2  H   UNL     1       1.775  -0.549   1.029  0.00  0.00    +0.147 HD
ENDROOT
BRANCH   1   3
ATOM      3  C   UNL     1       0.214  -0.735   2.360  0.00  0.00    +0.075 A 
ATOM      4  C   UNL     1       0.915  -1.368   3.341  0.00  0.00    +0.065 A 
ATOM      5  C   UNL     1       0.347  -1.630   4.587  0.00  0.00    +0.044 A 
ATOM      6  C   UNL     1      -0.926  -1.267   4.876  0.00  0.00    +0.071 A 
ATOM      7  C   UNL     1      -1.721  -0.602   3.901  0.00  0.00    +0.120 A 
ATOM      8  C   UNL     1      -1.130  -0.320   2.599  0.00  0.00    +0.123 A 
ATOM      9  N   UNL     1      -1.963   0.310   1.770  0.00  0.00    -0.189 NA
ATOM     10  S   UNL     1      -3.329   0.509   2.595  0.00  0.00    +0.117 S 
ATOM     11  N   UNL     1      -2.980  -0.175   4.009  0.00  0.00    -0.189 NA
ATOM     12 CL   UNL     1      -1.590  -1.616   6.441  0.00  0.00    -0.081 Cl
ATOM     13 CL   UNL     1       2.551  -1.859   3.033  0.00  0.00    -0.082 Cl
ENDBRANCH   1   3
BRANCH   1  15
ATOM     14  C   UNL     1      -0.078   1.387  -0.171  0.00  0.00    +0.033 C 
ATOM     15  C   UNL     1      -0.016  -0.135  -0.033  0.00  0.00    +0.098 C 
BRANCH  15  16
ATOM     16  C   UNL     1       0.585  -0.729  -1.281  0.00  0.00    -0.027 A 
ATOM     17  C   UNL     1       1.957  -0.728  -1.454  0.00  0.00    +0.008 A 
ATOM     18  C   UNL     1       2.510  -1.272  -2.598  0.00  0.00    +0.038 A 
ATOM     19  C   UNL     1       1.689  -1.818  -3.571  0.00  0.00    +0.123 A 
ATOM     20  C   UNL     1       0.316  -1.818  -3.396  0.00  0.00    +0.038 A 
ATOM     21  C   UNL     1      -0.234  -1.278  -2.249  0.00  0.00    +0.008 A 
ATOM     22  F   UNL     1       2.229  -2.350  -4.689  0.00  0.00    -0.205 F 
ENDBRANCH  15  16
ENDBRANCH   1  15
TORSDOF 3
