REMARK  Name = ZINC39774558
REMARK  11 active torsions:
REMARK  status: ('A' for Active; 'I' for Inactive)
REMARK    1  A    between atoms: C_1  and  C_2
REMARK    2  A    between atoms: C_2  and  C_3
REMARK    3  A    between atoms: C_2  and  C_4
REMARK    4  A    between atoms: C_4  and  C_5
REMARK    5  A    between atoms: C_4  and  C_6
REMARK    6  A    between atoms: C_4  and  N_8
REMARK    7  A    between atoms: C_9  and  C_11
REMARK    8  A    between atoms: C_11  and  S_12
REMARK    9  A    between atoms: S_12  and  C_13
REMARK   10  A    between atoms: C_17  and  C_22
REMARK   11  A    between atoms: N_18  and  C_19
REMARK                            x       y       z     vdW  Elec       q    Type
REMARK                         _______ _______ _______ _____ _____    ______ ____
ROOT
ATOM      1  C   UNL     1      -0.505  -0.190   7.819  0.00  0.00    +0.237 C 
ATOM      2  N   UNL     1      -0.713   1.261   7.958  0.00  0.00    -0.237 N 
ATOM      3  N   UNL     1      -2.054   1.503   7.637  0.00  0.00    -0.169 NA
ATOM      4  C   UNL     1      -2.674   0.396   7.325  0.00  0.00    +0.147 C 
ATOM      5  N   UNL     1      -1.819  -0.710   7.405  0.00  0.00    -0.282 N 
ATOM      6  H   UNL     1      -0.051   1.919   8.221  0.00  0.00    +0.171 HD
ENDROOT
BRANCH   4   7
ATOM      7  C   UNL     1      -4.027   0.323   6.960  0.00  0.00    +0.022 C 
ATOM      8  C   UNL     1      -4.907   1.389   6.766  0.00  0.00    +0.006 A 
ATOM      9  C   UNL     1      -4.746   2.787   6.864  0.00  0.00    +0.010 A 
ATOM     10  C   UNL     1      -5.801   3.606   6.613  0.00  0.00    +0.001 A 
ATOM     11  C   UNL     1      -7.052   3.098   6.258  0.00  0.00    +0.002 A 
ATOM     12  C   UNL     1      -7.278   1.766   6.145  0.00  0.00    +0.026 A 
ATOM     13  C   UNL     1      -6.224   0.848   6.392  0.00  0.00    +0.043 A 
ATOM     14  N   UNL     1      -6.187  -0.469   6.350  0.00  0.00    -0.380 N 
ATOM     15  C   UNL     1      -4.835  -0.926   6.687  0.00  0.00    +0.152 C 
ATOM     16  H   UNL     1      -6.935  -1.045   6.127  0.00  0.00    +0.160 HD
ENDBRANCH   4   7
BRANCH   5  17
ATOM     17  C   UNL     1      -2.160  -2.107   7.130  0.00  0.00    +0.078 C 
ATOM     18  C   UNL     1      -1.078  -3.161   7.375  0.00  0.00    +0.024 C 
ATOM     19  C   UNL     1      -1.469  -2.784   5.945  0.00  0.00    +0.024 C 
ENDBRANCH   5  17
BRANCH   1  20
ATOM     20  S   UNL     1       0.743  -0.533   6.547  0.00  0.00    -0.109 S 
BRANCH  20  21
ATOM     21  C   UNL     1       0.089   0.276   5.061  0.00  0.00    +0.168 C 
BRANCH  21  23
ATOM     22  N   UNL     1       0.761   0.581   2.700  0.00  0.00    -0.297 N 
ATOM     23  C   UNL     1       1.042   0.065   3.914  0.00  0.00    +0.224 C 
ATOM     24  O   UNL     1       2.062  -0.569   4.082  0.00  0.00    -0.275 OA
ATOM     25  H   UNL     1      -0.055   1.088   2.566  0.00  0.00    +0.150 HD
BRANCH  22  26
ATOM     26  C   UNL     1       1.688   0.376   1.585  0.00  0.00    +0.121 C 
ATOM     27  C   UNL     1       1.846  -1.123   1.322  0.00  0.00    +0.048 C 
BRANCH  26  29
ATOM     28  C   UNL     1       1.096   2.572   0.551  0.00  0.00    +0.010 C 
ATOM     29  C   UNL     1       1.137   1.058   0.332  0.00  0.00    +0.020 C 
ATOM     30  C   UNL     1       2.040   0.740  -0.862  0.00  0.00    +0.010 C 
ENDBRANCH  26  29
BRANCH  26  31
ATOM     31  C   UNL     1       2.999   0.955   1.923  0.00  0.00    +0.088 C 
ATOM     32  N   UNL     1       4.010   1.402   2.183  0.00  0.00    -0.194 NA
ENDBRANCH  26  31
ENDBRANCH  22  26
ENDBRANCH  21  23
ENDBRANCH  20  21
ENDBRANCH   1  20
TORSDOF 8
