REMARK  Name = ZINC04883721
REMARK  9 active torsions:
REMARK  status: ('A' for Active; 'I' for Inactive)
REMARK    1  A    between atoms: C_1  and  C_2
REMARK    2  A    between atoms: C_2  and  O_3
REMARK    3  A    between atoms: O_3  and  C_4
REMARK    4  A    between atoms: C_4  and  C_6
REMARK    5  A    between atoms: C_6  and  C_27
REMARK    6  A    between atoms: C_11  and  C_13
REMARK    7  A    between atoms: C_16  and  O_19
REMARK    8  A    between atoms: O_19  and  C_20
REMARK    9  A    between atoms: N_23  and  C_26
REMARK                            x       y       z     vdW  Elec       q    Type
REMARK                         _______ _______ _______ _____ _____    ______ ____
ROOT
ATOM      1  C   UNL     1      -1.331   2.074   0.020  0.00  0.00    +0.041 C 
ATOM      2  C   UNL     1      -1.163   3.483  -0.585  0.00  0.00    +0.085 C 
ATOM      3  C   UNL     1      -1.558   3.326  -2.078  0.00  0.00    +0.077 C 
ATOM      4  C   UNL     1      -1.927   1.836  -2.235  0.00  0.00    -0.027 C 
ATOM      5  C   UNL     1      -2.811   4.164  -2.198  0.00  0.00    +0.224 C 
ATOM      6  O   UNL     1      -3.456   4.319  -3.213  0.00  0.00    -0.275 OA
ATOM      7  N   UNL     1      -3.097   4.708  -1.009  0.00  0.00    -0.245 N 
ATOM      8  C   UNL     1      -2.239   4.393  -0.033  0.00  0.00    +0.225 C 
ATOM      9  O   UNL     1      -2.311   4.776   1.115  0.00  0.00    -0.275 OA
ATOM     10  C   UNL     1      -4.257   5.577  -0.794  0.00  0.00    +0.141 C 
ATOM     11  C   UNL     1      -1.878   2.167   1.446  0.00  0.00    +0.002 C 
ATOM     12  N   UNL     1      -2.283   1.419  -0.878  0.00  0.00    +0.395 N 
ATOM     13  H   UNL     1      -3.241   1.713  -0.656  0.00  0.00    -0.083 HD
ATOM     14  H   UNL     1      -2.209   0.399  -0.790  0.00  0.00    -0.083 HD
ENDROOT
BRANCH   4  15
ATOM     15  C   UNL     1      -3.088   1.680  -3.184  0.00  0.00    -0.060 A 
ATOM     16  C   UNL     1      -4.378   1.900  -2.738  0.00  0.00    +0.005 A 
ATOM     17  C   UNL     1      -5.443   1.763  -3.607  0.00  0.00    +0.046 A 
ATOM     18  C   UNL     1      -5.218   1.393  -4.925  0.00  0.00    +0.120 A 
ATOM     19  C   UNL     1      -3.922   1.167  -5.369  0.00  0.00    +0.046 A 
ATOM     20  C   UNL     1      -2.861   1.311  -4.497  0.00  0.00    +0.005 A 
BRANCH  18  21
ATOM     21  O   UNL     1      -6.264   1.253  -5.781  0.00  0.00    -0.495 OA
ATOM     22  C   UNL     1      -7.569   1.501  -5.256  0.00  0.00    +0.277 C 
ENDBRANCH  18  21
ENDBRANCH   4  15
BRANCH   1  23
ATOM     23  C   UNL     1      -0.016   1.338   0.009  0.00  0.00    +0.297 C 
ATOM     24  O   UNL     1       1.022   1.956   0.003  0.00  0.00    -0.252 OA
BRANCH  23  25
ATOM     25  O   UNL     1       0.002  -0.004   0.002  0.00  0.00    -0.466 OA
BRANCH  25  27
ATOM     26  C   UNL     1       1.125  -2.165  -0.020  0.00  0.00    +0.048 C 
ATOM     27  C   UNL     1       1.305  -0.646  -0.014  0.00  0.00    +0.228 C 
ENDBRANCH  25  27
ENDBRANCH  23  25
ENDBRANCH   1  23
TORSDOF 5
