REMARK  Name = ZINC02777574
REMARK  8 active torsions:
REMARK  status: ('A' for Active; 'I' for Inactive)
REMARK    1  A    between atoms: C_1  and  C_2
REMARK    2  A    between atoms: C_8  and  C_28
REMARK    3  A    between atoms: N_9  and  N_12
REMARK    4  A    between atoms: C_13  and  C_15
REMARK    5  A    between atoms: C_15  and  C_17
REMARK    6  A    between atoms: C_15  and  N_18
REMARK    7  A    between atoms: C_19  and  C_27
REMARK    8  A    between atoms: C_21  and  C_23
REMARK                            x       y       z     vdW  Elec       q    Type
REMARK                         _______ _______ _______ _____ _____    ______ ____
ROOT
ATOM      1  N   UNL     1      -3.119  -1.317   1.469  0.00  0.00    -0.217 N 
ATOM      2  C   UNL     1      -1.987  -0.621   1.249  0.00  0.00    +0.255 C 
ATOM      3  O   UNL     1      -1.624   0.217   2.048  0.00  0.00    -0.272 OA
ATOM      4  H   UNL     1      -3.409  -1.987   0.830  0.00  0.00    +0.176 HD
ENDROOT
BRANCH   1  13
ATOM      5  C   UNL     1      -7.856   2.456   5.914  0.00  0.00    +0.051 C 
ATOM      6  C   UNL     1      -6.910   1.413   5.378  0.00  0.00    -0.010 A 
ATOM      7  C   UNL     1      -6.278   1.394   4.193  0.00  0.00    +0.026 A 
ATOM      8  C   UNL     1      -5.401   0.281   3.877  0.00  0.00    +0.074 A 
ATOM      9  C   UNL     1      -5.299  -0.699   4.880  0.00  0.00    +0.116 A 
ATOM     10  S   UNL     1      -6.360  -0.089   6.164  0.00  0.00    -0.074 S 
ATOM     11  N   UNL     1      -4.533  -1.777   4.734  0.00  0.00    -0.225 NA
ATOM     12  C   UNL     1      -3.845  -1.970   3.641  0.00  0.00    +0.129 A 
ATOM     13  N   UNL     1      -3.878  -1.074   2.622  0.00  0.00    -0.210 N 
ATOM     14  C   UNL     1      -4.629   0.041   2.694  0.00  0.00    +0.279 A 
ATOM     15  O   UNL     1      -4.651   0.833   1.768  0.00  0.00    -0.265 OA
ATOM     16  C   UNL     1      -2.994  -3.207   3.512  0.00  0.00    +0.088 C 
ENDBRANCH   1  13
BRANCH   2  17
ATOM     17  C   UNL     1      -1.171  -0.882   0.009  0.00  0.00    +0.191 C 
ATOM     18  C   UNL     1      -2.023  -0.604  -1.231  0.00  0.00    +0.042 C 
BRANCH  17  19
ATOM     19  N   UNL     1       0.002  -0.004   0.002  0.00  0.00    -0.255 N 
ATOM     20  C   UNL     1       1.292  -0.402  -0.012  0.00  0.00    +0.056 A 
ATOM     21  C   UNL     1       2.067   0.708  -0.014  0.00  0.00    +0.090 A 
ATOM     22  C   UNL     1       1.220   1.823   0.000  0.00  0.00    +0.147 A 
ATOM     23  N   UNL     1      -0.017   1.397   0.010  0.00  0.00    -0.168 NA
ATOM     24 CL   UNL     1       3.802   0.744  -0.031  0.00  0.00    -0.080 Cl
ATOM     25  C   UNL     1       1.783  -1.827  -0.025  0.00  0.00    +0.067 C 
BRANCH  22  26
ATOM     26  C   UNL     1       1.658   3.265   0.003  0.00  0.00    +0.393 C 
ATOM     27  F   UNL     1       2.436   3.514   1.139  0.00  0.00    -0.202 F 
ATOM     28  F   UNL     1       2.413   3.525  -1.145  0.00  0.00    -0.202 F 
ENDBRANCH  22  26
ENDBRANCH  17  19
ENDBRANCH   2  17
TORSDOF 4
