REMARK  Name = ZINC01480716
REMARK  8 active torsions:
REMARK  status: ('A' for Active; 'I' for Inactive)
REMARK    1  A    between atoms: C_1  and  C_2
REMARK    2  A    between atoms: C_2  and  O_3
REMARK    3  A    between atoms: O_3  and  C_4
REMARK    4  A    between atoms: C_4  and  C_6
REMARK    5  A    between atoms: N_9  and  C_12
REMARK    6  A    between atoms: C_13  and  C_24
REMARK    7  A    between atoms: C_20  and  C_23
REMARK    8  A    between atoms: N_28  and  C_32
REMARK                            x       y       z     vdW  Elec       q    Type
REMARK                         _______ _______ _______ _____ _____    ______ ____
ROOT
ATOM      1  C   UNL     1      -2.420   1.374  -0.022  0.00  0.00    +0.136 A 
ATOM      2  C   UNL     1      -2.404  -0.025   0.191  0.00  0.00    +0.081 A 
ATOM      3  C   UNL     1      -1.159  -0.697   0.146  0.00  0.00    +0.267 A 
ATOM      4  O   UNL     1      -1.098  -1.901   0.324  0.00  0.00    -0.267 OA
ATOM      5  N   UNL     1      -0.040   0.019  -0.097  0.00  0.00    -0.267 N 
ATOM      6  C   UNL     1       1.163  -0.620  -0.142  0.00  0.00    +0.096 A 
ATOM      7  C   UNL     1       2.303   0.066  -0.382  0.00  0.00    +0.019 A 
ATOM      8  C   UNL     1       2.259   1.451  -0.589  0.00  0.00    +0.008 A 
ATOM      9  C   UNL     1       1.060   2.100  -0.547  0.00  0.00    -0.007 A 
ATOM     10  C   UNL     1      -0.115   1.369  -0.295  0.00  0.00    +0.145 A 
ATOM     11  N   UNL     1      -1.282   2.013  -0.249  0.00  0.00    -0.213 NA
ATOM     12  C   UNL     1       0.996   3.589  -0.767  0.00  0.00    +0.047 C 
ENDROOT
BRANCH   2  13
ATOM     13  C   UNL     1      -3.602  -0.734   0.441  0.00  0.00    +0.037 C 
ATOM     14  C   UNL     1      -4.406  -0.368   1.482  0.00  0.00    +0.077 C 
ATOM     15  C   UNL     1      -5.606  -0.972   1.954  0.00  0.00    +0.258 C 
ATOM     16  O   UNL     1      -6.063  -1.965   1.415  0.00  0.00    -0.269 OA
ATOM     17  N   UNL     1      -6.212  -0.424   2.994  0.00  0.00    -0.258 N 
ATOM     18  C   UNL     1      -5.706   0.678   3.591  0.00  0.00    +0.120 C 
ATOM     19  S   UNL     1      -6.315   1.546   4.935  0.00  0.00    -0.027 S 
ATOM     20  S   UNL     1      -4.236   0.994   2.627  0.00  0.00    -0.061 S 
ATOM     21  C   UNL     1      -7.449  -1.019   3.505  0.00  0.00    +0.139 C 
ENDBRANCH   2  13
BRANCH   1  25
ATOM     22  C   UNL     1      -5.666   3.851  -0.952  0.00  0.00    +0.101 C 
ATOM     23  C   UNL     1      -4.704   4.253   0.170  0.00  0.00    +0.033 C 
ATOM     24  C   UNL     1      -3.376   3.517  -0.016  0.00  0.00    +0.107 C 
ATOM     25  N   UNL     1      -3.610   2.067   0.012  0.00  0.00    -0.314 N 
ATOM     26  C   UNL     1      -4.494   1.651  -1.085  0.00  0.00    +0.107 C 
ATOM     27  C   UNL     1      -5.856   2.332  -0.931  0.00  0.00    +0.033 C 
BRANCH  22  28
ATOM     28  C   UNL     1      -6.996   4.527  -0.741  0.00  0.00    +0.310 C 
ATOM     29  O   UNL     1      -7.159   5.256   0.209  0.00  0.00    -0.251 OA
BRANCH  28  30
ATOM     30  O   UNL     1      -8.000   4.319  -1.607  0.00  0.00    -0.465 OA
BRANCH  30  32
ATOM     31  C   UNL     1     -10.269   4.647  -2.428  0.00  0.00    +0.048 C 
ATOM     32  C   UNL     1      -9.253   5.003  -1.341  0.00  0.00    +0.229 C 
ENDBRANCH  30  32
ENDBRANCH  28  30
ENDBRANCH  22  28
ENDBRANCH   1  25
TORSDOF 5
