REMARK  Name = ZINC46773421
REMARK  9 active torsions:
REMARK  status: ('A' for Active; 'I' for Inactive)
REMARK    1  A    between atoms: C_2  and  C_3
REMARK    2  A    between atoms: C_3  and  N_4
REMARK    3  A    between atoms: N_4  and  S_5
REMARK    4  A    between atoms: S_5  and  C_8
REMARK    5  A    between atoms: C_11  and  C_14
REMARK    6  A    between atoms: N_16  and  N_17
REMARK    7  A    between atoms: N_17  and  C_18
REMARK    8  A    between atoms: C_18  and  N_20
REMARK    9  A    between atoms: N_20  and  C_21
REMARK                            x       y       z     vdW  Elec       q    Type
REMARK                         _______ _______ _______ _____ _____    ______ ____
ROOT
ATOM      1  C   UNL     1      -0.806   6.802   3.997  0.00  0.00    +0.260 C 
ATOM      2  O   UNL     1      -1.871   7.340   3.766  0.00  0.00    -0.269 OA
ATOM      3  N   UNL     1      -0.094   7.155   5.086  0.00  0.00    -0.231 N 
ATOM      4  H   UNL     1       0.756   6.726   5.270  0.00  0.00    +0.173 HD
ENDROOT
BRANCH   1   8
ATOM      5  C   UNL     1       0.676   3.810   1.371  0.00  0.00    +0.105 A 
ATOM      6  C   UNL     1      -0.537   4.420   1.105  0.00  0.00    +0.029 A 
ATOM      7  C   UNL     1      -1.024   5.392   1.954  0.00  0.00    +0.015 A 
ATOM      8  C   UNL     1      -0.290   5.760   3.083  0.00  0.00    +0.038 A 
ATOM      9  C   UNL     1       0.933   5.141   3.345  0.00  0.00    +0.015 A 
ATOM     10  C   UNL     1       1.406   4.166   2.491  0.00  0.00    +0.029 A 
BRANCH   5  11
ATOM     11  S   UNL     1       1.290   2.569   0.281  0.00  0.00    +0.059 S 
ATOM     12  O   UNL     1       2.700   2.535   0.458  0.00  0.00    -0.153 OA
ATOM     13  O   UNL     1       0.686   2.803  -0.983  0.00  0.00    -0.153 OA
BRANCH  11  14
ATOM     14  N   UNL     1       0.712   1.114   0.820  0.00  0.00    -0.178 NA
ATOM     15  H   UNL     1       1.326   0.441   1.153  0.00  0.00    +0.149 HD
BRANCH  14  16
ATOM     16  C   UNL     1      -0.728   0.843   0.794  0.00  0.00    +0.194 C 
BRANCH  16  18
ATOM     17  C   UNL     1      -1.144  -1.750   1.113  0.00  0.00    +0.005 C 
ATOM     18  C   UNL     1      -0.959  -0.600   0.972  0.00  0.00    -0.089 C 
ENDBRANCH  16  18
ENDBRANCH  14  16
ENDBRANCH  11  14
ENDBRANCH   5  11
ENDBRANCH   1   8
BRANCH   3  19
ATOM     19  N   UNL     1      -0.583   8.142   5.952  0.00  0.00    -0.245 N 
ATOM     20  H   UNL     1      -1.433   8.571   5.767  0.00  0.00    +0.172 HD
BRANCH  19  21
ATOM     21  C   UNL     1       0.129   8.495   7.040  0.00  0.00    +0.151 C 
ATOM     22  S   UNL     1      -0.468   9.701   8.099  0.00  0.00    -0.017 S 
BRANCH  21  23
ATOM     23  N   UNL     1       1.310   7.899   7.296  0.00  0.00    -0.295 N 
ATOM     24  H   UNL     1       1.618   7.172   6.733  0.00  0.00    +0.154 HD
BRANCH  23  25
ATOM     25  C   UNL     1       2.091   8.328   8.376  0.00  0.00    +0.051 A 
ATOM     26  C   UNL     1       1.511   8.519   9.622  0.00  0.00    +0.026 A 
ATOM     27  C   UNL     1       2.284   8.943  10.685  0.00  0.00    +0.022 A 
ATOM     28  C   UNL     1       3.637   9.176  10.510  0.00  0.00    +0.042 A 
ATOM     29  C   UNL     1       4.219   8.986   9.269  0.00  0.00    +0.041 A 
ATOM     30  C   UNL     1       3.451   8.558   8.203  0.00  0.00    +0.063 A 
ATOM     31 CL   UNL     1       4.183   8.313   6.647  0.00  0.00    -0.082 Cl
ATOM     32 CL   UNL     1       4.606   9.708  11.849  0.00  0.00    -0.083 Cl
ENDBRANCH  23  25
ENDBRANCH  21  23
ENDBRANCH  19  21
ENDBRANCH   3  19
TORSDOF 9
