REMARK  Name = ZINC47137434
REMARK  8 active torsions:
REMARK  status: ('A' for Active; 'I' for Inactive)
REMARK    1  A    between atoms: C_1  and  O_2
REMARK    2  A    between atoms: O_2  and  C_3
REMARK    3  A    between atoms: C_5  and  C_10
REMARK    4  A    between atoms: C_8  and  O_9
REMARK    5  A    between atoms: N_11  and  N_12
REMARK    6  A    between atoms: N_14  and  C_25
REMARK    7  A    between atoms: C_18  and  C_19
REMARK    8  A    between atoms: C_25  and  C_26
REMARK                            x       y       z     vdW  Elec       q    Type
REMARK                         _______ _______ _______ _____ _____    ______ ____
ROOT
ATOM      1  N   UNL     1       3.103  -1.525  -5.246  0.00  0.00    -0.126 NA
ATOM      2  C   UNL     1       3.773  -2.111  -6.219  0.00  0.00    +0.190 C 
ATOM      3  N   UNL     1       4.485  -1.527  -7.243  0.00  0.00    -0.237 N 
ATOM      4  C   UNL     1       5.104  -2.271  -8.144  0.00  0.00    +0.259 C 
ATOM      5  O   UNL     1       5.739  -1.771  -9.055  0.00  0.00    -0.269 OA
ATOM      6  C   UNL     1       4.995  -3.730  -7.996  0.00  0.00    +0.079 C 
ATOM      7  C   UNL     1       5.525  -4.721  -8.770  0.00  0.00    +0.035 C 
ATOM      8  S   UNL     1       3.985  -3.857  -6.527  0.00  0.00    -0.047 S 
ENDROOT
BRANCH   7   9
ATOM      9  C   UNL     1       5.291  -6.076  -8.442  0.00  0.00    +0.013 A 
ATOM     10  C   UNL     1       5.739  -7.225  -9.087  0.00  0.00    +0.015 A 
ATOM     11  C   UNL     1       5.342  -8.415  -8.525  0.00  0.00    +0.008 A 
ATOM     12  C   UNL     1       4.564  -8.394  -7.415  0.00  0.00    +0.046 A 
ATOM     13  S   UNL     1       4.351  -6.759  -7.090  0.00  0.00    -0.097 S 
ENDBRANCH   7   9
BRANCH   1  15
ATOM     14  C   UNL     1       2.394   0.344  -4.216  0.00  0.00    +0.143 C 
ATOM     15  N   UNL     1       3.057  -0.237  -5.180  0.00  0.00    -0.155 NA
BRANCH  14  18
ATOM     16  C   UNL     1       0.344  -0.630  -1.227  0.00  0.00    +0.162 A 
ATOM     17  C   UNL     1       0.937   0.139  -2.211  0.00  0.00    +0.059 A 
ATOM     18  C   UNL     1       1.759  -0.468  -3.166  0.00  0.00    -0.002 A 
ATOM     19  C   UNL     1       1.976  -1.849  -3.121  0.00  0.00    +0.013 A 
ATOM     20  C   UNL     1       1.380  -2.608  -2.136  0.00  0.00    +0.050 A 
ATOM     21  C   UNL     1       0.569  -2.004  -1.185  0.00  0.00    +0.158 A 
BRANCH  16  23
ATOM     22  C   UNL     1      -0.643   1.369  -0.399  0.00  0.00    +0.277 C 
ATOM     23  O   UNL     1      -0.456  -0.044  -0.296  0.00  0.00    -0.491 OA
ENDBRANCH  16  23
BRANCH  21  24
ATOM     24  O   UNL     1      -0.011  -2.757  -0.213  0.00  0.00    -0.503 OA
ATOM     25  H   UNL     1      -0.881  -3.106  -0.452  0.00  0.00    +0.292 HD
ENDBRANCH  21  24
ENDBRANCH  14  18
ENDBRANCH   1  15
BRANCH   3  26
ATOM     26  C   UNL     1       4.557  -0.067  -7.336  0.00  0.00    +0.190 C 
BRANCH  26  27
ATOM     27  C   UNL     1       5.750   0.428  -6.559  0.00  0.00    +0.123 A 
ATOM     28  C   UNL     1       6.990   0.605  -7.050  0.00  0.00    +0.046 A 
ATOM     29  C   UNL     1       7.788   1.078  -5.984  0.00  0.00    +0.041 A 
ATOM     30  C   UNL     1       6.989   1.163  -4.905  0.00  0.00    +0.195 A 
ATOM     31  O   UNL     1       5.754   0.774  -5.261  0.00  0.00    -0.466 OA
ENDBRANCH  26  27
ENDBRANCH   3  26
TORSDOF 7
