REMARK  Name = ZINC36756535
REMARK  4 active torsions:
REMARK  status: ('A' for Active; 'I' for Inactive)
REMARK    1  A    between atoms: C_1  and  C_2
REMARK    2  A    between atoms: C_2  and  C_3
REMARK    3  A    between atoms: N_7  and  C_11
REMARK    4  A    between atoms: C_14  and  C_18
REMARK                            x       y       z     vdW  Elec       q    Type
REMARK                         _______ _______ _______ _____ _____    ______ ____
ROOT
ATOM      1  C   UNL     1      -1.444  -0.533   0.018  0.00  0.00    +0.161 C 
ATOM      2  C   UNL     1      -1.461  -2.048   0.086  0.00  0.00    +0.248 C 
ATOM      3  O   UNL     1      -1.030  -2.746   0.978  0.00  0.00    -0.273 OA
ATOM      4  N   UNL     1      -2.055  -2.456  -1.053  0.00  0.00    -0.193 N 
ATOM      5  C   UNL     1      -2.412  -1.421  -1.822  0.00  0.00    +0.314 C 
ATOM      6  O   UNL     1      -2.965  -1.538  -2.898  0.00  0.00    -0.252 OA
ATOM      7  N   UNL     1      -2.092  -0.233  -1.270  0.00  0.00    -0.287 N 
ATOM      8  H   UNL     1      -2.256   0.646  -1.645  0.00  0.00    +0.151 HD
ENDROOT
BRANCH   4   9
ATOM      9  C   UNL     1      -2.272  -3.800  -1.390  0.00  0.00    +0.047 A 
ATOM     10  C   UNL     1      -3.000  -4.122  -2.528  0.00  0.00    +0.024 A 
ATOM     11  C   UNL     1      -3.212  -5.447  -2.858  0.00  0.00    +0.006 A 
ATOM     12  C   UNL     1      -2.701  -6.451  -2.057  0.00  0.00    -0.032 A 
ATOM     13  C   UNL     1      -1.976  -6.133  -0.922  0.00  0.00    +0.046 A 
ATOM     14  C   UNL     1      -1.755  -4.809  -0.590  0.00  0.00    +0.044 A 
ATOM     15 CL   UNL     1      -1.338  -7.397   0.082  0.00  0.00    -0.083 Cl
ATOM     16  C   UNL     1      -2.935  -7.895  -2.420  0.00  0.00    +0.045 C 
ENDBRANCH   4   9
BRANCH   1  18
ATOM     17  C   UNL     1      -0.020   1.520   0.036  0.00  0.00    +0.006 C 
ATOM     18  C   UNL     1      -0.006  -0.010   0.032  0.00  0.00    +0.028 C 
ENDBRANCH   1  18
TORSDOF 2
