REMARK  Name = ZINC44784218
REMARK  4 active torsions:
REMARK  status: ('A' for Active; 'I' for Inactive)
REMARK    1  A    between atoms: C_1  and  C_2
REMARK    2  A    between atoms: C_12  and  C_14
REMARK    3  A    between atoms: C_14  and  C_19
REMARK    4  A    between atoms: N_20  and  O_21
REMARK                            x       y       z     vdW  Elec       q    Type
REMARK                         _______ _______ _______ _____ _____    ______ ____
ROOT
ATOM      1  C   UNL     1       2.126  -1.919  -2.438  0.00  0.00    +0.029 C 
ATOM      2  C   UNL     1       1.161  -2.255  -1.300  0.00  0.00    +0.083 C 
ATOM      3  C   UNL     1      -0.084  -1.356  -1.373  0.00  0.00    +0.059 C 
ATOM      4  C   UNL     1      -0.077  -0.588  -0.070  0.00  0.00    -0.024 A 
ATOM      5  C   UNL     1      -0.947   0.365   0.425  0.00  0.00    +0.005 A 
ATOM      6  C   UNL     1      -0.722   0.932   1.665  0.00  0.00    +0.000 A 
ATOM      7  C   UNL     1       0.376   0.543   2.411  0.00  0.00    +0.002 A 
ATOM      8  C   UNL     1       1.246  -0.407   1.921  0.00  0.00    +0.024 A 
ATOM      9  C   UNL     1       1.026  -0.984   0.669  0.00  0.00    +0.040 A 
ATOM     10  N   UNL     1       1.778  -1.955  -0.005  0.00  0.00    -0.267 N 
ATOM     11  C   UNL     1       2.902  -2.529   0.467  0.00  0.00    +0.233 C 
ATOM     12  O   UNL     1       3.439  -3.417  -0.161  0.00  0.00    -0.274 OA
ENDROOT
BRANCH  11  13
ATOM     13  C   UNL     1       3.494  -2.067   1.774  0.00  0.00    +0.105 C 
ATOM     14  C   UNL     1       3.904  -0.587   1.673  0.00  0.00    +0.024 C 
ATOM     15  C   UNL     1       5.425  -0.534   1.923  0.00  0.00    +0.001 C 
ATOM     16  C   UNL     1       5.921  -1.955   1.557  0.00  0.00    +0.001 C 
ATOM     17  C   UNL     1       4.779  -2.861   2.082  0.00  0.00    +0.024 C 
BRANCH  13  18
ATOM     18  C   UNL     1       2.494  -2.252   2.886  0.00  0.00    +0.147 C 
ATOM     19  N   UNL     1       2.738  -1.773   4.061  0.00  0.00    -0.076 NA
ATOM     20  N   UNL     1       1.319  -2.931   2.650  0.00  0.00    -0.343 N 
ATOM     21  H   UNL     1       0.491  -2.440   2.526  0.00  0.00    +0.144 HD
ATOM     22  H   UNL     1       1.319  -3.900   2.608  0.00  0.00    +0.144 HD
BRANCH  19  23
ATOM     23  O   UNL     1       1.798  -1.946   5.106  0.00  0.00    -0.408 OA
ATOM     24  H   UNL     1       2.069  -1.554   5.947  0.00  0.00    +0.328 HD
ENDBRANCH  19  23
ENDBRANCH  13  18
ENDBRANCH  11  13
TORSDOF 3
