REMARK  Name = ZINC37497724
REMARK  4 active torsions:
REMARK  status: ('A' for Active; 'I' for Inactive)
REMARK    1  A    between atoms: C_1  and  C_2
REMARK    2  A    between atoms: C_5  and  C_7
REMARK    3  A    between atoms: C_12  and  C_15
REMARK    4  A    between atoms: C_18  and  O_21
REMARK                            x       y       z     vdW  Elec       q    Type
REMARK                         _______ _______ _______ _____ _____    ______ ____
ROOT
ATOM      1  C   UNL     1       1.320   0.160   2.233  0.00  0.00    +0.219 C 
ATOM      2  O   UNL     1       1.250   1.367   2.148  0.00  0.00    -0.275 OA
ATOM      3  N   UNL     1       1.950  -0.407   3.281  0.00  0.00    -0.301 N 
ATOM      4  C   UNL     1       2.049  -1.869   3.394  0.00  0.00    +0.108 C 
ATOM      5  C   UNL     1       3.521  -2.251   3.577  0.00  0.00    +0.027 C 
ATOM      6  C   UNL     1       4.097  -1.488   4.772  0.00  0.00    +0.022 C 
ATOM      7  C   UNL     1       4.018   0.017   4.505  0.00  0.00    +0.027 C 
ATOM      8  C   UNL     1       2.557   0.425   4.329  0.00  0.00    +0.108 C 
ENDROOT
BRANCH   6   9
ATOM      9  C   UNL     1       5.535  -1.887   4.977  0.00  0.00    -0.044 A 
ATOM     10  C   UNL     1       6.461  -1.673   3.972  0.00  0.00    +0.007 A 
ATOM     11  C   UNL     1       7.780  -2.039   4.157  0.00  0.00    +0.045 A 
ATOM     12  C   UNL     1       8.177  -2.620   5.353  0.00  0.00    +0.117 A 
ATOM     13  C   UNL     1       7.246  -2.833   6.359  0.00  0.00    +0.045 A 
ATOM     14  C   UNL     1       5.929  -2.461   6.172  0.00  0.00    +0.007 A 
BRANCH  12  15
ATOM     15  O   UNL     1       9.474  -2.981   5.537  0.00  0.00    -0.507 OA
ATOM     16  H   UNL     1      10.025  -2.285   5.921  0.00  0.00    +0.292 HD
ENDBRANCH  12  15
ENDBRANCH   6   9
BRANCH   1  20
ATOM     17  C   UNL     1      -0.019   1.526   0.010  0.00  0.00    +0.008 C 
ATOM     18  C   UNL     1       0.002  -0.004   0.002  0.00  0.00    -0.002 C 
ATOM     19  C   UNL     1       1.351  -0.691  -0.221  0.00  0.00    +0.017 C 
ATOM     20  C   UNL     1       0.703  -0.708   1.166  0.00  0.00    +0.078 C 
ENDBRANCH   1  20
TORSDOF 3
