REMARK  Name = ZINC66175802
REMARK  6 active torsions:
REMARK  status: ('A' for Active; 'I' for Inactive)
REMARK    1  A    between atoms: C_1  and  C_2
REMARK    2  A    between atoms: C_2  and  C_3
REMARK    3  A    between atoms: C_2  and  C_4
REMARK    4  A    between atoms: C_4  and  C_6
REMARK    5  A    between atoms: C_4  and  N_11
REMARK    6  A    between atoms: C_17  and  N_20
REMARK                            x       y       z     vdW  Elec       q    Type
REMARK                         _______ _______ _______ _____ _____    ______ ____
ROOT
ATOM      1  N   UNL     1       0.738  -1.962  -1.265  0.00  0.00    -0.292 N 
ATOM      2  C   UNL     1       1.710  -2.627  -0.608  0.00  0.00    +0.303 C 
ATOM      3  O   UNL     1       2.570  -2.010  -0.009  0.00  0.00    -0.253 OA
ATOM      4  N   UNL     1       1.728  -3.974  -0.616  0.00  0.00    -0.287 N 
ATOM      5  C   UNL     1       0.758  -4.841  -1.302  0.00  0.00    +0.108 C 
ATOM      6  C   UNL     1       1.194  -6.301  -1.055  0.00  0.00    +0.005 C 
ATOM      7  C   UNL     1       2.702  -6.161  -0.719  0.00  0.00    -0.049 C 
ATOM      8  C   UNL     1       2.727  -4.824   0.058  0.00  0.00    +0.094 C 
ATOM      9  H   UNL     1       0.052  -2.454  -1.743  0.00  0.00    +0.151 HD
ENDROOT
BRANCH   7  10
ATOM     10  N   UNL     1       3.158  -7.273   0.126  0.00  0.00    +0.383 N 
ATOM     11  C   UNL     1       3.034  -8.559  -0.608  0.00  0.00    -0.078 C 
ATOM     12  C   UNL     1       4.029  -9.487   0.132  0.00  0.00    -0.020 C 
ATOM     13  C   UNL     1       5.202  -8.538   0.470  0.00  0.00    -0.020 C 
ATOM     14  C   UNL     1       4.596  -7.122   0.435  0.00  0.00    -0.078 C 
ATOM     15  H   UNL     1       2.620  -7.306   0.979  0.00  0.00    -0.081 HD
ENDBRANCH   7  10
BRANCH   1  16
ATOM     16  C   UNL     1       0.718  -0.497  -1.257  0.00  0.00    +0.114 C 
BRANCH  16  17
ATOM     17  C   UNL     1      -0.011   0.002  -2.478  0.00  0.00    +0.010 A 
ATOM     18  C   UNL     1       0.289   1.052  -3.281  0.00  0.00    +0.013 A 
ATOM     19  C   UNL     1      -0.532   1.327  -4.358  0.00  0.00    +0.008 A 
ATOM     20  C   UNL     1      -1.612   0.538  -4.580  0.00  0.00    +0.045 A 
ATOM     21  S   UNL     1      -1.488  -0.641  -3.246  0.00  0.00    -0.100 S 
ENDBRANCH  16  17
BRANCH  16  23
ATOM     22  C   UNL     1      -0.019   1.526   0.010  0.00  0.00    +0.009 C 
ATOM     23  C   UNL     1       0.002  -0.004   0.002  0.00  0.00    +0.008 C 
ATOM     24  C   UNL     1      -1.433  -0.534   0.013  0.00  0.00    +0.009 C 
ENDBRANCH  16  23
ENDBRANCH   1  16
TORSDOF 4
