REMARK  Name = ZINC54526428
REMARK  2 active torsions:
REMARK  status: ('A' for Active; 'I' for Inactive)
REMARK    1  A    between atoms: C_9  and  C_12
REMARK    2  A    between atoms: N_16  and  C_17
REMARK                            x       y       z     vdW  Elec       q    Type
REMARK                         _______ _______ _______ _____ _____    ______ ____
ROOT
ATOM      1  C   UNL     1      -0.017   1.379   0.010  0.00  0.00    +0.002 A 
ATOM      2  C   UNL     1       1.170   2.087   0.002  0.00  0.00    +0.004 A 
ATOM      3  C   UNL     1       2.381   1.420  -0.015  0.00  0.00    +0.047 A 
ATOM      4  C   UNL     1       2.410   0.034  -0.023  0.00  0.00    +0.142 A 
ATOM      5  C   UNL     1       1.213  -0.678  -0.013  0.00  0.00    +0.070 A 
ATOM      6  C   UNL     1       0.002  -0.004   0.002  0.00  0.00    +0.026 A 
ATOM      7  N   UNL     1       1.237  -2.082  -0.014  0.00  0.00    -0.337 N 
ATOM      8  C   UNL     1       2.512  -2.744  -0.339  0.00  0.00    +0.154 C 
ATOM      9  C   UNL     1       3.630  -1.978   0.383  0.00  0.00    +0.258 C 
ATOM     10  O   UNL     1       3.604  -0.614  -0.044  0.00  0.00    -0.478 OA
ATOM     11  H   UNL     1       0.442  -2.597   0.193  0.00  0.00    +0.146 HD
ENDROOT
BRANCH   9  12
ATOM     12  C   UNL     1       4.963  -2.592   0.044  0.00  0.00    +0.176 A 
ATOM     13  N   UNL     1       5.612  -2.461  -1.082  0.00  0.00    -0.131 NA
ATOM     14  N   UNL     1       6.715  -3.119  -1.025  0.00  0.00    -0.138 NA
ATOM     15  C   UNL     1       6.821  -3.700   0.139  0.00  0.00    +0.225 A 
ATOM     16  N   UNL     1       5.715  -3.378   0.852  0.00  0.00    -0.311 N 
BRANCH  16  17
ATOM     17  C   UNL     1       5.395  -3.797   2.219  0.00  0.00    +0.090 C 
ATOM     18  C   UNL     1       6.519  -3.362   3.182  0.00  0.00    +0.025 C 
ATOM     19  C   UNL     1       6.625  -4.530   4.194  0.00  0.00    +0.002 C 
ATOM     20  C   UNL     1       6.401  -5.777   3.303  0.00  0.00    +0.002 C 
ATOM     21  C   UNL     1       5.320  -5.332   2.296  0.00  0.00    +0.025 C 
ENDBRANCH  16  17
ENDBRANCH   9  12
TORSDOF 2
