REMARK  Name = ZINC63872179
REMARK  9 active torsions:
REMARK  status: ('A' for Active; 'I' for Inactive)
REMARK    1  A    between atoms: C_1  and  C_2
REMARK    2  A    between atoms: C_2  and  C_3
REMARK    3  A    between atoms: C_2  and  C_4
REMARK    4  A    between atoms: C_7  and  S_12
REMARK    5  A    between atoms: N_8  and  C_9
REMARK    6  A    between atoms: S_12  and  C_15
REMARK    7  A    between atoms: C_15  and  C_16
REMARK    8  A    between atoms: C_15  and  C_17
REMARK    9  A    between atoms: N_19  and  C_20
REMARK                            x       y       z     vdW  Elec       q    Type
REMARK                         _______ _______ _______ _____ _____    ______ ____
ROOT
ATOM      1  S   UNL     1      -4.487  -2.477  -1.214  0.00  0.00    +0.043 S 
ATOM      2  O   UNL     1      -3.805  -3.454  -1.988  0.00  0.00    -0.166 OA
ATOM      3  O   UNL     1      -5.304  -2.863  -0.118  0.00  0.00    -0.166 OA
ENDROOT
BRANCH   1   7
ATOM      4  C   UNL     1      -1.342  -0.459  -0.149  0.00  0.00    +0.138 A 
ATOM      5  N   UNL     1      -2.152  -0.255   0.853  0.00  0.00    -0.132 NA
ATOM      6  N   UNL     1      -3.261  -0.872   0.645  0.00  0.00    -0.110 NA
ATOM      7  C   UNL     1      -3.209  -1.497  -0.499  0.00  0.00    +0.273 A 
ATOM      8  N   UNL     1      -1.991  -1.249  -1.039  0.00  0.00    -0.293 N 
BRANCH   4  10
ATOM      9  C   UNL     1      -0.001   1.615  -0.368  0.00  0.00    +0.015 C 
ATOM     10  C   UNL     1       0.055   0.088  -0.294  0.00  0.00    +0.051 C 
ATOM     11  C   UNL     1       0.895  -0.333   0.914  0.00  0.00    +0.015 C 
ENDBRANCH   4  10
BRANCH   8  12
ATOM     12  C   UNL     1      -1.478  -1.737  -2.321  0.00  0.00    +0.092 C 
ATOM     13  C   UNL     1      -1.086  -3.214  -2.409  0.00  0.00    +0.027 C 
ATOM     14  C   UNL     1      -0.002  -2.134  -2.387  0.00  0.00    +0.027 C 
ENDBRANCH   8  12
ENDBRANCH   1   7
BRANCH   1  15
ATOM     15  C   UNL     1      -5.393  -1.341  -2.300  0.00  0.00    +0.222 C 
ATOM     16  C   UNL     1      -4.421  -0.696  -3.289  0.00  0.00    +0.042 C 
BRANCH  15  17
ATOM     17  C   UNL     1      -6.448  -2.105  -3.058  0.00  0.00    +0.242 C 
ATOM     18  O   UNL     1      -6.358  -3.308  -3.175  0.00  0.00    -0.273 OA
ATOM     19  N   UNL     1      -7.492  -1.450  -3.605  0.00  0.00    -0.284 N 
ATOM     20  H   UNL     1      -7.527  -0.481  -3.574  0.00  0.00    +0.155 HD
BRANCH  19  21
ATOM     21  C   UNL     1      -8.524  -2.169  -4.218  0.00  0.00    +0.034 A 
ATOM     22  C   UNL     1      -9.168  -1.647  -5.333  0.00  0.00    +0.025 A 
ATOM     23  C   UNL     1     -10.187  -2.358  -5.936  0.00  0.00    +0.022 A 
ATOM     24  C   UNL     1     -10.566  -3.589  -5.431  0.00  0.00    +0.041 A 
ATOM     25  C   UNL     1      -9.927  -4.111  -4.321  0.00  0.00    +0.022 A 
ATOM     26  C   UNL     1      -8.903  -3.407  -3.717  0.00  0.00    +0.025 A 
ATOM     27 CL   UNL     1     -11.848  -4.480  -6.192  0.00  0.00    -0.084 Cl
ENDBRANCH  19  21
ENDBRANCH  15  17
ENDBRANCH   1  15
TORSDOF 6
