REMARK  Name = ZINC18010202
REMARK  4 active torsions:
REMARK  status: ('A' for Active; 'I' for Inactive)
REMARK    1  A    between atoms: C_5  and  N_7
REMARK    2  A    between atoms: N_7  and  C_8
REMARK    3  A    between atoms: C_13  and  C_14
REMARK    4  A    between atoms: C_15  and  C_16
REMARK                            x       y       z     vdW  Elec       q    Type
REMARK                         _______ _______ _______ _____ _____    ______ ____
ROOT
ATOM      1  C   UNL     1       0.065  -2.785   0.089  0.00  0.00    +0.175 C 
ATOM      2  N   UNL     1      -1.174  -2.322   0.116  0.00  0.00    -0.152 NA
ATOM      3  C   UNL     1      -2.220  -3.112   0.227  0.00  0.00    +0.276 C 
ATOM      4  O   UNL     1      -3.359  -2.672   0.250  0.00  0.00    -0.267 OA
ATOM      5  C   UNL     1      -1.943  -4.559   0.321  0.00  0.00    +0.079 C 
ATOM      6  C   UNL     1      -2.816  -5.619   0.444  0.00  0.00    +0.020 C 
ATOM      7  S   UNL     1      -0.157  -4.552   0.226  0.00  0.00    -0.050 S 
ENDROOT
BRANCH   6   8
ATOM      8  C   UNL     1      -2.322  -6.929   0.517  0.00  0.00    +0.005 C 
ATOM      9  C   UNL     1      -3.184  -7.976   0.638  0.00  0.00    +0.046 C 
BRANCH   9  10
ATOM     10  C   UNL     1      -2.687  -9.297   0.712  0.00  0.00    +0.128 A 
ATOM     11  C   UNL     1      -3.443 -10.447   0.830  0.00  0.00    +0.049 A 
ATOM     12  C   UNL     1      -2.538 -11.518   0.868  0.00  0.00    +0.042 A 
ATOM     13  C   UNL     1      -1.295 -10.995   0.774  0.00  0.00    +0.195 A 
ATOM     14  O   UNL     1      -1.388  -9.661   0.675  0.00  0.00    -0.464 OA
ENDBRANCH   9  10
ENDBRANCH   6   8
BRANCH   1  15
ATOM     15  N   UNL     1       1.237  -2.079  -0.022  0.00  0.00    -0.190 NA
BRANCH  15  20
ATOM     16  C   UNL     1       0.186   1.331   0.861  0.00  0.00    +0.002 A 
ATOM     17  C   UNL     1       1.204   2.075   0.293  0.00  0.00    +0.002 A 
ATOM     18  C   UNL     1       2.234   1.443  -0.379  0.00  0.00    +0.022 A 
ATOM     19  C   UNL     1       2.249   0.065  -0.486  0.00  0.00    +0.064 A 
ATOM     20  C   UNL     1       1.226  -0.685   0.084  0.00  0.00    +0.074 A 
ATOM     21  C   UNL     1       0.194  -0.046   0.758  0.00  0.00    +0.026 A 
ATOM     22 CL   UNL     1       3.541  -0.728  -1.331  0.00  0.00    -0.082 Cl
ENDBRANCH  15  20
ENDBRANCH   1  15
TORSDOF 4
