REMARK  Name = ZINC44423039
REMARK  5 active torsions:
REMARK  status: ('A' for Active; 'I' for Inactive)
REMARK    1  A    between atoms: C_1  and  C_2
REMARK    2  A    between atoms: C_7  and  C_8
REMARK    3  A    between atoms: C_10  and  C_13
REMARK    4  A    between atoms: N_18  and  C_20
REMARK    5  A    between atoms: C_23  and  C_26
REMARK                            x       y       z     vdW  Elec       q    Type
REMARK                         _______ _______ _______ _____ _____    ______ ____
ROOT
ATOM      1  C   UNL     1       0.589   0.532   5.983  0.00  0.00    +0.087 C 
ATOM      2  C   UNL     1       1.772   1.400   6.474  0.00  0.00    +0.109 C 
ATOM      3  C   UNL     1       1.327   1.901   7.830  0.00  0.00    +0.221 C 
ATOM      4  O   UNL     1       2.060   2.381   8.668  0.00  0.00    -0.275 OA
ATOM      5  N   UNL     1      -0.001   1.739   7.970  0.00  0.00    -0.271 N 
ATOM      6  C   UNL     1      -0.595   1.139   6.769  0.00  0.00    +0.125 C 
ENDROOT
BRANCH   5   7
ATOM      7  C   UNL     1      -0.723   2.095   9.114  0.00  0.00    +0.036 A 
ATOM      8  C   UNL     1      -0.092   2.761  10.156  0.00  0.00    +0.024 A 
ATOM      9  C   UNL     1      -0.808   3.111  11.285  0.00  0.00    +0.014 A 
ATOM     10  C   UNL     1      -2.151   2.798  11.377  0.00  0.00    +0.055 A 
ATOM     11  C   UNL     1      -2.783   2.134  10.341  0.00  0.00    +0.014 A 
ATOM     12  C   UNL     1      -2.074   1.787   9.208  0.00  0.00    +0.024 A 
BRANCH  10  13
ATOM     13  C   UNL     1      -2.929   3.182  12.610  0.00  0.00    +0.417 C 
ATOM     14  F   UNL     1      -3.478   4.457  12.437  0.00  0.00    -0.166 F 
ATOM     15  F   UNL     1      -3.958   2.256  12.818  0.00  0.00    -0.166 F 
ATOM     16  F   UNL     1      -2.075   3.187  13.717  0.00  0.00    -0.166 F 
ENDBRANCH  10  13
ENDBRANCH   5   7
BRANCH   1  19
ATOM     17  C   UNL     1       0.172   0.167   2.403  0.00  0.00    +0.259 A 
ATOM     18  N   UNL     1       0.372  -0.310   3.611  0.00  0.00    -0.191 NA
ATOM     19  C   UNL     1       0.387   0.687   4.498  0.00  0.00    +0.177 A 
ATOM     20  N   UNL     1       0.197   1.815   3.875  0.00  0.00    -0.061 NA
ATOM     21  O   UNL     1       0.059   1.503   2.497  0.00  0.00    -0.333 OA
BRANCH  17  28
ATOM     22  C   UNL     1      -1.940   0.699   0.499  0.00  0.00    +0.044 C 
ATOM     23  C   UNL     1      -0.921  -0.379   0.232  0.00  0.00    -0.038 A 
ATOM     24  C   UNL     1      -0.987  -1.119  -0.930  0.00  0.00    +0.004 A 
ATOM     25  C   UNL     1      -0.052  -2.109  -1.176  0.00  0.00    +0.000 A 
ATOM     26  C   UNL     1       0.953  -2.364  -0.260  0.00  0.00    +0.001 A 
ATOM     27  C   UNL     1       1.030  -1.631   0.906  0.00  0.00    +0.013 A 
ATOM     28  C   UNL     1       0.093  -0.627   1.158  0.00  0.00    +0.042 A 
ENDBRANCH  17  28
ENDBRANCH   1  19
TORSDOF 4
