REMARK  Name = ZINC00090432
REMARK  1 active torsions:
REMARK  status: ('A' for Active; 'I' for Inactive)
REMARK    1  A    between atoms: C_6  and  N_7
REMARK                            x       y       z     vdW  Elec       q    Type
REMARK                         _______ _______ _______ _____ _____    ______ ____
ROOT
ATOM      1  N   UNL     1      -1.174  -0.708   0.010  0.00  0.00    -0.226 NA
ATOM      2  C   UNL     1      -1.332  -1.729  -0.797  0.00  0.00    +0.162 C 
ATOM      3  N   UNL     1      -2.518  -2.404  -0.766  0.00  0.00    -0.323 N 
ATOM      4  C   UNL     1      -3.445  -1.835  -1.669  0.00  0.00    +0.104 C 
ATOM      5  C   UNL     1      -3.517  -2.571  -3.024  0.00  0.00    +0.027 C 
ATOM      6  C   UNL     1      -2.108  -3.013  -3.510  0.00  0.00    +0.088 C 
ATOM      7  C   UNL     1      -0.951  -2.096  -3.413  0.00  0.00    +0.197 C 
ATOM      8  O   UNL     1      -0.633  -1.356  -4.320  0.00  0.00    -0.285 OA
ATOM      9  S   UNL     1      -0.039  -2.150  -1.847  0.00  0.00    -0.017 S 
ATOM     10  H   UNL     1      -2.700  -3.170  -0.201  0.00  0.00    +0.148 HD
ENDROOT
BRANCH   1  16
ATOM     11  C   UNL     1      -0.017   1.391   0.010  0.00  0.00    +0.031 A 
ATOM     12  C   UNL     1       1.170   2.095   0.002  0.00  0.00    +0.042 A 
ATOM     13  C   UNL     1       2.379   1.420  -0.013  0.00  0.00    +0.142 A 
ATOM     14  C   UNL     1       2.404   0.034  -0.022  0.00  0.00    +0.078 A 
ATOM     15  C   UNL     1       1.223  -0.680  -0.014  0.00  0.00    +0.050 A 
ATOM     16  C   UNL     1       0.002  -0.004   0.002  0.00  0.00    +0.068 A 
ATOM     17 CL   UNL     1       3.924  -0.805  -0.042  0.00  0.00    -0.081 Cl
ATOM     18  F   UNL     1       3.538   2.115  -0.021  0.00  0.00    -0.204 F 
ENDBRANCH   1  16
TORSDOF 1
