REMARK  Name = ZINC04069993
REMARK  4 active torsions:
REMARK  status: ('A' for Active; 'I' for Inactive)
REMARK    1  A    between atoms: C_1  and  C_2
REMARK    2  A    between atoms: C_8  and  C_23
REMARK    3  A    between atoms: C_9  and  N_11
REMARK    4  A    between atoms: C_12  and  C_14
REMARK                            x       y       z     vdW  Elec       q    Type
REMARK                         _______ _______ _______ _____ _____    ______ ____
ROOT
ATOM      1  N   UNL     1      -0.871   1.847   7.479  0.00  0.00    -0.273 N 
ATOM      2  C   UNL     1      -1.852   2.178   8.341  0.00  0.00    +0.274 C 
ATOM      3  O   UNL     1      -2.974   2.399   7.929  0.00  0.00    -0.268 OA
ATOM      4  H   UNL     1       0.025   1.671   7.808  0.00  0.00    +0.156 HD
ENDROOT
BRANCH   1  12
ATOM      5  C   UNL     1      -0.013   1.086   0.008  0.00  0.00    +0.008 C 
ATOM      6  C   UNL     1      -0.729   1.579   1.267  0.00  0.00    -0.009 C 
ATOM      7  C   UNL     1      -2.168   1.057   1.271  0.00  0.00    +0.009 C 
ATOM      8  C   UNL     1      -2.947   1.762   2.391  0.00  0.00    +0.043 C 
ATOM      9  C   UNL     1      -2.126   1.710   3.642  0.00  0.00    -0.004 A 
ATOM     10  C   UNL     1      -0.812   1.408   3.742  0.00  0.00    -0.018 A 
ATOM     11  C   UNL     1      -0.273   1.433   5.090  0.00  0.00    +0.084 A 
ATOM     12  C   UNL     1      -1.141   1.757   6.123  0.00  0.00    +0.090 A 
ATOM     13  S   UNL     1      -2.645   2.023   5.305  0.00  0.00    -0.077 S 
ATOM     14  C   UNL     1       0.012   1.072   2.505  0.00  0.00    +0.040 C 
BRANCH  11  15
ATOM     15  C   UNL     1       1.104   1.133   5.345  0.00  0.00    +0.102 C 
ATOM     16  N   UNL     1       2.197   0.896   5.547  0.00  0.00    -0.191 NA
ENDBRANCH  11  15
ENDBRANCH   1  12
BRANCH   2  17
ATOM     17  C   UNL     1      -1.564   2.274   9.787  0.00  0.00    +0.164 A 
ATOM     18  N   UNL     1      -0.428   2.069  10.418  0.00  0.00    -0.234 NA
ATOM     19  C   UNL     1      -0.303   2.196  11.743  0.00  0.00    +0.079 A 
ATOM     20  C   UNL     1       0.858   2.009  12.535  0.00  0.00    +0.029 A 
ATOM     21  C   UNL     1       0.814   2.173  13.883  0.00  0.00    +0.002 A 
ATOM     22  C   UNL     1      -0.359   2.527  14.539  0.00  0.00    +0.001 A 
ATOM     23  C   UNL     1      -1.514   2.719  13.807  0.00  0.00    +0.017 A 
ATOM     24  C   UNL     1      -1.483   2.557  12.442  0.00  0.00    +0.040 A 
ATOM     25  S   UNL     1      -2.671   2.690  11.127  0.00  0.00    -0.063 S 
ENDBRANCH   2  17
TORSDOF 3
