REMARK  Name = ZINC11973085
REMARK  9 active torsions:
REMARK  status: ('A' for Active; 'I' for Inactive)
REMARK    1  A    between atoms: C_1  and  C_2
REMARK    2  A    between atoms: C_2  and  C_3
REMARK    3  A    between atoms: C_2  and  C_4
REMARK    4  A    between atoms: C_7  and  C_10
REMARK    5  A    between atoms: C_10  and  N_64
REMARK    6  A    between atoms: C_16  and  C_19
REMARK    7  A    between atoms: C_19  and  N_20
REMARK    8  A    between atoms: C_21  and  C_23
REMARK    9  A    between atoms: N_27  and  C_28
REMARK                            x       y       z     vdW  Elec       q    Type
REMARK                         _______ _______ _______ _____ _____    ______ ____
ROOT
ATOM      1  C   UNL     1       4.057  -2.885  -0.209  0.00  0.00    -0.076 C 
ATOM      2  C   UNL     1       5.283  -2.028   0.117  0.00  0.00    +0.016 C 
ATOM      3  C   UNL     1       5.112  -0.645  -0.512  0.00  0.00    +0.067 C 
ATOM      4  C   UNL     1       6.374   0.201  -0.245  0.00  0.00    +0.037 C 
ATOM      5  C   UNL     1       5.942   1.058   0.976  0.00  0.00    +0.036 C 
ATOM      6  C   UNL     1       4.436   1.265   0.674  0.00  0.00    +0.136 C 
ATOM      7  O   UNL     1       4.000   0.030   0.081  0.00  0.00    -0.369 OA
ATOM      8  C   UNL     1       4.900  -0.782  -2.019  0.00  0.00    +0.016 C 
ATOM      9  C   UNL     1       3.686  -1.678  -2.279  0.00  0.00    -0.076 C 
ATOM     10  N   UNL     1       3.934  -3.006  -1.677  0.00  0.00    +0.383 N 
ATOM     11  H   UNL     1       4.811  -3.384  -2.055  0.00  0.00    -0.081 HD
ENDROOT
BRANCH  10  12
ATOM     12  C   UNL     1       2.830  -3.928  -2.017  0.00  0.00    -0.043 C 
BRANCH  12  16
ATOM     13  C   UNL     1       2.014  -3.653  -6.201  0.00  0.00    -0.045 A 
ATOM     14  C   UNL     1       2.955  -4.553  -5.738  0.00  0.00    +0.004 A 
ATOM     15  C   UNL     1       3.220  -4.641  -4.384  0.00  0.00    +0.002 A 
ATOM     16  C   UNL     1       2.542  -3.831  -3.493  0.00  0.00    -0.064 A 
ATOM     17  C   UNL     1       1.596  -2.935  -3.955  0.00  0.00    +0.002 A 
ATOM     18  C   UNL     1       1.336  -2.842  -5.310  0.00  0.00    +0.004 A 
BRANCH  13  20
ATOM     19  C   UNL     1       0.251  -3.880  -7.930  0.00  0.00    +0.012 C 
ATOM     20  C   UNL     1       1.725  -3.557  -7.677  0.00  0.00    +0.013 C 
ATOM     21  C   UNL     1       2.028  -2.139  -8.164  0.00  0.00    +0.012 C 
ENDBRANCH  13  20
ENDBRANCH  12  16
ENDBRANCH  10  12
BRANCH   6  22
ATOM     22  C   UNL     1       3.666   1.534   1.968  0.00  0.00    +0.136 C 
BRANCH  22  23
ATOM     23  N   UNL     1       2.238   1.659   1.670  0.00  0.00    -0.308 N 
ATOM     24  C   UNL     1       1.360   1.899   2.664  0.00  0.00    +0.262 C 
ATOM     25  O   UNL     1       1.762   2.103   3.794  0.00  0.00    -0.269 OA
ATOM     26  H   UNL     1       1.923   1.569   0.757  0.00  0.00    +0.149 HD
BRANCH  24  27
ATOM     27  C   UNL     1      -0.085   1.913   2.383  0.00  0.00    +0.123 A 
ATOM     28  C   UNL     1      -0.700   1.606   1.182  0.00  0.00    +0.054 A 
ATOM     29  C   UNL     1      -2.068   1.764   1.417  0.00  0.00    +0.135 A 
ATOM     30  N   UNL     1      -2.222   2.129   2.664  0.00  0.00    -0.179 NA
ATOM     31  N   UNL     1      -1.086   2.232   3.255  0.00  0.00    -0.262 N 
ATOM     32  C   UNL     1      -0.895   2.624   4.654  0.00  0.00    +0.173 C 
ENDBRANCH  24  27
ENDBRANCH  22  23
ENDBRANCH   6  22
TORSDOF 6
