REMARK  Name = ZINC55506579
REMARK  7 active torsions:
REMARK  status: ('A' for Active; 'I' for Inactive)
REMARK    1  A    between atoms: C_1  and  C_2
REMARK    2  A    between atoms: C_2  and  O_3
REMARK    3  A    between atoms: O_3  and  C_4
REMARK    4  A    between atoms: C_9  and  N_12
REMARK    5  A    between atoms: C_13  and  C_15
REMARK    6  A    between atoms: C_15  and  N_16
REMARK    7  A    between atoms: C_20  and  C_22
REMARK                            x       y       z     vdW  Elec       q    Type
REMARK                         _______ _______ _______ _____ _____    ______ ____
ROOT
ATOM      1  N   UNL     1      -6.017  -3.787   2.206  0.00  0.00    -0.314 N 
ATOM      2  C   UNL     1      -6.821  -4.862   2.081  0.00  0.00    +0.197 C 
ATOM      3  O   UNL     1      -6.813  -5.510   1.056  0.00  0.00    -0.278 OA
ATOM      4  H   UNL     1      -6.024  -3.269   3.025  0.00  0.00    +0.149 HD
ENDROOT
BRANCH   1  10
ATOM      5  C   UNL     1      -1.497  -1.836   0.006  0.00  0.00    +0.403 C 
ATOM      6  O   UNL     1      -0.523  -2.563  -0.007  0.00  0.00    -0.226 OA
ATOM      7  N   UNL     1      -2.735  -2.368   0.015  0.00  0.00    -0.267 N 
ATOM      8  C   UNL     1      -3.922  -1.502   0.025  0.00  0.00    +0.113 C 
ATOM      9  C   UNL     1      -4.819  -1.908   1.199  0.00  0.00    +0.041 C 
ATOM     10  C   UNL     1      -5.132  -3.402   1.103  0.00  0.00    +0.076 C 
ATOM     11  C   UNL     1      -3.832  -4.205   1.189  0.00  0.00    +0.041 C 
ATOM     12  C   UNL     1      -2.924  -3.825   0.009  0.00  0.00    +0.113 C 
BRANCH   5  13
ATOM     13  O   UNL     1      -1.339  -0.499   0.012  0.00  0.00    -0.451 OA
BRANCH  13  15
ATOM     14  C   UNL     1      -0.019   1.526   0.010  0.00  0.00    +0.048 C 
ATOM     15  C   UNL     1       0.002  -0.004   0.002  0.00  0.00    +0.230 C 
ENDBRANCH  13  15
ENDBRANCH   5  13
ENDBRANCH   1  10
BRANCH   2  16
ATOM     16  C   UNL     1      -7.731  -5.258   3.215  0.00  0.00    +0.019 C 
BRANCH  16  17
ATOM     17  N   UNL     1      -8.498  -6.451   2.833  0.00  0.00    +0.390 N 
ATOM     18  C   UNL     1      -7.583  -7.601   2.674  0.00  0.00    -0.077 C 
ATOM     19  C   UNL     1      -7.635  -8.339   4.035  0.00  0.00    -0.020 C 
ATOM     20  C   UNL     1      -9.128  -8.178   4.422  0.00  0.00    -0.013 C 
ATOM     21  C   UNL     1      -9.475  -6.771   3.890  0.00  0.00    -0.037 C 
ATOM     22  H   UNL     1      -8.982  -6.281   1.964  0.00  0.00    -0.080 HD
BRANCH  21  23
ATOM     23  C   UNL     1     -10.869  -6.770   3.318  0.00  0.00    -0.061 A 
ATOM     24  C   UNL     1     -11.103  -7.311   2.067  0.00  0.00    +0.005 A 
ATOM     25  C   UNL     1     -12.381  -7.310   1.541  0.00  0.00    +0.038 A 
ATOM     26  C   UNL     1     -13.427  -6.768   2.267  0.00  0.00    +0.123 A 
ATOM     27  C   UNL     1     -13.192  -6.226   3.520  0.00  0.00    +0.038 A 
ATOM     28  C   UNL     1     -11.914  -6.233   4.046  0.00  0.00    +0.005 A 
ATOM     29  F   UNL     1     -14.677  -6.766   1.754  0.00  0.00    -0.205 F 
ENDBRANCH  21  23
ENDBRANCH  16  17
ENDBRANCH   2  16
TORSDOF 6
