REMARK  Name = ZINC20713196
REMARK  6 active torsions:
REMARK  status: ('A' for Active; 'I' for Inactive)
REMARK    1  A    between atoms: C_1  and  N_2
REMARK    2  A    between atoms: N_2  and  C_3
REMARK    3  A    between atoms: N_2  and  S_9
REMARK    4  A    between atoms: S_9  and  C_12
REMARK    5  A    between atoms: C_25  and  C_28
REMARK    6  A    between atoms: C_33  and  N_34
REMARK                            x       y       z     vdW  Elec       q    Type
REMARK                         _______ _______ _______ _____ _____    ______ ____
ROOT
ATOM      1  C   UNL     1       4.906   3.862   1.823  0.00  0.00    +0.109 A 
ATOM      2  C   UNL     1       3.769   3.801   2.608  0.00  0.00    +0.030 A 
ATOM      3  C   UNL     1       3.888   3.759   3.983  0.00  0.00    +0.025 A 
ATOM      4  C   UNL     1       5.147   3.788   4.572  0.00  0.00    +0.031 A 
ATOM      5  C   UNL     1       6.286   3.858   3.791  0.00  0.00    -0.018 A 
ATOM      6  C   UNL     1       6.155   3.893   2.409  0.00  0.00    +0.034 A 
ATOM      7  C   UNL     1       7.674   3.903   4.371  0.00  0.00    +0.049 C 
ATOM      8  C   UNL     1       8.322   5.198   3.898  0.00  0.00    -0.023 C 
ATOM      9  C   UNL     1       8.197   6.130   4.810  0.00  0.00    -0.030 C 
ATOM     10  C   UNL     1       7.454   5.593   6.020  0.00  0.00    +0.033 C 
ATOM     11  C   UNL     1       7.663   4.064   5.902  0.00  0.00    +0.029 C 
ATOM     12  C   UNL     1       6.520   3.305   6.549  0.00  0.00    +0.107 C 
ATOM     13  N   UNL     1       5.247   3.745   5.967  0.00  0.00    -0.336 N 
ATOM     14  H   UNL     1       4.411   4.029   6.624  0.00  0.00    +0.147 HD
ENDROOT
BRANCH  12  15
ATOM     15  C   UNL     1       6.698   1.828   6.307  0.00  0.00    +0.003 A 
ATOM     16  C   UNL     1       5.972   1.198   5.314  0.00  0.00    +0.008 A 
ATOM     17  C   UNL     1       6.139  -0.156   5.089  0.00  0.00    +0.000 A 
ATOM     18  C   UNL     1       7.024  -0.881   5.864  0.00  0.00    +0.002 A 
ATOM     19  C   UNL     1       7.746  -0.252   6.861  0.00  0.00    +0.033 A 
ATOM     20  C   UNL     1       7.583   1.103   7.082  0.00  0.00    +0.131 A 
BRANCH  20  21
ATOM     21  N   UNL     1       8.356   1.776   8.150  0.00  0.00    +0.057 N 
ATOM     22  O   UNL     1       9.066   1.123   8.893  0.00  0.00    -0.126 OA
ATOM     23  O   UNL     1       8.282   2.985   8.285  0.00  0.00    -0.126 OA
ENDBRANCH  20  21
ENDBRANCH  12  15
BRANCH   1  24
ATOM     24  S   UNL     1       4.759   3.908   0.067  0.00  0.00    +0.074 S 
ATOM     25  O   UNL     1       5.944   4.520  -0.424  0.00  0.00    -0.150 OA
ATOM     26  O   UNL     1       3.464   4.419  -0.218  0.00  0.00    -0.150 OA
BRANCH  24  28
ATOM     27  C   UNL     1       6.056   1.658  -0.686  0.00  0.00    +0.157 C 
ATOM     28  N   UNL     1       4.779   2.341  -0.467  0.00  0.00    -0.206 N 
BRANCH  28  29
ATOM     29  C   UNL     1       3.577   1.670  -0.708  0.00  0.00    +0.051 A 
ATOM     30  C   UNL     1       2.680   2.165  -1.646  0.00  0.00    +0.025 A 
ATOM     31  C   UNL     1       1.494   1.499  -1.882  0.00  0.00    +0.002 A 
ATOM     32  C   UNL     1       1.198   0.342  -1.186  0.00  0.00    +0.000 A 
ATOM     33  C   UNL     1       2.088  -0.153  -0.251  0.00  0.00    +0.002 A 
ATOM     34  C   UNL     1       3.277   0.508  -0.010  0.00  0.00    +0.025 A 
ENDBRANCH  28  29
ENDBRANCH  24  28
ENDBRANCH   1  24
TORSDOF 5
