REMARK  Name = ZINC00795130
REMARK  5 active torsions:
REMARK  status: ('A' for Active; 'I' for Inactive)
REMARK    1  A    between atoms: C_1  and  N_2
REMARK    2  A    between atoms: C_3  and  N_11
REMARK    3  A    between atoms: N_7  and  C_10
REMARK    4  A    between atoms: N_11  and  C_12
REMARK    5  A    between atoms: N_17  and  C_20
REMARK                            x       y       z     vdW  Elec       q    Type
REMARK                         _______ _______ _______ _____ _____    ______ ____
ROOT
ATOM      1  C   UNL     1      -2.394   1.407  -0.406  0.00  0.00    +0.167 C 
ATOM      2  C   UNL     1      -3.675   2.026   0.189  0.00  0.00    +0.128 C 
ATOM      3  C   UNL     1      -4.367   2.632  -1.013  0.00  0.00    +0.229 C 
ATOM      4  O   UNL     1      -5.423   3.226  -0.989  0.00  0.00    -0.275 OA
ATOM      5  N   UNL     1      -3.627   2.409  -2.106  0.00  0.00    -0.207 N 
ATOM      6  C   UNL     1      -2.492   1.728  -1.881  0.00  0.00    +0.247 C 
ATOM      7  O   UNL     1      -1.676   1.419  -2.723  0.00  0.00    -0.273 OA
ENDROOT
BRANCH   5   8
ATOM      8  C   UNL     1      -4.006   2.851  -3.382  0.00  0.00    +0.062 A 
ATOM      9  C   UNL     1      -3.603   4.100  -3.833  0.00  0.00    +0.027 A 
ATOM     10  C   UNL     1      -3.977   4.534  -5.090  0.00  0.00    +0.022 A 
ATOM     11  C   UNL     1      -4.752   3.723  -5.901  0.00  0.00    +0.042 A 
ATOM     12  C   UNL     1      -5.155   2.477  -5.455  0.00  0.00    +0.042 A 
ATOM     13  C   UNL     1      -4.779   2.036  -4.200  0.00  0.00    +0.064 A 
ATOM     14 CL   UNL     1      -5.279   0.470  -3.643  0.00  0.00    -0.082 Cl
ATOM     15 CL   UNL     1      -5.220   4.271  -7.480  0.00  0.00    -0.083 Cl
ENDBRANCH   5   8
BRANCH   1  16
ATOM     16  N   UNL     1      -2.375  -0.042  -0.194  0.00  0.00    -0.319 N 
ATOM     17  H   UNL     1      -3.201  -0.516  -0.008  0.00  0.00    +0.148 HD
BRANCH  16  20
ATOM     18  C   UNL     1      -2.429  -2.824   0.082  0.00  0.00    +0.155 C 
ATOM     19  N   UNL     1      -1.174  -2.097  -0.127  0.00  0.00    -0.285 N 
ATOM     20  C   UNL     1      -1.190  -0.730  -0.258  0.00  0.00    +0.108 A 
ATOM     21  C   UNL     1      -0.014  -0.060  -0.453  0.00  0.00    +0.112 A 
ATOM     22  C   UNL     1       1.184  -0.789  -0.514  0.00  0.00    +0.258 A 
ATOM     23  O   UNL     1       2.244  -0.213  -0.687  0.00  0.00    -0.267 OA
ATOM     24  N   UNL     1       1.154  -2.130  -0.381  0.00  0.00    -0.264 N 
ATOM     25  C   UNL     1      -0.011  -2.772  -0.184  0.00  0.00    +0.333 A 
ATOM     26  O   UNL     1      -0.015  -3.982  -0.061  0.00  0.00    -0.246 OA
ATOM     27  C   UNL     1       2.403  -2.894  -0.445  0.00  0.00    +0.157 C 
ENDBRANCH  16  20
ENDBRANCH   1  16
TORSDOF 3
