REMARK  Name = ZINC66250817
REMARK  4 active torsions:
REMARK  status: ('A' for Active; 'I' for Inactive)
REMARK    1  A    between atoms: C_6  and  S_7
REMARK    2  A    between atoms: S_7  and  N_10
REMARK    3  A    between atoms: C_13  and  C_16
REMARK    4  A    between atoms: C_16  and  N_17
REMARK                            x       y       z     vdW  Elec       q    Type
REMARK                         _______ _______ _______ _____ _____    ______ ____
ROOT
ATOM      1  N   UNL     1      -1.948  -1.147  -1.567  0.00  0.00    -0.103 NA
ATOM      2  C   UNL     1      -3.049  -1.798  -1.851  0.00  0.00    +0.191 A 
ATOM      3  N   UNL     1      -3.587  -2.111  -3.080  0.00  0.00    -0.338 N 
ATOM      4  C   UNL     1      -4.760  -2.807  -3.119  0.00  0.00    +0.008 A 
ATOM      5  C   UNL     1      -5.363  -3.169  -1.987  0.00  0.00    +0.068 A 
ATOM      6  S   UNL     1      -4.250  -2.526  -0.747  0.00  0.00    -0.057 S 
ATOM      7  H   UNL     1      -3.142  -1.843  -3.899  0.00  0.00    +0.167 HD
ENDROOT
BRANCH   1   8
ATOM      8  S   UNL     1      -1.512  -0.905   0.012  0.00  0.00    +0.101 S 
ATOM      9  O   UNL     1      -1.220  -2.186   0.553  0.00  0.00    -0.146 OA
ATOM     10  O   UNL     1      -2.493  -0.045   0.577  0.00  0.00    -0.146 OA
BRANCH   8  16
ATOM     11  C   UNL     1      -0.017   1.378   0.010  0.00  0.00    +0.032 A 
ATOM     12  C   UNL     1       1.170   2.087   0.002  0.00  0.00    +0.043 A 
ATOM     13  C   UNL     1       2.379   1.413  -0.013  0.00  0.00    +0.159 A 
ATOM     14  C   UNL     1       2.397   0.026  -0.021  0.00  0.00    +0.160 A 
ATOM     15  C   UNL     1       1.208  -0.680  -0.013  0.00  0.00    +0.070 A 
ATOM     16  C   UNL     1       0.002  -0.004   0.002  0.00  0.00    +0.115 A 
ATOM     17  F   UNL     1       3.576  -0.634  -0.036  0.00  0.00    -0.202 F 
ATOM     18  F   UNL     1       3.539   2.105  -0.021  0.00  0.00    -0.202 F 
ENDBRANCH   8  16
ENDBRANCH   1   8
BRANCH   4  19
ATOM     19  C   UNL     1      -5.377  -3.166  -4.447  0.00  0.00    -0.024 C 
BRANCH  19  20
ATOM     20  N   UNL     1      -5.775  -1.939  -5.150  0.00  0.00    +0.383 N 
ATOM     21  C   UNL     1      -6.779  -1.230  -4.333  0.00  0.00    -0.078 C 
ATOM     22  C   UNL     1      -6.739   0.233  -4.698  0.00  0.00    -0.019 C 
ATOM     23  C   UNL     1      -7.813   0.581  -5.746  0.00  0.00    -0.002 C 
ATOM     24  C   UNL     1      -7.933  -0.511  -6.828  0.00  0.00    -0.002 C 
ATOM     25  C   UNL     1      -6.589  -1.037  -7.263  0.00  0.00    -0.019 C 
ATOM     26  C   UNL     1      -6.238  -2.282  -6.421  0.00  0.00    -0.078 C 
ATOM     27  H   UNL     1      -4.964  -1.347  -5.249  0.00  0.00    -0.081 HD
ENDBRANCH  19  20
ENDBRANCH   4  19
TORSDOF 4
