REMARK  Name = ZINC20559334
REMARK  8 active torsions:
REMARK  status: ('A' for Active; 'I' for Inactive)
REMARK    1  A    between atoms: C_1  and  C_2
REMARK    2  A    between atoms: C_2  and  C_3
REMARK    3  A    between atoms: C_2  and  C_4
REMARK    4  A    between atoms: C_4  and  N_5
REMARK    5  A    between atoms: C_6  and  C_20
REMARK    6  A    between atoms: N_10  and  C_13
REMARK    7  A    between atoms: C_20  and  C_21
REMARK    8  A    between atoms: N_23  and  C_24
REMARK                            x       y       z     vdW  Elec       q    Type
REMARK                         _______ _______ _______ _____ _____    ______ ____
ROOT
ATOM      1  N   UNL     1       0.019   1.415   0.134  0.00  0.00    -0.273 N 
ATOM      2  C   UNL     1       1.365   1.954  -0.124  0.00  0.00    +0.173 C 
ATOM      3  C   UNL     1       2.110   0.780  -0.727  0.00  0.00    +0.248 C 
ATOM      4  O   UNL     1       3.263   0.757  -1.099  0.00  0.00    -0.273 OA
ATOM      5  N   UNL     1       1.222  -0.234  -0.764  0.00  0.00    -0.193 N 
ATOM      6  C   UNL     1       0.033   0.133  -0.273  0.00  0.00    +0.316 C 
ATOM      7  O   UNL     1      -0.926  -0.609  -0.202  0.00  0.00    -0.252 OA
ENDROOT
BRANCH   5   8
ATOM      8  C   UNL     1       1.510  -1.515  -1.258  0.00  0.00    +0.046 A 
ATOM      9  C   UNL     1       2.805  -1.839  -1.638  0.00  0.00    +0.027 A 
ATOM     10  C   UNL     1       3.088  -3.103  -2.118  0.00  0.00    +0.040 A 
ATOM     11  C   UNL     1       2.077  -4.043  -2.231  0.00  0.00    +0.124 A 
ATOM     12  C   UNL     1       0.784  -3.720  -1.858  0.00  0.00    +0.040 A 
ATOM     13  C   UNL     1       0.499  -2.459  -1.372  0.00  0.00    +0.027 A 
ATOM     14  F   UNL     1       2.354  -5.277  -2.705  0.00  0.00    -0.205 F 
ENDBRANCH   5   8
BRANCH   1  15
ATOM     15  C   UNL     1      -1.117   2.137   0.714  0.00  0.00    +0.113 C 
BRANCH  15  17
ATOM     16  C   UNL     1      -2.237   2.790   2.849  0.00  0.00    +0.009 C 
ATOM     17  C   UNL     1      -1.127   1.937   2.230  0.00  0.00    +0.000 C 
ATOM     18  C   UNL     1      -1.379   0.462   2.549  0.00  0.00    +0.009 C 
ENDBRANCH  15  17
ENDBRANCH   1  15
BRANCH   2  19
ATOM     19  C   UNL     1       1.299   3.117  -1.116  0.00  0.00    +0.128 C 
BRANCH  19  20
ATOM     20  C   UNL     1       2.660   3.753  -1.236  0.00  0.00    +0.219 C 
ATOM     21  O   UNL     1       3.562   3.397  -0.508  0.00  0.00    -0.275 OA
ATOM     22  N   UNL     1       2.875   4.717  -2.153  0.00  0.00    -0.285 N 
ATOM     23  H   UNL     1       2.037   5.100  -2.755  0.00  0.00    +0.155 HD
BRANCH  22  24
ATOM     24  C   UNL     1       4.163   5.233  -2.338  0.00  0.00    +0.034 A 
ATOM     25  C   UNL     1       4.336   6.567  -2.680  0.00  0.00    +0.026 A 
ATOM     26  C   UNL     1       5.608   7.075  -2.858  0.00  0.00    +0.040 A 
ATOM     27  C   UNL     1       6.711   6.251  -2.706  0.00  0.00    +0.124 A 
ATOM     28  C   UNL     1       6.541   4.918  -2.370  0.00  0.00    +0.040 A 
ATOM     29  C   UNL     1       5.270   4.408  -2.186  0.00  0.00    +0.026 A 
ATOM     30  F   UNL     1       7.954   6.748  -2.886  0.00  0.00    -0.205 F 
ENDBRANCH  22  24
ENDBRANCH  19  20
ENDBRANCH   2  19
TORSDOF 6
