REMARK  Name = ZINC49799188
REMARK  12 active torsions:
REMARK  status: ('A' for Active; 'I' for Inactive)
REMARK    1  A    between atoms: C_1  and  C_2
REMARK    2  A    between atoms: C_2  and  C_3
REMARK    3  A    between atoms: C_6  and  C_9
REMARK    4  A    between atoms: C_9  and  C_11
REMARK    5  A    between atoms: C_9  and  N_26
REMARK    6  A    between atoms: C_11  and  N_12
REMARK    7  A    between atoms: N_15  and  C_16
REMARK    8  A    between atoms: N_15  and  C_17
REMARK    9  A    between atoms: C_17  and  C_18
REMARK   10  A    between atoms: C_21  and  C_24
REMARK   11  A    between atoms: N_26  and  C_27
REMARK   12  A    between atoms: N_26  and  C_28
REMARK                            x       y       z     vdW  Elec       q    Type
REMARK                         _______ _______ _______ _____ _____    ______ ____
ROOT
ATOM      1  N   UNL     1       1.739  -0.176  -5.963  0.00  0.00    -0.300 N 
ATOM      2  C   UNL     1       1.854   0.932  -6.720  0.00  0.00    +0.302 C 
ATOM      3  O   UNL     1       2.953   1.400  -6.951  0.00  0.00    -0.253 OA
ATOM      4  N   UNL     1       0.752   1.523  -7.222  0.00  0.00    -0.284 N 
ATOM      5  C   UNL     1      -0.572   0.960  -6.944  0.00  0.00    +0.134 C 
ATOM      6  H   UNL     1       0.863  -0.549  -5.778  0.00  0.00    +0.150 HD
ENDROOT
BRANCH   1   7
ATOM      7  C   UNL     1       2.937  -0.818  -5.417  0.00  0.00    +0.095 C 
BRANCH   7   8
ATOM      8  C   UNL     1       2.539  -2.099  -4.681  0.00  0.00    -0.021 C 
BRANCH   8  12
ATOM      9  C   UNL     1       0.110  -1.109  -1.309  0.00  0.00    -0.048 A 
ATOM     10  C   UNL     1      -0.478  -1.556  -2.478  0.00  0.00    +0.004 A 
ATOM     11  C   UNL     1       0.308  -1.876  -3.569  0.00  0.00    +0.002 A 
ATOM     12  C   UNL     1       1.682  -1.749  -3.491  0.00  0.00    -0.059 A 
ATOM     13  C   UNL     1       2.270  -1.302  -2.323  0.00  0.00    +0.002 A 
ATOM     14  C   UNL     1       1.484  -0.978  -1.234  0.00  0.00    +0.004 A 
BRANCH   9  16
ATOM     15  C   UNL     1      -1.141   0.716  -0.191  0.00  0.00    +0.009 C 
ATOM     16  C   UNL     1      -0.747  -0.760  -0.120  0.00  0.00    +0.032 C 
ENDBRANCH   9  16
ENDBRANCH   8  12
BRANCH   8  17
ATOM     17  N   UNL     1       3.748  -2.797  -4.224  0.00  0.00    +0.382 N 
ATOM     18  C   UNL     1       3.365  -4.003  -3.478  0.00  0.00    -0.096 C 
ATOM     19  C   UNL     1       4.562  -3.179  -5.386  0.00  0.00    -0.096 C 
ATOM     20  H   UNL     1       4.283  -2.187  -3.625  0.00  0.00    -0.082 HD
ENDBRANCH   8  17
ENDBRANCH   7   8
ENDBRANCH   1   7
BRANCH   4  21
ATOM     21  C   UNL     1       0.877   2.728  -8.046  0.00  0.00    +0.144 C 
BRANCH  21  22
ATOM     22  C   UNL     1       1.018   2.335  -9.494  0.00  0.00    -0.030 A 
ATOM     23  C   UNL     1       2.275   2.112 -10.027  0.00  0.00    +0.006 A 
ATOM     24  C   UNL     1       2.412   1.751 -11.352  0.00  0.00    +0.019 A 
ATOM     25  C   UNL     1       1.278   1.611 -12.154  0.00  0.00    +0.052 A 
ATOM     26  C   UNL     1       0.012   1.837 -11.609  0.00  0.00    +0.019 A 
ATOM     27  C   UNL     1      -0.110   2.192 -10.282  0.00  0.00    +0.006 A 
BRANCH  25  28
ATOM     28  C   UNL     1       1.412   1.237 -13.530  0.00  0.00    +0.099 C 
ATOM     29  N   UNL     1       1.518   0.941 -14.622  0.00  0.00    -0.191 NA
ENDBRANCH  25  28
ENDBRANCH  21  22
ENDBRANCH   4  21
TORSDOF 8
