REMARK  Name = ZINC15675285
REMARK  3 active torsions:
REMARK  status: ('A' for Active; 'I' for Inactive)
REMARK    1  A    between atoms: C_1  and  C_2
REMARK    2  A    between atoms: C_15  and  C_16
REMARK    3  A    between atoms: C_22  and  C_25
REMARK                            x       y       z     vdW  Elec       q    Type
REMARK                         _______ _______ _______ _____ _____    ______ ____
ROOT
ATOM      1  C   UNL     1       5.597   4.457  -1.785  0.00  0.00    +0.046 C 
ATOM      2  C   UNL     1       4.721   4.479  -0.559  0.00  0.00    -0.017 A 
ATOM      3  C   UNL     1       3.625   3.619  -0.466  0.00  0.00    +0.076 A 
ATOM      4  C   UNL     1       2.858   3.725   0.717  0.00  0.00    +0.116 A 
ATOM      5  N   UNL     1       1.785   2.978   0.912  0.00  0.00    -0.226 NA
ATOM      6  C   UNL     1       1.373   2.083   0.041  0.00  0.00    +0.114 A 
ATOM      7  N   UNL     1       2.066   1.845  -1.097  0.00  0.00    -0.296 N 
ATOM      8  C   UNL     1       3.144   2.602  -1.423  0.00  0.00    +0.263 A 
ATOM      9  O   UNL     1       3.707   2.446  -2.491  0.00  0.00    -0.267 OA
ATOM     10  C   UNL     1       1.719   0.771  -2.032  0.00  0.00    +0.126 C 
ATOM     11  C   UNL     1       0.256   0.363  -1.881  0.00  0.00    +0.022 C 
ATOM     12  C   UNL     1       0.003   0.044  -0.401  0.00  0.00    +0.009 C 
ATOM     13  C   UNL     1       0.095   1.354   0.380  0.00  0.00    +0.074 C 
ATOM     14  S   UNL     1       3.701   4.987   1.637  0.00  0.00    -0.064 S 
ATOM     15  C   UNL     1       4.997   5.340   0.463  0.00  0.00    +0.080 A 
ENDROOT
BRANCH  15  16
ATOM     16  C   UNL     1       6.088   6.314   0.569  0.00  0.00    +0.254 C 
ATOM     17  O   UNL     1       7.225   5.988   0.281  0.00  0.00    -0.269 OA
ATOM     18  N   UNL     1       5.832   7.570   0.984  0.00  0.00    -0.297 N 
ATOM     19  C   UNL     1       4.483   7.953   1.423  0.00  0.00    +0.108 C 
ATOM     20  C   UNL     1       4.040   9.188   0.633  0.00  0.00    +0.019 C 
ATOM     21  C   UNL     1       5.088  10.292   0.789  0.00  0.00    +0.006 C 
ATOM     22  C   UNL     1       6.426   9.811   0.223  0.00  0.00    +0.003 C 
ATOM     23  C   UNL     1       6.898   8.581   1.013  0.00  0.00    +0.111 C 
ATOM     24  C   UNL     1       7.465  10.927   0.349  0.00  0.00    +0.009 C 
ENDBRANCH  15  16
TORSDOF 1
