REMARK  Name = ZINC38959167
REMARK  10 active torsions:
REMARK  status: ('A' for Active; 'I' for Inactive)
REMARK    1  A    between atoms: C_1  and  C_2
REMARK    2  A    between atoms: C_5  and  N_9
REMARK    3  A    between atoms: C_7  and  C_8
REMARK    4  A    between atoms: N_9  and  C_10
REMARK    5  A    between atoms: C_10  and  C_11
REMARK    6  A    between atoms: C_16  and  O_23
REMARK    7  A    between atoms: O_23  and  C_24
REMARK    8  A    between atoms: C_25  and  C_27
REMARK    9  A    between atoms: C_27  and  O_28
REMARK   10  A    between atoms: O_28  and  C_29
REMARK                            x       y       z     vdW  Elec       q    Type
REMARK                         _______ _______ _______ _____ _____    ______ ____
ROOT
ATOM      1  C   UNL     1      -0.212  -4.941  -1.266  0.00  0.00    +0.130 C 
ENDROOT
BRANCH   1   2
ATOM      2  C   UNL     1       1.161  -4.924  -1.942  0.00  0.00    +0.116 C 
ATOM      3  C   UNL     1       1.000  -5.499  -3.336  0.00  0.00    -0.003 C 
ATOM      4  C   UNL     1       1.753  -6.591  -3.652  0.00  0.00    -0.004 A 
ATOM      5  C   UNL     1       1.659  -7.209  -4.975  0.00  0.00    +0.055 A 
ATOM      6  C   UNL     1       2.429  -8.299  -5.247  0.00  0.00    +0.121 A 
ATOM      7  C   UNL     1       3.300  -8.830  -4.288  0.00  0.00    +0.047 A 
ATOM      8  C   UNL     1       3.430  -8.301  -3.045  0.00  0.00    +0.027 A 
ATOM      9  C   UNL     1       2.678  -7.173  -2.664  0.00  0.00    +0.041 A 
ATOM     10  N   UNL     1       2.816  -6.664  -1.440  0.00  0.00    -0.284 N 
ATOM     11  C   UNL     1       2.141  -5.609  -1.017  0.00  0.00    +0.226 C 
ATOM     12  O   UNL     1       2.310  -5.190   0.113  0.00  0.00    -0.275 OA
ATOM     13  H   UNL     1       3.441  -7.088  -0.831  0.00  0.00    +0.155 HD
BRANCH   6  14
ATOM     14  O   UNL     1       2.350  -8.881  -6.472  0.00  0.00    -0.495 OA
ATOM     15  C   UNL     1       3.180 -10.022  -6.702  0.00  0.00    +0.277 C 
ENDBRANCH   6  14
ENDBRANCH   1   2
BRANCH   1  16
ATOM     16  N   UNL     1      -0.143  -4.204  -0.002  0.00  0.00    -0.268 N 
ATOM     17  C   UNL     1       0.175  -4.848   1.138  0.00  0.00    +0.246 C 
ATOM     18  O   UNL     1       0.464  -6.026   1.108  0.00  0.00    -0.273 OA
BRANCH  16  23
ATOM     19  C   UNL     1      -1.216   1.366   0.097  0.00  0.00    +0.044 C 
ATOM     20  C   UNL     1      -0.931  -0.113   0.071  0.00  0.00    -0.047 A 
ATOM     21  C   UNL     1      -1.972  -1.018   0.168  0.00  0.00    +0.005 A 
ATOM     22  C   UNL     1      -1.714  -2.375   0.144  0.00  0.00    +0.024 A 
ATOM     23  C   UNL     1      -0.408  -2.830   0.022  0.00  0.00    +0.037 A 
ATOM     24  C   UNL     1       0.635  -1.919  -0.076  0.00  0.00    +0.027 A 
ATOM     25  C   UNL     1       0.370  -0.563  -0.056  0.00  0.00    -0.046 A 
ATOM     26  C   UNL     1       1.501   0.427  -0.168  0.00  0.00    +0.044 C 
ENDBRANCH  16  23
BRANCH  17  27
ATOM     27  C   UNL     1       0.173  -4.106   2.449  0.00  0.00    +0.255 C 
BRANCH  27  28
ATOM     28  O   UNL     1       0.424  -5.024   3.516  0.00  0.00    -0.374 OA
ATOM     29  C   UNL     1       0.443  -4.419   4.810  0.00  0.00    +0.194 C 
ENDBRANCH  27  28
ENDBRANCH  17  27
ENDBRANCH   1  16
TORSDOF 6
