REMARK  Name = ZINC09909234
REMARK  8 active torsions:
REMARK  status: ('A' for Active; 'I' for Inactive)
REMARK    1  A    between atoms: C_1  and  C_2
REMARK    2  A    between atoms: C_5  and  C_8
REMARK    3  A    between atoms: C_11  and  C_14
REMARK    4  A    between atoms: C_19  and  C_21
REMARK    5  A    between atoms: C_21  and  N_56
REMARK    6  A    between atoms: C_22  and  N_56
REMARK    7  A    between atoms: C_23  and  C_24
REMARK    8  A    between atoms: C_23  and  N_56
REMARK                            x       y       z     vdW  Elec       q    Type
REMARK                         _______ _______ _______ _____ _____    ______ ____
ROOT
ATOM      1  C   UNL     1      -0.922   3.404   0.028  0.00  0.00    +0.069 C 
ATOM      2  N   UNL     1      -1.161   2.139   0.018  0.00  0.00    -0.181 NA
ATOM      3  N   UNL     1      -0.016   1.344   0.009  0.00  0.00    -0.184 N 
ATOM      4  C   UNL     1       1.169   2.216   0.003  0.00  0.00    +0.172 C 
ATOM      5  C   UNL     1       0.572   3.637   0.015  0.00  0.00    +0.090 C 
ATOM      6  C   UNL     1       0.002  -0.004   0.002  0.00  0.00    +0.219 C 
ATOM      7  O   UNL     1       1.061  -0.596  -0.011  0.00  0.00    -0.276 OA
ENDROOT
BRANCH   1  12
ATOM      8  C   UNL     1      -4.923   7.535   0.085  0.00  0.00    +0.044 C 
ATOM      9  C   UNL     1      -3.875   6.453   0.070  0.00  0.00    -0.050 A 
ATOM     10  C   UNL     1      -4.258   5.123   0.067  0.00  0.00    +0.004 A 
ATOM     11  C   UNL     1      -3.304   4.127   0.053  0.00  0.00    +0.010 A 
ATOM     12  C   UNL     1      -1.948   4.463   0.042  0.00  0.00    -0.002 A 
ATOM     13  C   UNL     1      -1.569   5.808   0.051  0.00  0.00    +0.010 A 
ATOM     14  C   UNL     1      -2.534   6.793   0.059  0.00  0.00    +0.004 A 
ENDBRANCH   1  12
BRANCH   4  15
ATOM     15  C   UNL     1       1.984   1.994  -1.245  0.00  0.00    +0.128 A 
ATOM     16  C   UNL     1       3.327   1.983  -1.316  0.00  0.00    +0.046 A 
ATOM     17  C   UNL     1       3.664   1.742  -2.668  0.00  0.00    +0.041 A 
ATOM     18  C   UNL     1       2.507   1.620  -3.342  0.00  0.00    +0.195 A 
ATOM     19  O   UNL     1       1.492   1.768  -2.474  0.00  0.00    -0.466 OA
ENDBRANCH   4  15
BRANCH   6  20
ATOM     20  C   UNL     1      -1.293  -0.775   0.010  0.00  0.00    +0.021 C 
BRANCH  20  22
ATOM     21  C   UNL     1      -0.367  -2.616  -1.262  0.00  0.00    -0.095 C 
ATOM     22  N   UNL     1      -0.986  -2.221   0.021  0.00  0.00    +0.388 N 
ATOM     23  H   UNL     1      -0.327  -2.417   0.783  0.00  0.00    -0.081 HD
BRANCH  22  24
ATOM     24  C   UNL     1      -2.224  -2.998   0.245  0.00  0.00    -0.015 C 
BRANCH  24  25
ATOM     25  C   UNL     1      -1.857  -4.442   0.471  0.00  0.00    +0.063 A 
ATOM     26  N   UNL     1      -1.573  -5.038   1.595  0.00  0.00    -0.246 NA
ATOM     27  C   UNL     1      -1.257  -6.348   1.662  0.00  0.00    +0.078 A 
ATOM     28  C   UNL     1      -0.929  -7.129   2.792  0.00  0.00    +0.029 A 
ATOM     29  C   UNL     1      -0.637  -8.451   2.662  0.00  0.00    +0.002 A 
ATOM     30  C   UNL     1      -0.648  -9.081   1.426  0.00  0.00    +0.001 A 
ATOM     31  C   UNL     1      -0.964  -8.351   0.295  0.00  0.00    +0.017 A 
ATOM     32  C   UNL     1      -1.261  -7.016   0.416  0.00  0.00    +0.039 A 
ATOM     33  S   UNL     1      -1.718  -5.715  -0.702  0.00  0.00    -0.074 S 
ENDBRANCH  24  25
ENDBRANCH  22  24
ENDBRANCH  20  22
ENDBRANCH   6  20
TORSDOF 6
