REMARK  Name = ZINC58236270
REMARK  11 active torsions:
REMARK  status: ('A' for Active; 'I' for Inactive)
REMARK    1  A    between atoms: C_1  and  C_2
REMARK    2  A    between atoms: C_3  and  C_28
REMARK    3  A    between atoms: C_4  and  C_26
REMARK    4  A    between atoms: C_5  and  S_9
REMARK    5  A    between atoms: C_7  and  C_8
REMARK    6  A    between atoms: S_9  and  C_10
REMARK    7  A    between atoms: C_10  and  C_11
REMARK    8  A    between atoms: N_13  and  C_14
REMARK    9  A    between atoms: C_14  and  C_15
REMARK   10  A    between atoms: C_14  and  C_16
REMARK   11  A    between atoms: C_19  and  N_22
REMARK                            x       y       z     vdW  Elec       q    Type
REMARK                         _______ _______ _______ _____ _____    ______ ____
ROOT
ATOM      1  C   UNL     1       0.323  -6.417   2.053  0.00  0.00    +0.224 C 
ATOM      2  O   UNL     1       0.200  -7.209   1.143  0.00  0.00    -0.275 OA
ATOM      3  N   UNL     1       0.309  -6.849   3.329  0.00  0.00    -0.308 N 
ATOM      4  H   UNL     1       0.408  -6.215   4.057  0.00  0.00    +0.149 HD
ENDROOT
BRANCH   3   5
ATOM      5  C   UNL     1       0.145  -8.276   3.618  0.00  0.00    +0.100 C 
ATOM      6  C   UNL     1      -1.345  -8.624   3.638  0.00  0.00    +0.033 C 
BRANCH   5   7
ATOM      7  C   UNL     1       0.752  -8.590   4.961  0.00  0.00    -0.027 A 
ATOM      8  C   UNL     1       0.590  -7.709   6.014  0.00  0.00    +0.007 A 
ATOM      9  C   UNL     1       1.145  -7.994   7.246  0.00  0.00    +0.023 A 
ATOM     10  C   UNL     1       1.867  -9.166   7.426  0.00  0.00    +0.035 A 
ATOM     11  C   UNL     1       2.029 -10.049   6.366  0.00  0.00    +0.023 A 
ATOM     12  C   UNL     1       1.466  -9.761   5.138  0.00  0.00    +0.007 A 
BRANCH  10  13
ATOM     13  N   UNL     1       2.432  -9.458   8.673  0.00  0.00    -0.270 N 
ATOM     14  C   UNL     1       1.808  -9.068   9.803  0.00  0.00    +0.301 C 
ATOM     15  O   UNL     1       0.711  -8.549   9.743  0.00  0.00    -0.253 OA
ATOM     16  N   UNL     1       2.402  -9.253  10.998  0.00  0.00    -0.313 N 
ATOM     17  H   UNL     1       3.272  -9.941   8.725  0.00  0.00    +0.156 HD
ATOM     18  H   UNL     1       3.278  -9.667  11.046  0.00  0.00    +0.146 HD
ATOM     19  H   UNL     1       1.954  -8.972  11.812  0.00  0.00    +0.146 HD
ENDBRANCH  10  13
ENDBRANCH   5   7
ENDBRANCH   3   5
BRANCH   1  20
ATOM     20  C   UNL     1       0.493  -4.949   1.756  0.00  0.00    +0.171 C 
BRANCH  20  21
ATOM     21  S   UNL     1       0.470  -4.689  -0.040  0.00  0.00    -0.095 S 
BRANCH  21  26
ATOM     22  C   UNL     1       1.175   1.250  -0.543  0.00  0.00    +0.046 C 
ATOM     23  C   UNL     1       0.997  -0.244  -0.466  0.00  0.00    -0.025 A 
ATOM     24  C   UNL     1       0.871  -0.993  -1.623  0.00  0.00    -0.026 A 
ATOM     25  C   UNL     1       0.707  -2.377  -1.506  0.00  0.00    +0.087 A 
ATOM     26  C   UNL     1       0.676  -2.948  -0.220  0.00  0.00    +0.115 A 
ATOM     27  N   UNL     1       0.800  -2.184   0.854  0.00  0.00    -0.244 NA
ATOM     28  C   UNL     1       0.962  -0.879   0.763  0.00  0.00    +0.043 A 
ATOM     29  C   UNL     1       1.105  -0.062   2.021  0.00  0.00    +0.066 C 
ATOM     30  C   UNL     1       0.910  -0.332  -2.977  0.00  0.00    +0.045 C 
BRANCH  25  31
ATOM     31  C   UNL     1       0.572  -3.197  -2.671  0.00  0.00    +0.102 C 
ATOM     32  N   UNL     1       0.465  -3.848  -3.596  0.00  0.00    -0.191 NA
ENDBRANCH  25  31
ENDBRANCH  21  26
ENDBRANCH  20  21
ENDBRANCH   1  20
TORSDOF 7
