REMARK  Name = ZINC64818466
REMARK  7 active torsions:
REMARK  status: ('A' for Active; 'I' for Inactive)
REMARK    1  A    between atoms: C_1  and  C_2
REMARK    2  A    between atoms: C_5  and  N_9
REMARK    3  A    between atoms: C_6  and  C_8
REMARK    4  A    between atoms: C_10  and  C_12
REMARK    5  A    between atoms: N_20  and  C_21
REMARK    6  A    between atoms: C_21  and  C_22
REMARK    7  A    between atoms: C_21  and  C_23
REMARK                            x       y       z     vdW  Elec       q    Type
REMARK                         _______ _______ _______ _____ _____    ______ ____
ROOT
ATOM      1  N   UNL     1       0.057  -4.169  -0.021  0.00  0.00    -0.281 N 
ATOM      2  C   UNL     1      -0.042  -4.838  -1.187  0.00  0.00    +0.248 C 
ATOM      3  O   UNL     1      -0.055  -4.228  -2.238  0.00  0.00    -0.270 OA
ATOM      4  H   UNL     1       0.134  -4.658   0.814  0.00  0.00    +0.155 HD
ENDROOT
BRANCH   2   5
ATOM      5  C   UNL     1      -0.134  -6.312  -1.187  0.00  0.00    +0.039 A 
ATOM      6  C   UNL     1      -0.124  -7.013   0.028  0.00  0.00    +0.015 A 
ATOM      7  C   UNL     1      -0.209  -8.372   0.042  0.00  0.00    +0.030 A 
ATOM      8  C   UNL     1      -0.305  -9.080  -1.155  0.00  0.00    +0.089 A 
ATOM      9  C   UNL     1      -0.317  -8.394  -2.383  0.00  0.00    +0.113 A 
ATOM     10  C   UNL     1      -0.236  -6.998  -2.390  0.00  0.00    +0.044 A 
ATOM     11  N   UNL     1      -0.417  -9.319  -3.367  0.00  0.00    -0.129 NA
ATOM     12  N   UNL     1      -0.468 -10.500  -2.861  0.00  0.00    -0.064 NA
ATOM     13  N   UNL     1      -0.402 -10.414  -1.463  0.00  0.00    -0.241 N 
BRANCH  13  14
ATOM     14  C   UNL     1      -0.429 -11.531  -0.515  0.00  0.00    +0.103 C 
ATOM     15  C   UNL     1      -1.737 -12.307  -0.679  0.00  0.00    +0.032 C 
ATOM     16  C   UNL     1       0.755 -12.461  -0.789  0.00  0.00    +0.032 C 
ENDBRANCH  13  14
ENDBRANCH   2   5
BRANCH   1  21
ATOM     17  C   UNL     1       0.024   1.503   0.005  0.00  0.00    +0.044 C 
ATOM     18  C   UNL     1       0.033  -0.004  -0.001  0.00  0.00    -0.050 A 
ATOM     19  C   UNL     1       0.631  -0.685  -1.046  0.00  0.00    +0.005 A 
ATOM     20  C   UNL     1       0.640  -2.066  -1.055  0.00  0.00    +0.024 A 
ATOM     21  C   UNL     1       0.049  -2.771  -0.014  0.00  0.00    +0.037 A 
ATOM     22  C   UNL     1      -0.550  -2.083   1.033  0.00  0.00    -0.029 A 
ATOM     23  C   UNL     1      -0.551  -0.702   1.039  0.00  0.00    +0.008 A 
ATOM     24  C   UNL     1      -1.192  -2.843   2.165  0.00  0.00    +0.045 C 
ENDBRANCH   1  21
TORSDOF 3
