REMARK  Name = ZINC20255191
REMARK  9 active torsions:
REMARK  status: ('A' for Active; 'I' for Inactive)
REMARK    1  A    between atoms: C_1  and  C_2
REMARK    2  A    between atoms: C_3  and  C_17
REMARK    3  A    between atoms: C_5  and  C_7
REMARK    4  A    between atoms: C_10  and  O_15
REMARK    5  A    between atoms: C_11  and  O_13
REMARK    6  A    between atoms: O_13  and  C_14
REMARK    7  A    between atoms: O_15  and  C_16
REMARK    8  A    between atoms: C_17  and  N_18
REMARK    9  A    between atoms: N_21  and  C_24
REMARK                            x       y       z     vdW  Elec       q    Type
REMARK                         _______ _______ _______ _____ _____    ______ ____
ROOT
ATOM      1  C   UNL     1       1.350   1.697   2.816  0.00  0.00    +0.143 C 
ENDROOT
BRANCH   1   2
ATOM      2  N   UNL     1       2.035   2.964   2.529  0.00  0.00    -0.300 NA
ATOM      3  C   UNL     1       1.974   3.283   1.096  0.00  0.00    +0.066 C 
ATOM      4  C   UNL     1       2.628   4.645   0.851  0.00  0.00    -0.063 C 
ATOM      5  N   UNL     1       4.020   4.609   1.321  0.00  0.00    +0.384 N 
ATOM      6  C   UNL     1       4.081   4.290   2.754  0.00  0.00    -0.063 C 
ATOM      7  C   UNL     1       3.427   2.928   2.999  0.00  0.00    +0.066 C 
ATOM      8  H   UNL     1       4.543   3.812   0.773  0.00  0.00    -0.081 HD
BRANCH   5   9
ATOM      9  C   UNL     1       4.705   5.877   1.034  0.00  0.00    -0.062 C 
ATOM     10  C   UNL     1       4.574   6.202  -0.456  0.00  0.00    -0.024 C 
ATOM     11  C   UNL     1       5.287   7.521  -0.754  0.00  0.00    +0.005 C 
ATOM     12  C   UNL     1       6.768   7.395  -0.389  0.00  0.00    -0.010 C 
ATOM     13  C   UNL     1       7.403   6.274  -1.214  0.00  0.00    +0.007 C 
ATOM     14  C   UNL     1       6.689   4.954  -0.915  0.00  0.00    -0.010 C 
ATOM     15  C   UNL     1       5.209   5.080  -1.280  0.00  0.00    +0.005 C 
ATOM     16  C   UNL     1       6.821   4.629   0.575  0.00  0.00    +0.005 C 
ATOM     17  C   UNL     1       6.186   5.750   1.399  0.00  0.00    -0.024 C 
ATOM     18  C   UNL     1       6.899   7.070   1.100  0.00  0.00    +0.005 C 
ENDBRANCH   5   9
ENDBRANCH   1   2
BRANCH   1  21
ATOM     19  C   UNL     1      -0.099   1.154   0.100  0.00  0.00    +0.088 C 
ATOM     20  C   UNL     1      -0.747   1.617   1.380  0.00  0.00    +0.127 A 
ATOM     21  C   UNL     1      -0.125   1.852   2.549  0.00  0.00    +0.097 A 
ATOM     22  N   UNL     1      -1.052   2.248   3.435  0.00  0.00    -0.212 NA
ATOM     23  C   UNL     1      -2.222   2.262   2.841  0.00  0.00    +0.228 A 
ATOM     24  O   UNL     1      -2.057   1.880   1.563  0.00  0.00    -0.440 OA
BRANCH  23  25
ATOM     25  C   UNL     1      -3.504   2.641   3.470  0.00  0.00    +0.041 A 
ATOM     26  C   UNL     1      -3.540   3.021   4.813  0.00  0.00    +0.017 A 
ATOM     27  C   UNL     1      -4.737   3.380   5.396  0.00  0.00    +0.050 A 
ATOM     28  C   UNL     1      -5.909   3.353   4.655  0.00  0.00    +0.162 A 
ATOM     29  C   UNL     1      -5.881   2.969   3.316  0.00  0.00    +0.162 A 
ATOM     30  C   UNL     1      -4.684   2.613   2.724  0.00  0.00    +0.062 A 
BRANCH  29  31
ATOM     31  O   UNL     1      -7.032   2.943   2.592  0.00  0.00    -0.491 OA
ATOM     32  C   UNL     1      -6.930   2.540   1.226  0.00  0.00    +0.277 C 
ENDBRANCH  29  31
BRANCH  28  33
ATOM     33  O   UNL     1      -7.087   3.702   5.237  0.00  0.00    -0.491 OA
ATOM     34  C   UNL     1      -7.043   4.086   6.612  0.00  0.00    +0.277 C 
ENDBRANCH  28  33
ENDBRANCH  23  25
ENDBRANCH   1  21
TORSDOF 6
