REMARK  Name = ZINC40732002
REMARK  3 active torsions:
REMARK  status: ('A' for Active; 'I' for Inactive)
REMARK    1  A    between atoms: C_1  and  C_2
REMARK    2  A    between atoms: C_10  and  N_25
REMARK    3  A    between atoms: C_11  and  N_15
REMARK                            x       y       z     vdW  Elec       q    Type
REMARK                         _______ _______ _______ _____ _____    ______ ____
ROOT
ATOM      1  C   UNL     1      -1.367  -0.614   2.597  0.00  0.00    +0.028 C 
ATOM      2  C   UNL     1      -0.632  -1.184   1.382  0.00  0.00    +0.072 C 
ATOM      3  C   UNL     1      -1.519  -1.057   0.139  0.00  0.00    +0.022 C 
ATOM      4  C   UNL     1      -0.729  -1.499  -1.094  0.00  0.00    +0.003 C 
ATOM      5  C   UNL     1       0.489  -0.590  -1.275  0.00  0.00    +0.019 C 
ATOM      6  C   UNL     1       1.399  -0.712  -0.048  0.00  0.00    +0.107 C 
ATOM      7  N   UNL     1       0.609  -0.431   1.159  0.00  0.00    -0.311 N 
ATOM      8  C   UNL     1       1.027   0.531   2.071  0.00  0.00    +0.147 A 
ATOM      9  C   UNL     1       1.873   0.187   3.127  0.00  0.00    +0.106 A 
ATOM     10  C   UNL     1       2.262   1.192   4.014  0.00  0.00    +0.148 A 
ATOM     11  N   UNL     1       1.817   2.431   3.821  0.00  0.00    -0.219 NA
ATOM     12  C   UNL     1       1.020   2.714   2.810  0.00  0.00    +0.225 A 
ATOM     13  N   UNL     1       0.632   1.796   1.948  0.00  0.00    -0.219 NA
ENDROOT
BRANCH  10  14
ATOM     14  N   UNL     1       3.102   0.903   5.083  0.00  0.00    -0.309 N 
ATOM     15  C   UNL     1       4.567   0.919   4.932  0.00  0.00    +0.111 C 
ATOM     16  C   UNL     1       5.117   2.034   5.821  0.00  0.00    +0.054 C 
ATOM     17  C   UNL     1       4.516   1.967   7.200  0.00  0.00    -0.041 A 
ATOM     18  C   UNL     1       5.195   2.606   8.230  0.00  0.00    +0.004 A 
ATOM     19  C   UNL     1       4.695   2.591   9.515  0.00  0.00    +0.000 A 
ATOM     20  C   UNL     1       3.507   1.937   9.783  0.00  0.00    +0.000 A 
ATOM     21  C   UNL     1       2.832   1.299   8.763  0.00  0.00    +0.005 A 
ATOM     22  C   UNL     1       3.338   1.308   7.470  0.00  0.00    -0.027 A 
ATOM     23  C   UNL     1       2.565   0.575   6.408  0.00  0.00    +0.142 C 
ENDBRANCH  10  14
BRANCH   9  24
ATOM     24  N   UNL     1       2.318  -1.135   3.294  0.00  0.00    -0.353 N 
ATOM     25  H   UNL     1       2.105  -1.806   2.627  0.00  0.00    +0.143 HD
ATOM     26  H   UNL     1       2.839  -1.377   4.076  0.00  0.00    +0.143 HD
ENDBRANCH   9  24
TORSDOF 2
