REMARK  Name = ZINC39892326
REMARK  11 active torsions:
REMARK  status: ('A' for Active; 'I' for Inactive)
REMARK    1  A    between atoms: C_1  and  C_2
REMARK    2  A    between atoms: C_2  and  C_3
REMARK    3  A    between atoms: C_3  and  C_4
REMARK    4  A    between atoms: C_4  and  O_5
REMARK    5  A    between atoms: O_5  and  C_6
REMARK    6  A    between atoms: C_9  and  C_14
REMARK    7  A    between atoms: C_11  and  O_12
REMARK    8  A    between atoms: O_12  and  C_13
REMARK    9  A    between atoms: N_18  and  C_22
REMARK   10  A    between atoms: C_22  and  C_23
REMARK   11  A    between atoms: C_26  and  C_29
REMARK                            x       y       z     vdW  Elec       q    Type
REMARK                         _______ _______ _______ _____ _____    ______ ____
ROOT
ATOM      1  C   UNL     1       1.843  -8.034  -3.106  0.00  0.00    +0.028 C 
ATOM      2  C   UNL     1       1.411  -8.868  -2.126  0.00  0.00    +0.080 C 
ATOM      3  C   UNL     1       1.516 -10.338  -2.028  0.00  0.00    +0.261 C 
ATOM      4  O   UNL     1       2.050 -11.000  -2.898  0.00  0.00    -0.269 OA
ATOM      5  N   UNL     1       1.001 -10.898  -0.947  0.00  0.00    -0.224 N 
ATOM      6  C   UNL     1       0.410 -10.160   0.016  0.00  0.00    +0.286 C 
ATOM      7  O   UNL     1      -0.100 -10.540   1.052  0.00  0.00    -0.262 OA
ATOM      8  S   UNL     1       0.565  -8.490  -0.598  0.00  0.00    -0.026 S 
ENDROOT
BRANCH   1  12
ATOM      9  C   UNL     1       1.677  -3.832  -2.531  0.00  0.00    +0.162 A 
ATOM     10  C   UNL     1       1.403  -4.688  -1.473  0.00  0.00    +0.050 A 
ATOM     11  C   UNL     1       1.456  -6.053  -1.654  0.00  0.00    +0.012 A 
ATOM     12  C   UNL     1       1.786  -6.579  -2.909  0.00  0.00    -0.020 A 
ATOM     13  C   UNL     1       2.061  -5.715  -3.976  0.00  0.00    +0.057 A 
ATOM     14  C   UNL     1       2.001  -4.349  -3.785  0.00  0.00    +0.162 A 
BRANCH  14  15
ATOM     15  O   UNL     1       2.262  -3.506  -4.820  0.00  0.00    -0.491 OA
ATOM     16  C   UNL     1       2.587  -4.104  -6.077  0.00  0.00    +0.277 C 
ENDBRANCH  14  15
BRANCH   9  17
ATOM     17  O   UNL     1       1.624  -2.488  -2.346  0.00  0.00    -0.488 OA
BRANCH  17  18
ATOM     18  C   UNL     1       1.286  -2.026  -1.036  0.00  0.00    +0.229 C 
BRANCH  18  19
ATOM     19  C   UNL     1       1.276  -0.496  -1.021  0.00  0.00    +0.041 C 
BRANCH  19  21
ATOM     20  C   UNL     1       0.905   1.528   0.396  0.00  0.00    +0.004 C 
ATOM     21  C   UNL     1       0.915  -0.002   0.381  0.00  0.00    -0.000 C 
ENDBRANCH  19  21
ENDBRANCH  18  19
ENDBRANCH  17  18
ENDBRANCH   9  17
ENDBRANCH   1  12
BRANCH   5  22
ATOM     22  C   UNL     1       1.073 -12.352  -0.790  0.00  0.00    +0.152 C 
BRANCH  22  23
ATOM     23  C   UNL     1       2.346 -12.718  -0.073  0.00  0.00    -0.030 A 
ATOM     24  C   UNL     1       3.499 -12.965  -0.798  0.00  0.00    +0.006 A 
ATOM     25  C   UNL     1       4.668 -13.299  -0.147  0.00  0.00    +0.013 A 
ATOM     26  C   UNL     1       4.687 -13.389   1.246  0.00  0.00    +0.037 A 
ATOM     27  C   UNL     1       3.521 -13.139   1.971  0.00  0.00    +0.013 A 
ATOM     28  C   UNL     1       2.360 -12.800   1.308  0.00  0.00    +0.006 A 
BRANCH  26  29
ATOM     29  C   UNL     1       5.937 -13.748   1.949  0.00  0.00    +0.250 C 
ATOM     30  O   UNL     1       6.951 -13.965   1.315  0.00  0.00    -0.270 OA
ATOM     31  N   UNL     1       5.952 -13.834   3.294  0.00  0.00    -0.261 N 
ATOM     32  C   UNL     1       7.126 -14.171   3.956  0.00  0.00    +0.165 A 
ATOM     33  N   UNL     1       8.308 -14.432   3.441  0.00  0.00    -0.233 NA
ATOM     34  C   UNL     1       9.335 -14.740   4.211  0.00  0.00    +0.120 A 
ATOM     35  C   UNL     1       9.114 -14.773   5.548  0.00  0.00    +0.068 A 
ATOM     36  S   UNL     1       7.383 -14.337   5.611  0.00  0.00    -0.061 S 
ATOM     37  H   UNL     1       5.143 -13.660   3.800  0.00  0.00    +0.157 HD
ENDBRANCH  26  29
ENDBRANCH  22  23
ENDBRANCH   5  22
TORSDOF 9
