REMARK  Name = ZINC32932623
REMARK  6 active torsions:
REMARK  status: ('A' for Active; 'I' for Inactive)
REMARK    1  A    between atoms: C_1  and  C_2
REMARK    2  A    between atoms: C_2  and  C_4
REMARK    3  A    between atoms: C_7  and  N_10
REMARK    4  A    between atoms: N_13  and  C_16
REMARK    5  A    between atoms: C_16  and  C_17
REMARK    6  A    between atoms: C_18  and  O_30
REMARK                            x       y       z     vdW  Elec       q    Type
REMARK                         _______ _______ _______ _____ _____    ______ ____
ROOT
ATOM      1  N   UNL     1       4.308   2.730   3.597  0.00  0.00    -0.333 N 
ATOM      2  C   UNL     1       5.007   3.951   3.174  0.00  0.00    +0.086 C 
ATOM      3  C   UNL     1       4.417   4.440   1.849  0.00  0.00    -0.059 C 
ATOM      4  N   UNL     1       4.550   3.383   0.837  0.00  0.00    +0.384 N 
ATOM      5  C   UNL     1       3.851   2.161   1.260  0.00  0.00    -0.059 C 
ATOM      6  C   UNL     1       4.441   1.673   2.585  0.00  0.00    +0.086 C 
ATOM      7  H   UNL     1       5.619   3.144   0.733  0.00  0.00    -0.081 HD
ENDROOT
BRANCH   1  11
ATOM      8  C   UNL     1       5.687   1.433   7.292  0.00  0.00    +0.017 A 
ATOM      9  C   UNL     1       4.681   0.719   6.627  0.00  0.00    +0.013 A 
ATOM     10  C   UNL     1       4.231   1.149   5.412  0.00  0.00    +0.024 A 
ATOM     11  C   UNL     1       4.769   2.296   4.834  0.00  0.00    +0.030 A 
ATOM     12  C   UNL     1       5.772   3.006   5.489  0.00  0.00    +0.024 A 
ATOM     13  C   UNL     1       6.225   2.587   6.707  0.00  0.00    +0.013 A 
BRANCH   8  15
ATOM     14  C   UNL     1       7.255   1.745   9.312  0.00  0.00    +0.091 C 
ATOM     15  C   UNL     1       6.174   0.975   8.598  0.00  0.00    +0.160 C 
ATOM     16  O   UNL     1       5.706  -0.024   9.104  0.00  0.00    -0.292 OA
ENDBRANCH   8  15
ENDBRANCH   1  11
BRANCH   4  17
ATOM     17  C   UNL     1       4.062   3.841  -0.471  0.00  0.00    -0.038 C 
BRANCH  17  18
ATOM     18  C   UNL     1       4.558   2.910  -1.547  0.00  0.00    -0.011 A 
ATOM     19  C   UNL     1       3.774   1.868  -2.026  0.00  0.00    +0.119 A 
ATOM     20  C   UNL     1       4.230   1.010  -3.017  0.00  0.00    +0.049 A 
ATOM     21  C   UNL     1       5.486   1.138  -3.585  0.00  0.00    +0.050 A 
ATOM     22  C   UNL     1       6.291   2.174  -3.122  0.00  0.00    +0.136 A 
ATOM     23  C   UNL     1       5.827   3.051  -2.110  0.00  0.00    +0.028 A 
ATOM     24  C   UNL     1       6.912   3.986  -1.883  0.00  0.00    +0.002 A 
ATOM     25  C   UNL     1       7.902   3.633  -2.725  0.00  0.00    +0.109 A 
ATOM     26  O   UNL     1       7.527   2.563  -3.453  0.00  0.00    -0.459 OA
ATOM     27  C   UNL     1       9.226   4.358  -2.810  0.00  0.00    +0.075 C 
ATOM     28  C   UNL     1       9.076   5.729  -2.141  0.00  0.00    +0.008 C 
ATOM     29  C   UNL     1       8.446   5.556  -0.756  0.00  0.00    +0.005 C 
ATOM     30  C   UNL     1       6.979   5.139  -0.917  0.00  0.00    +0.039 C 
BRANCH  19  31
ATOM     31  O   UNL     1       2.528   1.685  -1.512  0.00  0.00    -0.507 OA
ATOM     32  H   UNL     1       1.896   0.865  -1.882  0.00  0.00    +0.292 HD
ENDBRANCH  19  31
ENDBRANCH  17  18
ENDBRANCH   4  17
TORSDOF 5
