REMARK  Name = ZINC10377466
REMARK  5 active torsions:
REMARK  status: ('A' for Active; 'I' for Inactive)
REMARK    1  A    between atoms: C_2  and  C_3
REMARK    2  A    between atoms: C_3  and  N_4
REMARK    3  A    between atoms: C_10  and  C_17
REMARK    4  A    between atoms: C_22  and  C_25
REMARK    5  A    between atoms: C_25  and  C_26
REMARK                            x       y       z     vdW  Elec       q    Type
REMARK                         _______ _______ _______ _____ _____    ______ ____
ROOT
ATOM      1  N   UNL     1      10.974   2.205  -0.089  0.00  0.00    -0.284 N 
ATOM      2  C   UNL     1       9.964   3.101  -0.075  0.00  0.00    +0.263 A 
ATOM      3  O   UNL     1      10.191   4.296  -0.071  0.00  0.00    -0.267 OA
ATOM      4  C   UNL     1       8.578   2.594  -0.065  0.00  0.00    +0.063 A 
ATOM      5  C   UNL     1       7.485   3.457  -0.050  0.00  0.00    +0.016 A 
ATOM      6  C   UNL     1       6.208   2.942  -0.040  0.00  0.00    +0.014 A 
ATOM      7  C   UNL     1       6.005   1.559  -0.046  0.00  0.00    +0.039 A 
ATOM      8  C   UNL     1       7.093   0.689  -0.056  0.00  0.00    +0.039 A 
ATOM      9  C   UNL     1       8.381   1.202  -0.070  0.00  0.00    +0.054 A 
ATOM     10  N   UNL     1       9.492   0.370  -0.085  0.00  0.00    -0.335 N 
ATOM     11  H   UNL     1       9.371  -0.592  -0.089  0.00  0.00    +0.168 HD
ATOM     12  C   UNL     1      10.733   0.884  -0.094  0.00  0.00    +0.161 A 
ATOM     13  S   UNL     1      12.065  -0.191  -0.112  0.00  0.00    -0.013 S 
ENDROOT
BRANCH   7  14
ATOM     14  C   UNL     1       4.628   1.016  -0.036  0.00  0.00    +0.250 C 
ATOM     15  O   UNL     1       4.449  -0.186  -0.042  0.00  0.00    -0.270 OA
ATOM     16  N   UNL     1       3.573   1.855  -0.022  0.00  0.00    -0.261 N 
ATOM     17  C   UNL     1       2.281   1.345  -0.013  0.00  0.00    +0.165 A 
ATOM     18  N   UNL     1       1.134   1.996   0.002  0.00  0.00    -0.229 NA
ATOM     19  C   UNL     1      -0.016   1.351   0.009  0.00  0.00    +0.059 A 
ATOM     20  C   UNL     1       0.002  -0.004   0.002  0.00  0.00    +0.072 A 
ATOM     21  S   UNL     1       1.762  -0.312  -0.016  0.00  0.00    -0.060 S 
ATOM     22  H   UNL     1       3.716   2.814  -0.018  0.00  0.00    +0.157 HD
BRANCH  19  23
ATOM     23  C   UNL     1      -1.321   2.105   0.020  0.00  0.00    +0.151 C 
BRANCH  23  24
ATOM     24  C   UNL     1      -1.344   3.055   1.189  0.00  0.00    +0.216 C 
ATOM     25  O   UNL     1      -0.393   3.115   1.940  0.00  0.00    -0.276 OA
ATOM     26  N   UNL     1      -2.420   3.839   1.400  0.00  0.00    -0.329 N 
ATOM     27  H   UNL     1      -3.180   3.791   0.799  0.00  0.00    +0.145 HD
ATOM     28  H   UNL     1      -2.434   4.451   2.153  0.00  0.00    +0.145 HD
ENDBRANCH  23  24
ENDBRANCH  19  23
ENDBRANCH   7  14
BRANCH   1  29
ATOM     29  C   UNL     1      12.359   2.682  -0.101  0.00  0.00    +0.154 C 
BRANCH  29  31
ATOM     30  C   UNL     1      13.299   4.005  -1.925  0.00  0.00    +0.005 C 
ATOM     31  C   UNL     1      12.820   2.853  -1.525  0.00  0.00    -0.013 C 
ENDBRANCH  29  31
ENDBRANCH   1  29
TORSDOF 5
