REMARK  Name = ZINC51653969
REMARK  7 active torsions:
REMARK  status: ('A' for Active; 'I' for Inactive)
REMARK    1  A    between atoms: C_1  and  O_2
REMARK    2  A    between atoms: O_2  and  C_3
REMARK    3  A    between atoms: C_8  and  C_9
REMARK    4  A    between atoms: N_14  and  C_15
REMARK    5  A    between atoms: C_15  and  C_17
REMARK    6  A    between atoms: C_17  and  N_18
REMARK    7  A    between atoms: C_22  and  C_24
REMARK                            x       y       z     vdW  Elec       q    Type
REMARK                         _______ _______ _______ _____ _____    ______ ____
ROOT
ATOM      1  C   UNL     1       0.066  -2.830   0.030  0.00  0.00    +0.058 A 
ATOM      2  C   UNL     1      -0.644  -2.263  -0.971  0.00  0.00    +0.074 A 
ATOM      3  S   UNL     1      -1.130  -3.686  -1.931  0.00  0.00    -0.060 S 
ATOM      4  C   UNL     1      -0.404  -4.884  -1.003  0.00  0.00    +0.163 A 
ATOM      5  N   UNL     1       0.191  -4.190   0.004  0.00  0.00    -0.335 N 
ATOM      6  N   UNL     1      -0.407  -6.203  -1.208  0.00  0.00    -0.158 NA
ATOM      7  H   UNL     1       0.693  -4.653   0.693  0.00  0.00    +0.168 HD
ENDROOT
BRANCH   1  13
ATOM      8  C   UNL     1       0.651  -0.618   1.027  0.00  0.00    +0.129 A 
ATOM      9  C   UNL     1       1.226   0.136   2.036  0.00  0.00    +0.046 A 
ATOM     10  C   UNL     1       1.836  -0.490   3.107  0.00  0.00    +0.004 A 
ATOM     11  C   UNL     1       1.875  -1.871   3.180  0.00  0.00    +0.001 A 
ATOM     12  C   UNL     1       1.306  -2.636   2.182  0.00  0.00    +0.013 A 
ATOM     13  C   UNL     1       0.683  -2.015   1.099  0.00  0.00    +0.040 A 
BRANCH   8  15
ATOM     14  C   UNL     1       0.057   1.425  -0.033  0.00  0.00    +0.277 C 
ATOM     15  O   UNL     1       0.052  -0.004  -0.027  0.00  0.00    -0.494 OA
ENDBRANCH   8  15
ENDBRANCH   1  13
BRANCH   6  16
ATOM     16  C   UNL     1      -1.041  -6.710  -2.257  0.00  0.00    +0.222 C 
ATOM     17  O   UNL     1      -1.620  -5.972  -3.033  0.00  0.00    -0.276 OA
BRANCH  16  18
ATOM     18  C   UNL     1      -1.044  -8.199  -2.489  0.00  0.00    +0.022 C 
BRANCH  18  19
ATOM     19  N   UNL     1      -1.808  -8.504  -3.706  0.00  0.00    +0.390 N 
ATOM     20  C   UNL     1      -1.110  -7.946  -4.884  0.00  0.00    -0.077 C 
ATOM     21  C   UNL     1      -0.275  -9.125  -5.443  0.00  0.00    -0.020 C 
ATOM     22  C   UNL     1      -1.229 -10.325  -5.206  0.00  0.00    -0.012 C 
ATOM     23  C   UNL     1      -1.916  -9.965  -3.872  0.00  0.00    -0.030 C 
ATOM     24  H   UNL     1      -2.731  -8.101  -3.639  0.00  0.00    -0.080 HD
BRANCH  23  25
ATOM     25  C   UNL     1      -3.367 -10.370  -3.916  0.00  0.00    -0.024 A 
ATOM     26  C   UNL     1      -3.970 -11.444  -3.352  0.00  0.00    +0.009 A 
ATOM     27  C   UNL     1      -5.331 -11.617  -3.526  0.00  0.00    +0.008 A 
ATOM     28  C   UNL     1      -6.021 -10.707  -4.256  0.00  0.00    +0.045 A 
ATOM     29  S   UNL     1      -4.737  -9.556  -4.719  0.00  0.00    -0.103 S 
ENDBRANCH  23  25
ENDBRANCH  18  19
ENDBRANCH  16  18
ENDBRANCH   6  16
TORSDOF 6
