REMARK  Name = ZINC39856172
REMARK  7 active torsions:
REMARK  status: ('A' for Active; 'I' for Inactive)
REMARK    1  A    between atoms: C_1  and  C_2
REMARK    2  A    between atoms: C_6  and  C_7
REMARK    3  A    between atoms: C_20  and  C_28
REMARK    4  A    between atoms: C_20  and  C_29
REMARK    5  A    between atoms: N_23  and  N_24
REMARK    6  A    between atoms: N_24  and  C_25
REMARK    7  A    between atoms: C_25  and  N_27
REMARK                            x       y       z     vdW  Elec       q    Type
REMARK                         _______ _______ _______ _____ _____    ______ ____
ROOT
ATOM      1  C   UNL     1      -0.111   1.491   0.005  0.00  0.00    +0.048 C 
ATOM      2  C   UNL     1       0.005  -0.012   0.001  0.00  0.00    +0.009 A 
ATOM      3  C   UNL     1       0.077  -0.846  -1.121  0.00  0.00    +0.042 A 
ATOM      4  C   UNL     1       0.173  -2.140  -0.668  0.00  0.00    +0.116 A 
ATOM      5  O   UNL     1       0.165  -2.112   0.663  0.00  0.00    -0.454 OA
ATOM      6  C   UNL     1       0.067  -0.833   1.092  0.00  0.00    +0.193 A 
ATOM      7  C   UNL     1       0.266  -3.329  -1.591  0.00  0.00    +0.081 C 
ATOM      8  C   UNL     1      -0.270  -2.942  -2.973  0.00  0.00    -0.023 C 
ATOM      9  C   UNL     1       0.428  -1.679  -3.488  0.00  0.00    +0.064 C 
ATOM     10  C   UNL     1       0.065  -0.524  -2.566  0.00  0.00    +0.070 C 
ATOM     11  N   UNL     1      -0.234   0.656  -3.013  0.00  0.00    -0.185 NA
ATOM     12  C   UNL     1      -0.018  -4.091  -3.951  0.00  0.00    +0.011 C 
ATOM     13  C   UNL     1      -1.774  -2.683  -2.876  0.00  0.00    +0.011 C 
ENDROOT
BRANCH   6  14
ATOM     14  C   UNL     1       0.031  -0.400   2.494  0.00  0.00    +0.282 C 
ATOM     15  O   UNL     1       0.072   0.786   2.765  0.00  0.00    -0.267 OA
ATOM     16  N   UNL     1      -0.049  -1.315   3.480  0.00  0.00    -0.290 N 
ATOM     17  C   UNL     1      -0.160  -0.911   4.891  0.00  0.00    +0.113 C 
ATOM     18  C   UNL     1      -1.515  -1.389   5.411  0.00  0.00    +0.054 C 
ATOM     19  C   UNL     1      -1.759  -2.825   5.031  0.00  0.00    -0.041 A 
ATOM     20  C   UNL     1      -2.707  -3.533   5.760  0.00  0.00    +0.004 A 
ATOM     21  C   UNL     1      -2.986  -4.849   5.458  0.00  0.00    +0.000 A 
ATOM     22  C   UNL     1      -2.318  -5.472   4.420  0.00  0.00    +0.000 A 
ATOM     23  C   UNL     1      -1.375  -4.773   3.696  0.00  0.00    +0.005 A 
ATOM     24  C   UNL     1      -1.089  -3.450   4.003  0.00  0.00    -0.027 A 
ATOM     25  C   UNL     1      -0.034  -2.752   3.190  0.00  0.00    +0.143 C 
ENDBRANCH   6  14
BRANCH  11  26
ATOM     26  N   UNL     1      -0.230   0.905  -4.392  0.00  0.00    -0.218 N 
ATOM     27  H   UNL     1      -0.004   0.194  -5.012  0.00  0.00    +0.176 HD
BRANCH  26  28
ATOM     28  C   UNL     1      -0.541   2.131  -4.857  0.00  0.00    +0.147 C 
ATOM     29  S   UNL     1      -0.536   2.435  -6.541  0.00  0.00    -0.017 S 
BRANCH  28  30
ATOM     30  N   UNL     1      -0.856   3.119  -3.995  0.00  0.00    -0.339 N 
ATOM     31  H   UNL     1      -0.859   2.946  -3.040  0.00  0.00    +0.144 HD
ATOM     32  H   UNL     1      -1.080   4.001  -4.329  0.00  0.00    +0.144 HD
ENDBRANCH  28  30
ENDBRANCH  26  28
ENDBRANCH  11  26
TORSDOF 4
