REMARK  Name = ZINC41390118
REMARK  5 active torsions:
REMARK  status: ('A' for Active; 'I' for Inactive)
REMARK    1  A    between atoms: C_1  and  C_2
REMARK    2  A    between atoms: C_2  and  C_3
REMARK    3  A    between atoms: C_2  and  O_4
REMARK    4  A    between atoms: O_4  and  C_5
REMARK    5  A    between atoms: C_10  and  N_11
REMARK                            x       y       z     vdW  Elec       q    Type
REMARK                         _______ _______ _______ _____ _____    ______ ____
ROOT
ATOM      1  C   UNL     1      -1.580  -1.640  -0.687  0.00  0.00    +0.143 A 
ATOM      2  C   UNL     1      -0.533  -2.329  -1.276  0.00  0.00    +0.047 A 
ATOM      3  C   UNL     1      -0.780  -3.489  -1.987  0.00  0.00    +0.004 A 
ATOM      4  C   UNL     1      -2.072  -3.965  -2.112  0.00  0.00    +0.002 A 
ATOM      5  C   UNL     1      -3.123  -3.284  -1.527  0.00  0.00    +0.028 A 
ATOM      6  C   UNL     1      -2.882  -2.122  -0.808  0.00  0.00    +0.092 A 
ENDROOT
BRANCH   6   7
ATOM      7  N   UNL     1      -3.944  -1.434  -0.209  0.00  0.00    -0.204 N 
ATOM      8  C   UNL     1      -4.432  -1.807   1.127  0.00  0.00    +0.131 C 
ATOM      9  C   UNL     1      -5.920  -2.143   1.049  0.00  0.00    +0.022 C 
ATOM     10  C   UNL     1      -6.732  -0.910   0.658  0.00  0.00    +0.026 C 
ATOM     11  C   UNL     1      -6.462  -0.555  -0.809  0.00  0.00    +0.189 C 
ATOM     12  S   UNL     1      -4.688  -0.164  -0.985  0.00  0.00    +0.046 S 
ATOM     13  O   UNL     1      -4.354   0.985  -0.217  0.00  0.00    -0.155 OA
ATOM     14  O   UNL     1      -4.288  -0.275  -2.344  0.00  0.00    -0.155 OA
ENDBRANCH   6   7
BRANCH   1  15
ATOM     15  O   UNL     1      -1.339  -0.499   0.012  0.00  0.00    -0.487 OA
BRANCH  15  17
ATOM     16  C   UNL     1      -0.011   1.505   0.263  0.00  0.00    +0.051 C 
ATOM     17  C   UNL     1       0.001  -0.002  -0.000  0.00  0.00    +0.167 C 
ATOM     18  C   UNL     1       0.815  -0.703   1.089  0.00  0.00    +0.051 C 
ENDBRANCH  15  17
ENDBRANCH   1  15
TORSDOF 3
