REMARK  Name = ZINC41710108
REMARK  4 active torsions:
REMARK  status: ('A' for Active; 'I' for Inactive)
REMARK    1  A    between atoms: C_1  and  C_2
REMARK    2  A    between atoms: N_6  and  C_7
REMARK    3  A    between atoms: C_9  and  N_14
REMARK    4  A    between atoms: C_20  and  O_22
REMARK                            x       y       z     vdW  Elec       q    Type
REMARK                         _______ _______ _______ _____ _____    ______ ____
ROOT
ATOM      1  C   UNL     1      -0.018   1.503   0.010  0.00  0.00    +0.064 C 
ATOM      2  C   UNL     1       0.002  -0.004   0.002  0.00  0.00    +0.021 A 
ATOM      3  C   UNL     1       0.008  -0.789  -1.097  0.00  0.00    +0.029 A 
ATOM      4  C   UNL     1       0.028  -2.122  -0.658  0.00  0.00    +0.002 A 
ATOM      5  C   UNL     1       0.033  -2.108   0.695  0.00  0.00    +0.030 A 
ATOM      6  N   UNL     1       0.024  -0.811   1.106  0.00  0.00    -0.316 N 
ATOM      7  C   UNL     1       0.049  -3.350   1.552  0.00  0.00    +0.054 C 
ATOM      8  C   UNL     1      -0.355  -4.545   0.680  0.00  0.00    +0.009 C 
ATOM      9  C   UNL     1       0.478  -4.546  -0.605  0.00  0.00    +0.036 C 
ATOM     10  C   UNL     1       0.045  -3.375  -1.496  0.00  0.00    +0.146 C 
ENDROOT
BRANCH   6  11
ATOM     11  C   UNL     1       0.032  -0.375   2.439  0.00  0.00    +0.067 A 
ATOM     12  C   UNL     1      -1.165  -0.180   3.114  0.00  0.00    +0.060 A 
ATOM     13  C   UNL     1      -1.154   0.249   4.427  0.00  0.00    +0.128 A 
ATOM     14  C   UNL     1       0.048   0.484   5.069  0.00  0.00    +0.034 A 
ATOM     15  C   UNL     1       1.242   0.292   4.400  0.00  0.00    +0.024 A 
ATOM     16  C   UNL     1       1.238  -0.143   3.088  0.00  0.00    +0.065 A 
ATOM     17 CL   UNL     1       2.738  -0.392   2.250  0.00  0.00    -0.081 Cl
BRANCH  13  18
ATOM     18  N   UNL     1      -2.430   0.458   5.147  0.00  0.00    +0.056 N 
ATOM     19  O   UNL     1      -3.481   0.253   4.586  0.00  0.00    -0.126 OA
ATOM     20  O   UNL     1      -2.421   0.834   6.296  0.00  0.00    -0.126 OA
ENDBRANCH  13  18
ENDBRANCH   6  11
BRANCH  10  21
ATOM     21  O   UNL     1       0.972  -3.222  -2.573  0.00  0.00    -0.387 OA
ATOM     22  H   UNL     1       1.032  -3.994  -3.152  0.00  0.00    +0.210 HD
ENDBRANCH  10  21
TORSDOF 3
