REMARK  Name = ZINC54947150
REMARK  10 active torsions:
REMARK  status: ('A' for Active; 'I' for Inactive)
REMARK    1  A    between atoms: C_1  and  C_2
REMARK    2  A    between atoms: C_5  and  C_29
REMARK    3  A    between atoms: N_8  and  C_10
REMARK    4  A    between atoms: C_10  and  C_11
REMARK    5  A    between atoms: C_10  and  C_12
REMARK    6  A    between atoms: C_10  and  C_13
REMARK    7  A    between atoms: C_13  and  N_14
REMARK    8  A    between atoms: C_15  and  C_17
REMARK    9  A    between atoms: N_19  and  C_20
REMARK   10  A    between atoms: C_24  and  C_26
REMARK                            x       y       z     vdW  Elec       q    Type
REMARK                         _______ _______ _______ _____ _____    ______ ____
ROOT
ATOM      1  N   UNL     1       2.034   1.663   3.453  0.00  0.00    -0.309 N 
ATOM      2  C   UNL     1       1.537   2.460   4.420  0.00  0.00    +0.299 C 
ATOM      3  O   UNL     1       1.191   1.984   5.481  0.00  0.00    -0.265 OA
ATOM      4  H   UNL     1       2.311   2.044   2.605  0.00  0.00    +0.149 HD
ENDROOT
BRANCH   2   5
ATOM      5  C   UNL     1       1.413   3.930   4.185  0.00  0.00    +0.303 C 
ATOM      6  O   UNL     1       1.759   4.406   3.124  0.00  0.00    -0.265 OA
ATOM      7  N   UNL     1       0.915   4.727   5.152  0.00  0.00    -0.278 N 
ATOM      8  H   UNL     1       0.579   4.339   5.975  0.00  0.00    +0.155 HD
BRANCH   7   9
ATOM      9  C   UNL     1       0.885   6.112   4.968  0.00  0.00    +0.035 A 
ATOM     10  C   UNL     1       0.617   6.641   3.710  0.00  0.00    +0.025 A 
ATOM     11  C   UNL     1       0.585   8.009   3.522  0.00  0.00    +0.023 A 
ATOM     12  C   UNL     1       0.819   8.862   4.583  0.00  0.00    +0.058 A 
ATOM     13  C   UNL     1       1.089   8.341   5.852  0.00  0.00    +0.072 A 
ATOM     14  C   UNL     1       1.115   6.958   6.041  0.00  0.00    +0.043 A 
ATOM     15 CL   UNL     1       0.779  10.581   4.341  0.00  0.00    -0.082 Cl
BRANCH  13  16
ATOM     16  C   UNL     1       1.331   9.222   6.954  0.00  0.00    +0.101 C 
ATOM     17  N   UNL     1       1.524   9.921   7.829  0.00  0.00    -0.191 NA
ENDBRANCH  13  16
ENDBRANCH   7   9
ENDBRANCH   2   5
BRANCH   1  18
ATOM     18  C   UNL     1       2.157   0.221   3.684  0.00  0.00    +0.092 C 
BRANCH  18  19
ATOM     19  C   UNL     1       2.842  -0.431   2.481  0.00  0.00    -0.055 C 
ATOM     20  C   UNL     1       2.898  -1.946   2.686  0.00  0.00    -0.008 C 
ATOM     21  C   UNL     1       4.264   0.118   2.345  0.00  0.00    -0.008 C 
BRANCH  19  27
ATOM     22  C   UNL     1      -0.140   1.272   0.029  0.00  0.00    +0.005 C 
ATOM     23  C   UNL     1      -0.109  -0.252   0.169  0.00  0.00    -0.031 C 
ATOM     24  C   UNL     1       0.537  -0.867  -1.076  0.00  0.00    +0.003 C 
ATOM     25  C   UNL     1       1.989  -0.392  -1.173  0.00  0.00    -0.031 C 
ATOM     26  C   UNL     1       2.731  -0.769   0.111  0.00  0.00    -0.075 C 
ATOM     27  N   UNL     1       2.082  -0.129   1.261  0.00  0.00    +0.384 N 
ATOM     28  C   UNL     1       0.710  -0.634   1.404  0.00  0.00    -0.075 C 
ATOM     29  C   UNL     1       2.667  -1.062  -2.371  0.00  0.00    +0.005 C 
ATOM     30  H   UNL     1       2.058   0.870   1.120  0.00  0.00    -0.081 HD
ENDBRANCH  19  27
ENDBRANCH  18  19
ENDBRANCH   1  18
TORSDOF 6
