REMARK  Name = ZINC45987291
REMARK  3 active torsions:
REMARK  status: ('A' for Active; 'I' for Inactive)
REMARK    1  A    between atoms: C_3  and  N_21
REMARK    2  A    between atoms: C_6  and  N_7
REMARK    3  A    between atoms: C_14  and  C_16
REMARK                            x       y       z     vdW  Elec       q    Type
REMARK                         _______ _______ _______ _____ _____    ______ ____
ROOT
ATOM      1  N   UNL     1      -1.202  -0.721   0.010  0.00  0.00    -0.269 N 
ATOM      2  C   UNL     1      -1.188  -2.065  -0.099  0.00  0.00    +0.307 C 
ATOM      3  O   UNL     1      -0.128  -2.662  -0.113  0.00  0.00    -0.252 OA
ATOM      4  N   UNL     1      -2.347  -2.746  -0.193  0.00  0.00    -0.278 N 
ATOM      5  C   UNL     1      -3.695  -2.151  -0.195  0.00  0.00    +0.110 C 
ATOM      6  C   UNL     1      -4.630  -3.284   0.298  0.00  0.00    +0.021 C 
ATOM      7  C   UNL     1      -3.983  -4.530  -0.362  0.00  0.00    +0.029 C 
ATOM      8  C   UNL     1      -2.475  -4.205  -0.316  0.00  0.00    +0.108 C 
ATOM      9  H   UNL     1      -2.046  -0.251   0.099  0.00  0.00    +0.156 HD
ENDROOT
BRANCH   1  15
ATOM     10  C   UNL     1       1.070  -0.455  -0.768  0.00  0.00    +0.025 A 
ATOM     11  C   UNL     1       2.256   0.252  -0.783  0.00  0.00    +0.026 A 
ATOM     12  C   UNL     1       2.380   1.415  -0.035  0.00  0.00    +0.051 A 
ATOM     13  C   UNL     1       1.311   1.867   0.729  0.00  0.00    +0.026 A 
ATOM     14  C   UNL     1       0.126   1.159   0.744  0.00  0.00    +0.025 A 
ATOM     15  C   UNL     1       0.002  -0.004  -0.005  0.00  0.00    +0.035 A 
BRANCH  12  16
ATOM     16  N   UNL     1       3.582   2.131  -0.049  0.00  0.00    -0.207 N 
ATOM     17  C   UNL     1       4.926   1.605  -0.348  0.00  0.00    +0.133 C 
ATOM     18  C   UNL     1       5.818   2.699  -0.964  0.00  0.00    +0.045 C 
ATOM     19  C   UNL     1       5.585   3.959  -0.076  0.00  0.00    +0.190 C 
ATOM     20  S   UNL     1       3.787   3.766   0.262  0.00  0.00    +0.046 S 
ATOM     21  O   UNL     1       3.013   4.440  -0.720  0.00  0.00    -0.155 OA
ATOM     22  O   UNL     1       3.518   3.925   1.649  0.00  0.00    -0.155 OA
ENDBRANCH  12  16
ENDBRANCH   1  15
BRANCH   8  23
ATOM     23  C   UNL     1      -1.808  -4.673  -1.584  0.00  0.00    -0.020 A 
ATOM     24  C   UNL     1      -1.099  -5.860  -1.607  0.00  0.00    +0.013 A 
ATOM     25  C   UNL     1      -0.511  -6.252  -2.763  0.00  0.00    +0.045 A 
ATOM     26  S   UNL     1      -0.955  -4.925  -3.872  0.00  0.00    -0.105 S 
ATOM     27  C   UNL     1      -1.899  -3.940  -2.720  0.00  0.00    +0.050 A 
ENDBRANCH   8  23
TORSDOF 3
