REMARK  Name = ZINC63434094
REMARK  7 active torsions:
REMARK  status: ('A' for Active; 'I' for Inactive)
REMARK    1  A    between atoms: C_1  and  O_2
REMARK    2  A    between atoms: O_2  and  C_3
REMARK    3  A    between atoms: C_8  and  N_9
REMARK    4  A    between atoms: C_10  and  C_12
REMARK    5  A    between atoms: N_14  and  C_15
REMARK    6  A    between atoms: N_18  and  C_21
REMARK    7  A    between atoms: C_21  and  C_22
REMARK                            x       y       z     vdW  Elec       q    Type
REMARK                         _______ _______ _______ _____ _____    ______ ____
ROOT
ATOM      1  C   UNL     1      -0.287  -4.927  -1.050  0.00  0.00    +0.300 C 
ATOM      2  O   UNL     1      -0.844  -4.378  -1.978  0.00  0.00    -0.265 OA
ATOM      3  N   UNL     1      -0.144  -6.268  -1.047  0.00  0.00    -0.305 N 
ATOM      4  H   UNL     1       0.301  -6.706  -0.305  0.00  0.00    +0.149 HD
ENDROOT
BRANCH   3   5
ATOM      5  C   UNL     1      -0.662  -7.061  -2.164  0.00  0.00    +0.070 C 
ATOM      6  C   UNL     1       0.381  -7.110  -3.284  0.00  0.00    +0.003 C 
ATOM      7  C   UNL     1      -0.133  -8.005  -4.414  0.00  0.00    -0.077 C 
ATOM      8  N   UNL     1      -0.366  -9.361  -3.901  0.00  0.00    +0.380 N 
ATOM      9  C   UNL     1      -1.416  -9.332  -2.876  0.00  0.00    -0.077 C 
ATOM     10  C   UNL     1      -0.952  -8.488  -1.688  0.00  0.00    +0.003 C 
ATOM     11  H   UNL     1       0.487  -9.717  -3.497  0.00  0.00    -0.082 HD
BRANCH   8  12
ATOM     12  C   UNL     1      -0.784 -10.235  -5.005  0.00  0.00    -0.075 C 
BRANCH  12  13
ATOM     13  C   UNL     1      -0.906 -11.674  -4.497  0.00  0.00    -0.028 C 
ATOM     14  C   UNL     1       0.488 -12.227  -4.136  0.00  0.00    +0.002 C 
ATOM     15  C   UNL     1       0.433 -13.711  -4.574  0.00  0.00    +0.000 C 
ATOM     16  C   UNL     1      -0.389 -13.651  -5.886  0.00  0.00    +0.000 C 
ATOM     17  C   UNL     1      -1.463 -12.579  -5.610  0.00  0.00    +0.002 C 
ENDBRANCH  12  13
ENDBRANCH   8  12
ENDBRANCH   3   5
BRANCH   1  19
ATOM     18  N   UNL     1       0.098  -2.778   0.086  0.00  0.00    -0.275 N 
ATOM     19  C   UNL     1       0.241  -4.118   0.089  0.00  0.00    +0.303 C 
ATOM     20  O   UNL     1       0.798  -4.667   1.017  0.00  0.00    -0.265 OA
ATOM     21  H   UNL     1      -0.416  -2.346  -0.614  0.00  0.00    +0.155 HD
BRANCH  18  27
ATOM     22  C   UNL     1       0.172  -0.757   1.415  0.00  0.00    +0.141 A 
ATOM     23  C   UNL     1       0.760  -0.003   2.417  0.00  0.00    +0.049 A 
ATOM     24  C   UNL     1       1.865  -0.489   3.090  0.00  0.00    +0.024 A 
ATOM     25  C   UNL     1       2.387  -1.729   2.767  0.00  0.00    +0.043 A 
ATOM     26  C   UNL     1       1.805  -2.489   1.769  0.00  0.00    +0.047 A 
ATOM     27  C   UNL     1       0.692  -2.009   1.093  0.00  0.00    +0.077 A 
ATOM     28 CL   UNL     1       3.776  -2.332   3.617  0.00  0.00    -0.083 Cl
BRANCH  22  30
ATOM     29  C   UNL     1      -1.395   1.010   1.135  0.00  0.00    +0.277 C 
ATOM     30  O   UNL     1      -0.915  -0.280   0.752  0.00  0.00    -0.493 OA
ENDBRANCH  22  30
ENDBRANCH  18  27
ENDBRANCH   1  19
TORSDOF 6
