REMARK  Name = ZINC04314899
REMARK  9 active torsions:
REMARK  status: ('A' for Active; 'I' for Inactive)
REMARK    1  A    between atoms: C_1  and  C_2
REMARK    2  A    between atoms: C_2  and  O_3
REMARK    3  A    between atoms: O_3  and  C_4
REMARK    4  A    between atoms: C_4  and  C_6
REMARK    5  A    between atoms: C_7  and  N_28
REMARK    6  A    between atoms: C_11  and  C_27
REMARK    7  A    between atoms: C_17  and  C_19
REMARK    8  A    between atoms: C_22  and  O_25
REMARK    9  A    between atoms: O_25  and  C_26
REMARK                            x       y       z     vdW  Elec       q    Type
REMARK                         _______ _______ _______ _____ _____    ______ ____
ROOT
ATOM      1  C   UNL     1       3.488   3.559  -0.387  0.00  0.00    +0.105 C 
ATOM      2  C   UNL     1       2.234   4.076  -0.432  0.00  0.00    +0.195 C 
ATOM      3  O   UNL     1       1.157   3.358  -0.076  0.00  0.00    -0.441 OA
ATOM      4  C   UNL     1       1.230   2.010  -0.029  0.00  0.00    +0.141 A 
ATOM      5  C   UNL     1       0.049   1.241  -0.052  0.00  0.00    +0.067 A 
ATOM      6  C   UNL     1       0.126  -0.107  -0.007  0.00  0.00    +0.019 A 
ATOM      7  N   UNL     1       1.328  -0.736   0.061  0.00  0.00    -0.326 N 
ATOM      8  H   UNL     1       1.360  -1.735   0.093  0.00  0.00    +0.169 HD
ATOM      9  C   UNL     1       2.477  -0.035   0.085  0.00  0.00    +0.257 A 
ATOM     10  O   UNL     1       3.547  -0.620   0.147  0.00  0.00    -0.267 OA
ATOM     11  C   UNL     1       2.447   1.365   0.040  0.00  0.00    +0.071 A 
ATOM     12  C   UNL     1       3.732   2.146   0.067  0.00  0.00    +0.100 C 
ATOM     13  C   UNL     1      -1.140  -0.924  -0.031  0.00  0.00    +0.063 C 
ENDROOT
BRANCH  12  14
ATOM     14  C   UNL     1       4.276   2.163   1.472  0.00  0.00    -0.035 A 
ATOM     15  C   UNL     1       3.529   2.717   2.495  0.00  0.00    +0.008 A 
ATOM     16  C   UNL     1       4.024   2.729   3.785  0.00  0.00    +0.046 A 
ATOM     17  C   UNL     1       5.276   2.194   4.051  0.00  0.00    +0.120 A 
ATOM     18  C   UNL     1       6.026   1.644   3.022  0.00  0.00    +0.046 A 
ATOM     19  C   UNL     1       5.525   1.630   1.735  0.00  0.00    +0.008 A 
BRANCH  17  20
ATOM     20  O   UNL     1       5.768   2.210   5.318  0.00  0.00    -0.495 OA
ATOM     21  C   UNL     1       4.941   2.793   6.328  0.00  0.00    +0.277 C 
ENDBRANCH  17  20
ENDBRANCH  12  14
BRANCH   2  22
ATOM     22  N   UNL     1       2.063   5.368  -0.853  0.00  0.00    -0.329 N 
ATOM     23  H   UNL     1       2.817   5.869  -1.200  0.00  0.00    +0.145 HD
ATOM     24  H   UNL     1       1.187   5.782  -0.804  0.00  0.00    +0.145 HD
ENDBRANCH   2  22
BRANCH   1  25
ATOM     25  C   UNL     1       4.577   4.356  -0.771  0.00  0.00    +0.341 C 
ATOM     26  O   UNL     1       5.082   4.209  -1.870  0.00  0.00    -0.245 OA
BRANCH  25  27
ATOM     27  O   UNL     1       5.064   5.287   0.077  0.00  0.00    -0.462 OA
BRANCH  27  29
ATOM     28  C   UNL     1       6.584   7.057   0.708  0.00  0.00    +0.048 C 
ATOM     29  C   UNL     1       6.174   6.063  -0.380  0.00  0.00    +0.229 C 
ENDBRANCH  27  29
ENDBRANCH  25  27
ENDBRANCH   1  25
TORSDOF 6
