REMARK  Name = ZINC28900343
REMARK  7 active torsions:
REMARK  status: ('A' for Active; 'I' for Inactive)
REMARK    1  A    between atoms: C_1  and  N_2
REMARK    2  A    between atoms: N_2  and  C_3
REMARK    3  A    between atoms: N_2  and  C_13
REMARK    4  A    between atoms: C_3  and  C_4
REMARK    5  A    between atoms: C_9  and  O_10
REMARK    6  A    between atoms: O_10  and  C_11
REMARK    7  A    between atoms: C_13  and  N_14
REMARK                            x       y       z     vdW  Elec       q    Type
REMARK                         _______ _______ _______ _____ _____    ______ ____
ROOT
ATOM      1  C   UNL     1      -3.428   6.426   2.304  0.00  0.00    -0.093 C 
ATOM      2  N   UNL     1      -2.462   7.062   1.399  0.00  0.00    +0.394 N 
ATOM      3  H   UNL     1      -1.454   6.885   1.803  0.00  0.00    -0.079 HD
ENDROOT
BRANCH   2   4
ATOM      4  C   UNL     1      -2.674   8.514   1.338  0.00  0.00    -0.037 C 
BRANCH   4   5
ATOM      5  C   UNL     1      -2.363   9.124   2.681  0.00  0.00    -0.021 A 
ATOM      6  C   UNL     1      -3.389   9.442   3.550  0.00  0.00    +0.020 A 
ATOM      7  C   UNL     1      -3.105  10.002   4.782  0.00  0.00    +0.018 A 
ATOM      8  C   UNL     1      -1.793  10.245   5.147  0.00  0.00    +0.019 A 
ATOM      9  C   UNL     1      -0.764   9.930   4.281  0.00  0.00    +0.047 A 
ATOM     10  C   UNL     1      -1.047   9.362   3.047  0.00  0.00    +0.122 A 
ATOM     11 BR   UNL     1      -4.511  10.435   5.970  0.00  0.00    -0.050 Br
BRANCH  10  12
ATOM     12  O   UNL     1      -0.036   9.045   2.196  0.00  0.00    -0.495 OA
ATOM     13  C   UNL     1       1.295   9.317   2.640  0.00  0.00    +0.277 C 
ENDBRANCH  10  12
ENDBRANCH   4   5
ENDBRANCH   2   4
BRANCH   2  14
ATOM     14  C   UNL     1      -2.523   6.464   0.059  0.00  0.00    +0.074 C 
BRANCH  14  15
ATOM     15  N   UNL     1      -1.755   5.216   0.045  0.00  0.00    -0.229 N 
ATOM     16  C   UNL     1      -2.264   3.967   0.044  0.00  0.00    +0.349 A 
ATOM     17  O   UNL     1      -3.447   3.675   0.053  0.00  0.00    -0.244 OA
ATOM     18  N   UNL     1      -1.232   3.100   0.030  0.00  0.00    -0.251 N 
ATOM     19  C   UNL     1      -1.189   1.726   0.017  0.00  0.00    +0.098 A 
ATOM     20  C   UNL     1      -0.013   1.076   0.008  0.00  0.00    +0.018 A 
ATOM     21  C   UNL     1       1.203   1.791   0.000  0.00  0.00    +0.005 A 
ATOM     22  C   UNL     1       1.188   3.146   0.007  0.00  0.00    +0.049 A 
ATOM     23  C   UNL     1      -0.056   3.827   0.022  0.00  0.00    +0.162 A 
ATOM     24  N   UNL     1      -0.358   5.105   0.032  0.00  0.00    -0.151 NA
ENDBRANCH  14  15
ENDBRANCH   2  14
TORSDOF 5
