REMARK  Name = ZINC21882639
REMARK  11 active torsions:
REMARK  status: ('A' for Active; 'I' for Inactive)
REMARK    1  A    between atoms: C_1  and  C_2
REMARK    2  A    between atoms: N_4  and  C_5
REMARK    3  A    between atoms: C_5  and  C_6
REMARK    4  A    between atoms: C_6  and  N_7
REMARK    5  A    between atoms: C_8  and  C_10
REMARK    6  A    between atoms: C_10  and  C_11
REMARK    7  A    between atoms: C_11  and  C_12
REMARK    8  A    between atoms: C_24  and  C_28
REMARK    9  A    between atoms: C_28  and  C_29
REMARK   10  A    between atoms: C_28  and  C_30
REMARK   11  A    between atoms: C_28  and  C_31
REMARK                            x       y       z     vdW  Elec       q    Type
REMARK                         _______ _______ _______ _____ _____    ______ ____
ROOT
ATOM      1  C   UNL     1       5.424  -3.043  -5.734  0.00  0.00    +0.111 A 
ATOM      2  N   UNL     1       4.322  -3.821  -5.613  0.00  0.00    -0.310 N 
ATOM      3  H   UNL     1       4.215  -4.724  -6.232  0.00  0.00    +0.170 HD
ATOM      4  C   UNL     1       3.315  -3.548  -4.749  0.00  0.00    +0.260 A 
ATOM      5  O   UNL     1       2.330  -4.260  -4.654  0.00  0.00    -0.267 OA
ATOM      6  C   UNL     1       3.482  -2.365  -3.954  0.00  0.00    +0.075 A 
ATOM      7  C   UNL     1       2.560  -1.848  -2.958  0.00  0.00    -0.023 A 
ATOM      8  C   UNL     1       2.925  -0.709  -2.325  0.00  0.00    -0.004 A 
ATOM      9  S   UNL     1       4.501  -0.277  -3.019  0.00  0.00    -0.073 S 
ATOM     10  C   UNL     1       4.665  -1.619  -4.153  0.00  0.00    +0.116 A 
ATOM     11  N   UNL     1       5.613  -1.953  -5.024  0.00  0.00    -0.227 NA
ATOM     12  C   UNL     1       2.162   0.025  -1.267  0.00  0.00    +0.046 C 
ATOM     13  C   UNL     1       0.718  -0.497  -1.257  0.00  0.00    -0.000 C 
ATOM     14  C   UNL     1       0.748  -2.029  -1.264  0.00  0.00    +0.009 C 
ATOM     15  C   UNL     1       1.237  -2.532  -2.621  0.00  0.00    +0.037 C 
ENDROOT
BRANCH  13  16
ATOM     16  C   UNL     1       0.002  -0.004   0.002  0.00  0.00    -0.035 C 
ATOM     17  C   UNL     1      -0.019   1.526   0.010  0.00  0.00    +0.011 C 
ATOM     18  C   UNL     1       0.742  -0.511   1.242  0.00  0.00    +0.011 C 
ATOM     19  C   UNL     1      -1.433  -0.534   0.013  0.00  0.00    +0.011 C 
ENDBRANCH  13  16
BRANCH   1  20
ATOM     20  C   UNL     1       6.481  -3.444  -6.730  0.00  0.00    +0.083 C 
BRANCH  20  21
ATOM     21  C   UNL     1       7.625  -2.428  -6.697  0.00  0.00    +0.103 C 
BRANCH  21  23
ATOM     22  N   UNL     1       9.791  -2.077  -7.839  0.00  0.00    -0.314 N 
ATOM     23  C   UNL     1       8.682  -2.830  -7.693  0.00  0.00    +0.213 C 
ATOM     24  O   UNL     1       8.536  -3.830  -8.363  0.00  0.00    -0.276 OA
ATOM     25  H   UNL     1       9.924  -1.170  -7.231  0.00  0.00    +0.149 HD
BRANCH  22  26
ATOM     26  C   UNL     1      10.819  -2.468  -8.807  0.00  0.00    +0.123 C 
BRANCH  26  27
ATOM     27  C   UNL     1      11.962  -1.452  -8.774  0.00  0.00    +0.123 C 
BRANCH  27  31
ATOM     28  C   UNL     1      15.157  -1.491 -10.883  0.00  0.00    +0.109 C 
ATOM     29  C   UNL     1      14.099  -1.090  -9.888  0.00  0.00    +0.210 C 
ATOM     30  O   UNL     1      14.245  -0.089  -9.218  0.00  0.00    -0.276 OA
ATOM     31  N   UNL     1      12.991  -1.842  -9.742  0.00  0.00    -0.314 N 
ATOM     32  H   UNL     1      12.858  -2.749 -10.349  0.00  0.00    +0.149 HD
ENDBRANCH  27  31
ENDBRANCH  26  27
ENDBRANCH  22  26
ENDBRANCH  21  23
ENDBRANCH  20  21
ENDBRANCH   1  20
TORSDOF 7
