REMARK  Name = ZINC35683504
REMARK  6 active torsions:
REMARK  status: ('A' for Active; 'I' for Inactive)
REMARK    1  A    between atoms: C_1  and  O_2
REMARK    2  A    between atoms: O_2  and  C_3
REMARK    3  A    between atoms: C_3  and  C_5
REMARK    4  A    between atoms: C_6  and  N_17
REMARK    5  A    between atoms: N_8  and  C_11
REMARK    6  A    between atoms: C_18  and  C_20
REMARK                            x       y       z     vdW  Elec       q    Type
REMARK                         _______ _______ _______ _____ _____    ______ ____
ROOT
ATOM      1  C   UNL     1       0.570  -1.849  -0.975  0.00  0.00    +0.120 A 
ATOM      2  C   UNL     1       1.085  -2.588  -2.048  0.00  0.00    +0.106 A 
ATOM      3  S   UNL     1       0.820  -4.179  -1.591  0.00  0.00    +0.011 S 
ATOM      4  N   UNL     1       0.087  -3.957  -0.105  0.00  0.00    -0.271 N 
ATOM      5  C   UNL     1       0.042  -2.622   0.062  0.00  0.00    +0.114 A 
ATOM      6  S   UNL     1      -0.631  -1.910   1.466  0.00  0.00    -0.031 S 
ENDROOT
BRANCH   4   7
ATOM      7  C   UNL     1      -0.373  -4.941   0.773  0.00  0.00    +0.054 A 
ATOM      8  C   UNL     1      -1.695  -4.929   1.200  0.00  0.00    +0.027 A 
ATOM      9  C   UNL     1      -2.147  -5.904   2.069  0.00  0.00    +0.002 A 
ATOM     10  C   UNL     1      -1.285  -6.890   2.513  0.00  0.00    +0.000 A 
ATOM     11  C   UNL     1       0.031  -6.904   2.090  0.00  0.00    +0.002 A 
ATOM     12  C   UNL     1       0.488  -5.937   1.217  0.00  0.00    +0.027 A 
ENDBRANCH   4   7
BRANCH   2  13
ATOM     13  N   UNL     1       1.671  -2.120  -3.203  0.00  0.00    -0.274 N 
ATOM     14  C   UNL     1       2.112  -2.988  -4.135  0.00  0.00    +0.249 C 
ATOM     15  O   UNL     1       1.915  -4.179  -3.997  0.00  0.00    -0.270 OA
ATOM     16  H   UNL     1       1.765  -1.165  -3.346  0.00  0.00    +0.156 HD
BRANCH  14  17
ATOM     17  C   UNL     1       2.839  -2.489  -5.327  0.00  0.00    +0.051 A 
ATOM     18  C   UNL     1       3.190  -1.174  -5.431  0.00  0.00    +0.083 A 
ATOM     19  C   UNL     1       3.905  -0.713  -6.618  0.00  0.00    +0.250 A 
ATOM     20  O   UNL     1       4.219   0.461  -6.712  0.00  0.00    -0.268 OA
ATOM     21  N   UNL     1       4.223  -1.564  -7.609  0.00  0.00    -0.322 N 
ATOM     22  H   UNL     1       4.699  -1.232  -8.386  0.00  0.00    +0.169 HD
ATOM     23  C   UNL     1       3.887  -2.899  -7.542  0.00  0.00    +0.050 A 
ATOM     24  C   UNL     1       3.203  -3.402  -6.421  0.00  0.00    +0.011 A 
ATOM     25  C   UNL     1       2.871  -4.758  -6.360  0.00  0.00    +0.011 A 
ATOM     26  C   UNL     1       3.218  -5.590  -7.386  0.00  0.00    +0.001 A 
ATOM     27  C   UNL     1       3.898  -5.100  -8.492  0.00  0.00    +0.002 A 
ATOM     28  C   UNL     1       4.226  -3.764  -8.579  0.00  0.00    +0.026 A 
ENDBRANCH  14  17
ENDBRANCH   2  13
BRANCH   1  29
ATOM     29  C   UNL     1       0.589  -0.386  -0.941  0.00  0.00    +0.344 C 
ATOM     30  O   UNL     1       1.062   0.238  -1.872  0.00  0.00    -0.245 OA
BRANCH  29  32
ATOM     31  C   UNL     1       0.134   1.698   0.089  0.00  0.00    +0.280 C 
ATOM     32  O   UNL     1       0.083   0.270   0.123  0.00  0.00    -0.464 OA
ENDBRANCH  29  32
ENDBRANCH   1  29
TORSDOF 5
