REMARK  Name = ZINC17449997
REMARK  8 active torsions:
REMARK  status: ('A' for Active; 'I' for Inactive)
REMARK    1  A    between atoms: C_1  and  C_2
REMARK    2  A    between atoms: C_10  and  C_11
REMARK    3  A    between atoms: N_13  and  N_14
REMARK    4  A    between atoms: C_15  and  C_17
REMARK    5  A    between atoms: C_17  and  C_18
REMARK    6  A    between atoms: C_18  and  N_19
REMARK    7  A    between atoms: N_19  and  S_20
REMARK    8  A    between atoms: S_20  and  C_23
REMARK                            x       y       z     vdW  Elec       q    Type
REMARK                         _______ _______ _______ _____ _____    ______ ____
ROOT
ATOM      1  N   UNL     1       4.781   0.364   0.400  0.00  0.00    -0.234 N 
ATOM      2  C   UNL     1       3.678   1.055   0.049  0.00  0.00    +0.230 C 
ATOM      3  O   UNL     1       3.783   2.167  -0.423  0.00  0.00    -0.274 OA
ATOM      4  H   UNL     1       4.696  -0.525   0.778  0.00  0.00    +0.173 HD
ENDROOT
BRANCH   1   7
ATOM      5  C   UNL     1       7.152   0.240   0.568  0.00  0.00    +0.296 C 
ATOM      6  O   UNL     1       7.046  -0.875   1.042  0.00  0.00    -0.265 OA
ATOM      7  N   UNL     1       6.049   0.931   0.218  0.00  0.00    -0.228 N 
ATOM      8  H   UNL     1       6.134   1.820  -0.160  0.00  0.00    +0.173 HD
BRANCH   5  18
ATOM      9  C   UNL     1       9.845  -1.132   1.302  0.00  0.00    +0.048 C 
ATOM     10  C   UNL     1       9.659   0.235   0.697  0.00  0.00    +0.008 A 
ATOM     11  C   UNL     1      10.709   1.186   0.333  0.00  0.00    +0.024 A 
ATOM     12  C   UNL     1      12.104   1.171   0.408  0.00  0.00    +0.012 A 
ATOM     13  C   UNL     1      12.817   2.254  -0.024  0.00  0.00    +0.001 A 
ATOM     14  C   UNL     1      12.164   3.368  -0.533  0.00  0.00    +0.004 A 
ATOM     15  C   UNL     1      10.789   3.403  -0.615  0.00  0.00    +0.047 A 
ATOM     16  C   UNL     1      10.042   2.312  -0.182  0.00  0.00    +0.136 A 
ATOM     17  O   UNL     1       8.720   2.059  -0.137  0.00  0.00    -0.450 OA
ATOM     18  C   UNL     1       8.483   0.834   0.377  0.00  0.00    +0.195 A 
ENDBRANCH   5  18
ENDBRANCH   1   7
BRANCH   2  19
ATOM     19  C   UNL     1       2.313   0.446   0.245  0.00  0.00    +0.114 C 
BRANCH  19  20
ATOM     20  C   UNL     1       1.242   1.430  -0.230  0.00  0.00    +0.115 C 
BRANCH  20  21
ATOM     21  N   UNL     1      -0.084   0.838  -0.040  0.00  0.00    -0.189 NA
ATOM     22  H   UNL     1      -0.171  -0.112   0.133  0.00  0.00    +0.148 HD
BRANCH  21  23
ATOM     23  S   UNL     1      -1.436   1.791  -0.126  0.00  0.00    +0.059 S 
ATOM     24  O   UNL     1      -2.552   0.929   0.056  0.00  0.00    -0.153 OA
ATOM     25  O   UNL     1      -1.196   2.913   0.712  0.00  0.00    -0.153 OA
BRANCH  23  26
ATOM     26  C   UNL     1      -1.537   2.405  -1.774  0.00  0.00    +0.119 A 
ATOM     27  C   UNL     1      -1.421   3.761  -2.015  0.00  0.00    +0.029 A 
ATOM     28  C   UNL     1      -1.496   4.242  -3.309  0.00  0.00    +0.002 A 
ATOM     29  C   UNL     1      -1.696   3.368  -4.361  0.00  0.00    +0.001 A 
ATOM     30  C   UNL     1      -1.816   2.013  -4.121  0.00  0.00    +0.017 A 
ATOM     31  C   UNL     1      -1.737   1.530  -2.827  0.00  0.00    +0.044 A 
ATOM     32 BR   UNL     1      -1.903  -0.325  -2.497  0.00  0.00    -0.048 Br
ENDBRANCH  23  26
ENDBRANCH  21  23
ENDBRANCH  20  21
ENDBRANCH  19  20
ENDBRANCH   2  19
TORSDOF 7
