REMARK  Name = ZINC46724572
REMARK  5 active torsions:
REMARK  status: ('A' for Active; 'I' for Inactive)
REMARK    1  A    between atoms: C_1  and  S_2
REMARK    2  A    between atoms: S_2  and  C_5
REMARK    3  A    between atoms: C_9  and  C_11
REMARK    4  A    between atoms: N_13  and  C_14
REMARK    5  A    between atoms: C_19  and  N_20
REMARK                            x       y       z     vdW  Elec       q    Type
REMARK                         _______ _______ _______ _____ _____    ______ ____
ROOT
ATOM      1  C   UNL     1       4.349  -1.123  -2.650  0.00  0.00    +0.248 C 
ATOM      2  O   UNL     1       4.976  -0.981  -1.618  0.00  0.00    -0.270 OA
ATOM      3  N   UNL     1       4.990  -1.452  -3.789  0.00  0.00    -0.280 N 
ATOM      4  H   UNL     1       4.482  -1.644  -4.593  0.00  0.00    +0.155 HD
ENDROOT
BRANCH   3   5
ATOM      5  C   UNL     1       6.387  -1.518  -3.811  0.00  0.00    +0.061 A 
ATOM      6  C   UNL     1       7.133  -0.781  -2.903  0.00  0.00    +0.045 A 
ATOM      7  C   UNL     1       8.514  -0.848  -2.927  0.00  0.00    +0.043 A 
ATOM      8  C   UNL     1       9.155  -1.649  -3.857  0.00  0.00    +0.022 A 
ATOM      9  C   UNL     1       8.419  -2.386  -4.764  0.00  0.00    +0.031 A 
ATOM     10  C   UNL     1       7.034  -2.329  -4.743  0.00  0.00    +0.087 A 
ATOM     11 CL   UNL     1       9.445   0.075  -1.790  0.00  0.00    -0.083 Cl
BRANCH  10  12
ATOM     12  N   UNL     1       6.285  -3.081  -5.660  0.00  0.00    -0.238 N 
ATOM     13  C   UNL     1       6.778  -3.978  -6.544  0.00  0.00    +0.114 A 
ATOM     14  C   UNL     1       5.735  -4.484  -7.243  0.00  0.00    +0.041 A 
ATOM     15  C   UNL     1       4.566  -3.877  -6.771  0.00  0.00    +0.135 A 
ATOM     16  N   UNL     1       4.894  -3.041  -5.819  0.00  0.00    -0.175 NA
ENDBRANCH  10  12
ENDBRANCH   3   5
BRANCH   1  21
ATOM     17  C   UNL     1       0.848  -0.419  -1.488  0.00  0.00    +0.089 A 
ATOM     18  C   UNL     1       0.136  -0.581  -2.664  0.00  0.00    +0.027 A 
ATOM     19  C   UNL     1       0.791  -0.918  -3.835  0.00  0.00    +0.003 A 
ATOM     20  C   UNL     1       2.159  -1.096  -3.837  0.00  0.00    +0.013 A 
ATOM     21  C   UNL     1       2.883  -0.934  -2.655  0.00  0.00    +0.039 A 
ATOM     22  C   UNL     1       2.216  -0.588  -1.478  0.00  0.00    +0.040 A 
BRANCH  17  24
ATOM     23  C   UNL     1      -0.006   1.825   0.020  0.00  0.00    +0.200 C 
ATOM     24  S   UNL     1       0.004   0.012  -0.002  0.00  0.00    -0.006 S 
ATOM     25  O   UNL     1       0.831  -0.486   1.041  0.00  0.00    -0.170 OA
ATOM     26  O   UNL     1      -1.316  -0.483  -0.178  0.00  0.00    -0.170 OA
ENDBRANCH  17  24
ENDBRANCH   1  21
TORSDOF 4
