REMARK  Name = ZINC66910160
REMARK  9 active torsions:
REMARK  status: ('A' for Active; 'I' for Inactive)
REMARK    1  A    between atoms: C_1  and  C_2
REMARK    2  A    between atoms: C_2  and  C_4
REMARK    3  A    between atoms: C_2  and  N_7
REMARK    4  A    between atoms: N_7  and  C_8
REMARK    5  A    between atoms: N_7  and  S_9
REMARK    6  A    between atoms: S_9  and  N_12
REMARK    7  A    between atoms: C_21  and  C_25
REMARK    8  A    between atoms: C_25  and  O_27
REMARK    9  A    between atoms: O_27  and  C_28
REMARK                            x       y       z     vdW  Elec       q    Type
REMARK                         _______ _______ _______ _____ _____    ______ ____
ROOT
ATOM      1  N   UNL     1      -2.815  -0.782   2.299  0.00  0.00    -0.162 NA
ATOM      2  C   UNL     1      -2.132  -0.358   3.530  0.00  0.00    +0.117 C 
ATOM      3  C   UNL     1      -2.041   1.172   3.551  0.00  0.00    +0.070 C 
ATOM      4  C   UNL     1      -3.380   1.750   3.163  0.00  0.00    +0.023 A 
ATOM      5  C   UNL     1      -4.347   1.059   2.522  0.00  0.00    -0.003 A 
ATOM      6  C   UNL     1      -5.462   1.961   2.330  0.00  0.00    +0.005 A 
ATOM      7  C   UNL     1      -6.717   1.806   1.734  0.00  0.00    +0.010 A 
ATOM      8  C   UNL     1      -7.555   2.909   1.728  0.00  0.00    +0.002 A 
ATOM      9  C   UNL     1      -7.183   4.118   2.282  0.00  0.00    +0.017 A 
ATOM     10  C   UNL     1      -5.934   4.305   2.885  0.00  0.00    +0.083 A 
ATOM     11  C   UNL     1      -5.066   3.196   2.903  0.00  0.00    +0.061 A 
ATOM     12  N   UNL     1      -3.810   3.033   3.395  0.00  0.00    -0.357 N 
ATOM     13  H   UNL     1      -3.293   3.720   3.844  0.00  0.00    +0.166 HD
ATOM     14  C   UNL     1      -4.222  -0.384   2.112  0.00  0.00    +0.148 C 
ENDROOT
BRANCH   1  15
ATOM     15  S   UNL     1      -2.024  -1.675   1.151  0.00  0.00    +0.100 S 
ATOM     16  O   UNL     1      -3.013  -2.447   0.484  0.00  0.00    -0.141 OA
ATOM     17  O   UNL     1      -0.904  -2.265   1.797  0.00  0.00    -0.141 OA
BRANCH  15  18
ATOM     18  N   UNL     1      -1.420  -0.613   0.034  0.00  0.00    -0.166 NA
ATOM     19  C   UNL     1      -0.044  -0.123   0.157  0.00  0.00    +0.133 C 
BRANCH  18  21
ATOM     20  C   UNL     1      -1.685  -0.681  -2.397  0.00  0.00    +0.026 C 
ATOM     21  C   UNL     1      -2.261  -0.162  -1.078  0.00  0.00    +0.081 C 
BRANCH  21  22
ATOM     22  C   UNL     1      -2.296   1.367  -1.103  0.00  0.00    +0.008 C 
ATOM     23  C   UNL     1      -3.619   2.050  -0.750  0.00  0.00    +0.005 C 
ATOM     24  C   UNL     1      -3.127   2.037  -2.199  0.00  0.00    +0.005 C 
ENDBRANCH  21  22
ENDBRANCH  18  21
ENDBRANCH  15  18
ENDBRANCH   1  15
BRANCH  10  25
ATOM     25  C   UNL     1      -5.546   5.599   3.474  0.00  0.00    +0.341 C 
ATOM     26  O   UNL     1      -4.454   5.729   3.990  0.00  0.00    -0.245 OA
BRANCH  25  27
ATOM     27  O   UNL     1      -6.402   6.639   3.439  0.00  0.00    -0.464 OA
ATOM     28  C   UNL     1      -5.960   7.863   4.028  0.00  0.00    +0.280 C 
ENDBRANCH  25  27
ENDBRANCH  10  25
TORSDOF 6
