REMARK  Name = ZINC05636530
REMARK  3 active torsions:
REMARK  status: ('A' for Active; 'I' for Inactive)
REMARK    1  A    between atoms: C_6  and  S_7
REMARK    2  A    between atoms: S_7  and  N_10
REMARK    3  A    between atoms: N_16  and  C_23
REMARK                            x       y       z     vdW  Elec       q    Type
REMARK                         _______ _______ _______ _____ _____    ______ ____
ROOT
ATOM      1  C   UNL     1      -2.515   1.261   2.924  0.00  0.00    +0.030 A 
ATOM      2  C   UNL     1      -2.931   1.672   4.176  0.00  0.00    +0.027 A 
ATOM      3  C   UNL     1      -2.554   2.916   4.662  0.00  0.00    +0.053 A 
ATOM      4  C   UNL     1      -1.749   3.747   3.882  0.00  0.00    +0.055 A 
ATOM      5  C   UNL     1      -1.332   3.324   2.629  0.00  0.00    +0.053 A 
ATOM      6  C   UNL     1      -1.713   2.083   2.154  0.00  0.00    +0.107 A 
ATOM      7  N   UNL     1      -1.504   4.942   4.581  0.00  0.00    -0.307 N 
ATOM      8  C   UNL     1      -1.842   4.651   5.992  0.00  0.00    +0.161 C 
ATOM      9  N   UNL     1      -2.844   3.557   5.878  0.00  0.00    -0.310 N 
ATOM     10  C   UNL     1      -4.165   4.227   5.796  0.00  0.00    +0.107 C 
ATOM     11  C   UNL     1      -4.033   5.404   6.794  0.00  0.00    +0.022 C 
ATOM     12  C   UNL     1      -2.572   5.865   6.594  0.00  0.00    +0.044 C 
ENDROOT
BRANCH   7  13
ATOM     13  C   UNL     1      -0.099   5.349   4.450  0.00  0.00    +0.075 C 
ATOM     14  C   UNL     1       0.806   4.249   5.007  0.00  0.00    +0.022 C 
ATOM     15  C   UNL     1       2.270   4.673   4.871  0.00  0.00    +0.002 C 
ATOM     16  C   UNL     1       2.500   5.968   5.653  0.00  0.00    +0.000 C 
ATOM     17  C   UNL     1       1.595   7.069   5.096  0.00  0.00    +0.002 C 
ATOM     18  C   UNL     1       0.132   6.644   5.232  0.00  0.00    +0.022 C 
ENDBRANCH   7  13
BRANCH   6  19
ATOM     19  S   UNL     1      -1.181   1.550   0.561  0.00  0.00    +0.061 S 
ATOM     20  O   UNL     1      -0.895   2.724  -0.186  0.00  0.00    -0.153 OA
ATOM     21  O   UNL     1      -2.121   0.578   0.123  0.00  0.00    -0.153 OA
BRANCH  19  22
ATOM     22  N   UNL     1       0.259   0.757   0.766  0.00  0.00    -0.172 NA
ATOM     23  C   UNL     1       1.538   1.481   0.697  0.00  0.00    +0.137 C 
ATOM     24  C   UNL     1       2.366   1.118   1.935  0.00  0.00    +0.177 C 
ATOM     25  O   UNL     1       2.447  -0.305   2.047  0.00  0.00    -0.377 OA
ATOM     26  C   UNL     1       1.185  -0.949   2.239  0.00  0.00    +0.177 C 
ATOM     27  C   UNL     1       0.296  -0.693   1.016  0.00  0.00    +0.137 C 
ENDBRANCH  19  22
ENDBRANCH   6  19
TORSDOF 3
