REMARK  Name = ZINC22464478
REMARK  8 active torsions:
REMARK  status: ('A' for Active; 'I' for Inactive)
REMARK    1  A    between atoms: C_1  and  C_2
REMARK    2  A    between atoms: C_2  and  C_27
REMARK    3  A    between atoms: N_5  and  C_9
REMARK    4  A    between atoms: C_9  and  C_10
REMARK    5  A    between atoms: N_12  and  C_13
REMARK    6  A    between atoms: C_13  and  C_14
REMARK    7  A    between atoms: C_14  and  C_16
REMARK    8  A    between atoms: C_14  and  N_22
REMARK                            x       y       z     vdW  Elec       q    Type
REMARK                         _______ _______ _______ _____ _____    ______ ____
ROOT
ATOM      1  C   UNL     1       1.883  -2.514  -0.998  0.00  0.00    +0.231 C 
ATOM      2  O   UNL     1       1.177  -1.868  -1.743  0.00  0.00    -0.274 OA
ATOM      3  N   UNL     1       2.552  -3.586  -1.466  0.00  0.00    -0.315 N 
ATOM      4  H   UNL     1       3.193  -4.172  -0.790  0.00  0.00    +0.149 HD
ENDROOT
BRANCH   1   5
ATOM      5  C   UNL     1       2.013  -2.118   0.450  0.00  0.00    +0.213 C 
BRANCH   5  10
ATOM      6  C   UNL     1      -1.666   0.798   0.270  0.00  0.00    +0.047 C 
ATOM      7  C   UNL     1      -0.525   0.478   1.237  0.00  0.00    +0.135 C 
ATOM      8  C   UNL     1      -0.096  -0.969   1.095  0.00  0.00    +0.251 C 
ATOM      9  O   UNL     1      -0.772  -1.956   1.291  0.00  0.00    -0.272 OA
ATOM     10  N   UNL     1       1.194  -0.930   0.707  0.00  0.00    -0.215 N 
ATOM     11  C   UNL     1       1.635   0.327   0.584  0.00  0.00    +0.310 C 
ATOM     12  O   UNL     1       2.766   0.617   0.246  0.00  0.00    -0.252 OA
ATOM     13  N   UNL     1       0.687   1.235   0.878  0.00  0.00    -0.281 N 
ATOM     14  H   UNL     1       0.672   2.335   0.892  0.00  0.00    +0.152 HD
BRANCH   7  15
ATOM     15  C   UNL     1      -0.933   0.773   2.657  0.00  0.00    -0.015 A 
ATOM     16  C   UNL     1      -1.481  -0.226   3.440  0.00  0.00    +0.009 A 
ATOM     17  C   UNL     1      -1.852   0.042   4.744  0.00  0.00    +0.039 A 
ATOM     18  C   UNL     1      -1.684   1.315   5.263  0.00  0.00    +0.123 A 
ATOM     19  C   UNL     1      -1.139   2.316   4.477  0.00  0.00    +0.039 A 
ATOM     20  C   UNL     1      -0.765   2.044   3.175  0.00  0.00    +0.009 A 
ATOM     21  F   UNL     1      -2.050   1.579   6.537  0.00  0.00    -0.205 F 
ENDBRANCH   7  15
ENDBRANCH   5  10
ENDBRANCH   1   5
BRANCH   3  22
ATOM     22  C   UNL     1       2.426  -3.971  -2.873  0.00  0.00    +0.093 C 
BRANCH  22  23
ATOM     23  C   UNL     1       3.144  -5.303  -3.104  0.00  0.00    -0.020 C 
BRANCH  23  24
ATOM     24  C   UNL     1       3.084  -5.659  -4.567  0.00  0.00    -0.059 A 
ATOM     25  C   UNL     1       1.901  -6.112  -5.120  0.00  0.00    +0.002 A 
ATOM     26  C   UNL     1       1.845  -6.435  -6.463  0.00  0.00    +0.000 A 
ATOM     27  C   UNL     1       2.975  -6.313  -7.251  0.00  0.00    +0.000 A 
ATOM     28  C   UNL     1       4.159  -5.865  -6.697  0.00  0.00    +0.000 A 
ATOM     29  C   UNL     1       4.214  -5.538  -5.355  0.00  0.00    +0.002 A 
ENDBRANCH  23  24
BRANCH  23  30
ATOM     30  N   UNL     1       2.489  -6.356  -2.317  0.00  0.00    +0.385 N 
ATOM     31  C   UNL     1       2.965  -7.701  -2.726  0.00  0.00    -0.078 C 
ATOM     32  C   UNL     1       2.611  -8.589  -1.506  0.00  0.00    -0.020 C 
ATOM     33  C   UNL     1       2.892  -7.656  -0.306  0.00  0.00    -0.020 C 
ATOM     34  C   UNL     1       2.822  -6.229  -0.881  0.00  0.00    -0.078 C 
ATOM     35  H   UNL     1       1.410  -6.233  -2.492  0.00  0.00    -0.081 HD
ENDBRANCH  23  30
ENDBRANCH  22  23
ENDBRANCH   3  22
TORSDOF 7
