REMARK  Name = ZINC14515261
REMARK  8 active torsions:
REMARK  status: ('A' for Active; 'I' for Inactive)
REMARK    1  A    between atoms: C_1  and  C_2
REMARK    2  A    between atoms: C_3  and  C_13
REMARK    3  A    between atoms: N_5  and  C_7
REMARK    4  A    between atoms: N_15  and  C_16
REMARK    5  A    between atoms: C_16  and  C_17
REMARK    6  A    between atoms: C_17  and  C_19
REMARK    7  A    between atoms: C_17  and  N_56
REMARK    8  A    between atoms: C_26  and  C_29
REMARK                            x       y       z     vdW  Elec       q    Type
REMARK                         _______ _______ _______ _____ _____    ______ ____
ROOT
ATOM      1  C   UNL     1      -0.338   1.410   2.454  0.00  0.00    +0.266 C 
ATOM      2  O   UNL     1       0.746   0.884   2.616  0.00  0.00    -0.268 OA
ATOM      3  N   UNL     1      -0.820   1.592   1.208  0.00  0.00    -0.311 N 
ATOM      4  H   UNL     1      -1.685   2.012   1.079  0.00  0.00    +0.149 HD
ENDROOT
BRANCH   1   7
ATOM      5  C   UNL     1       0.522   1.108   5.496  0.00  0.00    +0.070 C 
ATOM      6  C   UNL     1      -0.752   1.719   4.971  0.00  0.00    +0.093 A 
ATOM      7  C   UNL     1      -1.127   1.851   3.623  0.00  0.00    +0.170 A 
ATOM      8  N   UNL     1      -2.312   2.432   3.586  0.00  0.00    -0.142 NA
ATOM      9  N   UNL     1      -2.706   2.679   4.787  0.00  0.00    -0.149 N 
ATOM     10  N   UNL     1      -1.725   2.236   5.684  0.00  0.00    -0.152 NA
BRANCH   9  11
ATOM     11  C   UNL     1      -3.916   3.290   5.138  0.00  0.00    +0.086 A 
ATOM     12  C   UNL     1      -4.806   3.691   4.150  0.00  0.00    +0.029 A 
ATOM     13  C   UNL     1      -6.001   4.288   4.500  0.00  0.00    +0.002 A 
ATOM     14  C   UNL     1      -6.307   4.499   5.832  0.00  0.00    +0.000 A 
ATOM     15  C   UNL     1      -5.420   4.106   6.818  0.00  0.00    +0.002 A 
ATOM     16  C   UNL     1      -4.226   3.502   6.475  0.00  0.00    +0.029 A 
ENDBRANCH   9  11
ENDBRANCH   1   7
BRANCH   3  17
ATOM     17  C   UNL     1      -0.037   1.155   0.049  0.00  0.00    +0.094 C 
BRANCH  17  18
ATOM     18  C   UNL     1      -0.747   1.585  -1.236  0.00  0.00    -0.013 C 
BRANCH  18  25
ATOM     19  C   UNL     1      -2.782   1.315  -2.519  0.00  0.00    -0.078 C 
ATOM     20  C   UNL     1      -4.254   0.905  -2.428  0.00  0.00    -0.015 C 
ATOM     21  C   UNL     1      -4.343  -0.578  -2.057  0.00  0.00    -0.018 C 
ATOM     22  C   UNL     1      -3.610  -0.809  -0.733  0.00  0.00    -0.015 C 
ATOM     23  C   UNL     1      -2.157  -0.349  -0.873  0.00  0.00    -0.078 C 
ATOM     24  C   UNL     1      -5.812  -0.979  -1.905  0.00  0.00    +0.007 C 
ATOM     25  N   UNL     1      -2.139   1.091  -1.207  0.00  0.00    +0.386 N 
ATOM     26  H   UNL     1      -2.661   1.606  -0.488  0.00  0.00    -0.081 HD
ENDBRANCH  18  25
BRANCH  18  27
ATOM     27  C   UNL     1      -0.011   1.026  -2.427  0.00  0.00    -0.022 A 
ATOM     28  C   UNL     1       0.870   1.643  -3.252  0.00  0.00    +0.009 A 
ATOM     29  C   UNL     1       1.429   0.925  -4.292  0.00  0.00    +0.008 A 
ATOM     30  C   UNL     1       1.079  -0.374  -4.457  0.00  0.00    +0.045 A 
ATOM     31  S   UNL     1      -0.069  -0.621  -3.112  0.00  0.00    -0.103 S 
ENDBRANCH  18  27
ENDBRANCH  17  18
ENDBRANCH   3  17
TORSDOF 6
