REMARK  Name = ZINC61094452
REMARK  3 active torsions:
REMARK  status: ('A' for Active; 'I' for Inactive)
REMARK    1  A    between atoms: C_2  and  N_10
REMARK    2  A    between atoms: C_11  and  C_13
REMARK    3  A    between atoms: C_13  and  C_20
REMARK                            x       y       z     vdW  Elec       q    Type
REMARK                         _______ _______ _______ _____ _____    ______ ____
ROOT
ATOM      1  N   UNL     1       1.159   3.490   0.009  0.00  0.00    -0.282 N 
ATOM      2  C   UNL     1      -0.012   4.150  -0.078  0.00  0.00    +0.237 C 
ATOM      3  O   UNL     1      -1.057   3.534  -0.072  0.00  0.00    -0.274 OA
ATOM      4  H   UNL     1       1.992   3.984   0.069  0.00  0.00    +0.155 HD
ENDROOT
BRANCH   1   6
ATOM      5  C   UNL     1       0.147   1.384   0.625  0.00  0.00    +0.067 A 
ATOM      6  C   UNL     1       1.175   2.088   0.014  0.00  0.00    +0.072 A 
ATOM      7  C   UNL     1       2.221   1.402  -0.594  0.00  0.00    +0.147 A 
ATOM      8  C   UNL     1       2.234   0.019  -0.588  0.00  0.00    +0.081 A 
ATOM      9  C   UNL     1       1.208  -0.682   0.021  0.00  0.00    +0.161 A 
ATOM     10  C   UNL     1       0.165   0.001   0.628  0.00  0.00    +0.160 A 
ATOM     11  F   UNL     1      -0.836  -0.686   1.223  0.00  0.00    -0.202 F 
ATOM     12  F   UNL     1       1.223  -2.033   0.025  0.00  0.00    -0.202 F 
ATOM     13  F   UNL     1       3.222   2.086  -1.189  0.00  0.00    -0.203 F 
ENDBRANCH   1   6
BRANCH   2  14
ATOM     14  C   UNL     1      -0.024   5.653  -0.184  0.00  0.00    +0.133 C 
ATOM     15  C   UNL     1       0.721   6.245   1.030  0.00  0.00    +0.031 C 
ATOM     16  C   UNL     1       1.155   7.645   0.688  0.00  0.00    +0.002 C 
ATOM     17  C   UNL     1       0.140   8.706   1.155  0.00  0.00    +0.000 C 
ATOM     18  C   UNL     1      -1.321   8.290   0.901  0.00  0.00    +0.000 C 
ATOM     19  C   UNL     1      -1.508   7.638  -0.443  0.00  0.00    +0.002 C 
ATOM     20  C   UNL     1      -1.404   6.109  -0.265  0.00  0.00    +0.031 C 
BRANCH  14  21
ATOM     21  C   UNL     1       0.682   6.049  -1.414  0.00  0.00    +0.079 C 
ATOM     22  N   UNL     1       1.226   6.355  -2.363  0.00  0.00    -0.195 NA
ENDBRANCH  14  21
ENDBRANCH   2  14
TORSDOF 3
