REMARK  Name = ZINC36912568
REMARK  6 active torsions:
REMARK  status: ('A' for Active; 'I' for Inactive)
REMARK    1  A    between atoms: C_1  and  C_2
REMARK    2  A    between atoms: C_2  and  C_3
REMARK    3  A    between atoms: C_2  and  C_4
REMARK    4  A    between atoms: C_2  and  C_5
REMARK    5  A    between atoms: C_13  and  O_17
REMARK    6  A    between atoms: O_17  and  C_18
REMARK                            x       y       z     vdW  Elec       q    Type
REMARK                         _______ _______ _______ _____ _____    ______ ____
ROOT
ATOM      1  C   UNL     1       0.707  -0.490  -1.238  0.00  0.00    +0.026 A 
ATOM      2  C   UNL     1       1.195   0.420  -2.106  0.00  0.00    +0.073 A 
ATOM      3  C   UNL     1       1.862  -0.004  -3.279  0.00  0.00    +0.191 A 
ATOM      4  O   UNL     1       2.310   0.803  -4.077  0.00  0.00    -0.287 OA
ATOM      5  C   UNL     1       1.998  -1.453  -3.505  0.00  0.00    +0.067 A 
ATOM      6  C   UNL     1       2.643  -1.956  -4.638  0.00  0.00    +0.054 A 
ATOM      7  C   UNL     1       2.751  -3.319  -4.812  0.00  0.00    +0.024 A 
ATOM      8  C   UNL     1       2.222  -4.192  -3.871  0.00  0.00    +0.049 A 
ATOM      9  C   UNL     1       1.581  -3.711  -2.746  0.00  0.00    +0.144 A 
ATOM     10  C   UNL     1       1.462  -2.333  -2.551  0.00  0.00    +0.094 A 
ATOM     11  N   UNL     1       0.833  -1.824  -1.435  0.00  0.00    -0.354 N 
ATOM     12  H   UNL     1       0.468  -2.436  -0.777  0.00  0.00    +0.166 HD
ATOM     13 CL   UNL     1       3.306  -0.871  -5.819  0.00  0.00    -0.083 Cl
ENDROOT
BRANCH   1  15
ATOM     14  C   UNL     1      -0.019   1.526   0.010  0.00  0.00    +0.017 C 
ATOM     15  C   UNL     1       0.002  -0.004   0.002  0.00  0.00    +0.003 C 
ATOM     16  C   UNL     1       0.742  -0.511   1.242  0.00  0.00    +0.017 C 
ATOM     17  C   UNL     1      -1.433  -0.534   0.013  0.00  0.00    +0.017 C 
ENDBRANCH   1  15
BRANCH   9  18
ATOM     18  O   UNL     1       1.068  -4.576  -1.831  0.00  0.00    -0.493 OA
ATOM     19  C   UNL     1       1.227  -5.971  -2.097  0.00  0.00    +0.277 C 
ENDBRANCH   9  18
TORSDOF 2
