REMARK  Name = ZINC17082848
REMARK  6 active torsions:
REMARK  status: ('A' for Active; 'I' for Inactive)
REMARK    1  A    between atoms: C_1  and  C_2
REMARK    2  A    between atoms: C_5  and  N_8
REMARK    3  A    between atoms: C_9  and  C_11
REMARK    4  A    between atoms: C_22  and  C_25
REMARK    5  A    between atoms: C_28  and  O_31
REMARK    6  A    between atoms: O_31  and  C_32
REMARK                            x       y       z     vdW  Elec       q    Type
REMARK                         _______ _______ _______ _____ _____    ______ ____
ROOT
ATOM      1  C   UNL     1       0.309  -6.349   1.121  0.00  0.00    +0.119 C 
ATOM      2  C   UNL     1      -0.923  -6.963   0.454  0.00  0.00    +0.113 C 
ATOM      3  C   UNL     1      -2.102  -6.829   1.385  0.00  0.00    +0.218 C 
ATOM      4  O   UNL     1      -3.206  -6.606   0.937  0.00  0.00    -0.275 OA
ATOM      5  N   UNL     1      -1.929  -6.958   2.710  0.00  0.00    -0.289 N 
ATOM      6  C   UNL     1      -0.684  -7.121   3.260  0.00  0.00    +0.018 C 
ATOM      7  C   UNL     1       0.425  -6.859   2.539  0.00  0.00    +0.024 C 
ATOM      8  C   UNL     1       1.709  -7.049   3.078  0.00  0.00    +0.162 C 
ATOM      9  O   UNL     1       2.686  -6.846   2.385  0.00  0.00    -0.292 OA
ATOM     10  C   UNL     1       1.891  -7.499   4.503  0.00  0.00    +0.088 C 
ATOM     11  C   UNL     1       0.691  -7.018   5.327  0.00  0.00    +0.032 C 
ATOM     12  C   UNL     1      -0.584  -7.574   4.696  0.00  0.00    +0.059 C 
ATOM     13  H   UNL     1      -2.705  -6.936   3.292  0.00  0.00    +0.155 HD
ENDROOT
BRANCH  11  14
ATOM     14  C   UNL     1       0.817  -7.516   6.744  0.00  0.00    -0.043 A 
ATOM     15  C   UNL     1       0.877  -8.874   6.996  0.00  0.00    +0.007 A 
ATOM     16  C   UNL     1       0.993  -9.332   8.294  0.00  0.00    +0.046 A 
ATOM     17  C   UNL     1       1.050  -8.428   9.345  0.00  0.00    +0.120 A 
ATOM     18  C   UNL     1       0.990  -7.066   9.090  0.00  0.00    +0.046 A 
ATOM     19  C   UNL     1       0.880  -6.613   7.789  0.00  0.00    +0.007 A 
BRANCH  17  20
ATOM     20  O   UNL     1       1.163  -8.877  10.623  0.00  0.00    -0.495 OA
ATOM     21  C   UNL     1       1.216  -7.889  11.655  0.00  0.00    +0.277 C 
ENDBRANCH  17  20
ENDBRANCH  11  14
BRANCH   1  23
ATOM     22  N   UNL     1       0.059  -4.170  -0.021  0.00  0.00    -0.285 N 
ATOM     23  C   UNL     1       0.175  -4.848   1.138  0.00  0.00    +0.225 C 
ATOM     24  O   UNL     1       0.173  -4.251   2.193  0.00  0.00    -0.275 OA
ATOM     25  H   UNL     1      -0.007  -4.651  -0.861  0.00  0.00    +0.155 HD
BRANCH  22  30
ATOM     26  C   UNL     1      -0.048   1.502   0.014  0.00  0.00    +0.044 C 
ATOM     27  C   UNL     1      -0.020  -0.004   0.005  0.00  0.00    -0.050 A 
ATOM     28  C   UNL     1      -0.606  -0.712   1.038  0.00  0.00    +0.005 A 
ATOM     29  C   UNL     1      -0.582  -2.093   1.033  0.00  0.00    +0.023 A 
ATOM     30  C   UNL     1       0.032  -2.771  -0.013  0.00  0.00    +0.033 A 
ATOM     31  C   UNL     1       0.619  -2.057  -1.049  0.00  0.00    +0.023 A 
ATOM     32  C   UNL     1       0.588  -0.677  -1.040  0.00  0.00    +0.005 A 
ENDBRANCH  22  30
ENDBRANCH   1  23
TORSDOF 4
