REMARK  Name = ZINC22806464
REMARK  7 active torsions:
REMARK  status: ('A' for Active; 'I' for Inactive)
REMARK    1  A    between atoms: C_1  and  N_2
REMARK    2  A    between atoms: N_2  and  C_22
REMARK    3  A    between atoms: C_3  and  C_5
REMARK    4  A    between atoms: C_5  and  N_6
REMARK    5  A    between atoms: N_9  and  C_12
REMARK    6  A    between atoms: C_12  and  C_13
REMARK    7  A    between atoms: C_22  and  C_28
REMARK                            x       y       z     vdW  Elec       q    Type
REMARK                         _______ _______ _______ _____ _____    ______ ____
ROOT
ATOM      1  N   UNL     1       0.048  -0.898   3.586  0.00  0.00    -0.298 NA
ATOM      2  C   UNL     1      -1.197  -1.677   3.635  0.00  0.00    +0.066 C 
ATOM      3  C   UNL     1      -1.109  -2.704   4.766  0.00  0.00    -0.063 C 
ATOM      4  N   UNL     1      -0.894  -2.010   6.043  0.00  0.00    +0.384 N 
ATOM      5  C   UNL     1       0.366  -1.256   5.987  0.00  0.00    -0.063 C 
ATOM      6  C   UNL     1       0.289  -0.217   4.866  0.00  0.00    +0.066 C 
ATOM      7  H   UNL     1      -1.659  -1.373   6.212  0.00  0.00    -0.081 HD
ENDROOT
BRANCH   1   8
ATOM      8  C   UNL     1       0.025   0.062   2.475  0.00  0.00    +0.180 C 
BRANCH   8  11
ATOM      9  C   UNL     1      -0.018   1.461   0.010  0.00  0.00    +0.133 C 
ATOM     10  N   UNL     1       0.002  -0.004   0.002  0.00  0.00    -0.285 N 
ATOM     11  C   UNL     1       0.022  -0.684   1.165  0.00  0.00    +0.231 C 
ATOM     12  O   UNL     1       0.039  -1.897   1.159  0.00  0.00    -0.274 OA
BRANCH  10  13
ATOM     13  C   UNL     1      -0.000  -0.730  -1.271  0.00  0.00    +0.124 C 
ATOM     14  C   UNL     1      -1.238  -1.626  -1.345  0.00  0.00    +0.041 C 
ATOM     15  C   UNL     1      -1.240  -2.384  -2.674  0.00  0.00    +0.003 C 
ATOM     16  C   UNL     1      -1.265  -1.383  -3.831  0.00  0.00    +0.000 C 
ATOM     17  C   UNL     1      -0.027  -0.487  -3.757  0.00  0.00    +0.003 C 
ATOM     18  C   UNL     1      -0.025   0.271  -2.428  0.00  0.00    +0.041 C 
BRANCH  13  19
ATOM     19  C   UNL     1       1.212  -1.559  -1.365  0.00  0.00    +0.089 C 
ATOM     20  N   UNL     1       2.148  -2.199  -1.437  0.00  0.00    -0.194 NA
ENDBRANCH  13  19
ENDBRANCH  10  13
ENDBRANCH   8  11
ENDBRANCH   1   8
BRANCH   4  21
ATOM     21  C   UNL     1      -0.827  -2.994   7.131  0.00  0.00    -0.043 C 
BRANCH  21  22
ATOM     22  C   UNL     1      -0.730  -2.277   8.453  0.00  0.00    -0.063 A 
ATOM     23  C   UNL     1       0.508  -1.952   8.976  0.00  0.00    +0.005 A 
ATOM     24  C   UNL     1       0.603  -1.292  10.183  0.00  0.00    +0.046 A 
ATOM     25  C   UNL     1      -0.549  -0.947  10.886  0.00  0.00    +0.124 A 
ATOM     26  C   UNL     1      -1.787  -1.286  10.354  0.00  0.00    -0.002 A 
ATOM     27  C   UNL     1      -1.879  -1.937   9.144  0.00  0.00    +0.009 A 
ATOM     28  C   UNL     1      -2.839  -0.812  11.338  0.00  0.00    +0.080 C 
ATOM     29  C   UNL     1      -1.995  -0.551  12.608  0.00  0.00    +0.234 C 
ATOM     30  O   UNL     1      -0.686  -0.293  12.072  0.00  0.00    -0.491 OA
ENDBRANCH  21  22
ENDBRANCH   4  21
TORSDOF 6
