REMARK  Name = ZINC43607597
REMARK  6 active torsions:
REMARK  status: ('A' for Active; 'I' for Inactive)
REMARK    1  A    between atoms: C_1  and  O_2
REMARK    2  A    between atoms: O_2  and  C_3
REMARK    3  A    between atoms: C_8  and  C_9
REMARK    4  A    between atoms: C_9  and  N_10
REMARK    5  A    between atoms: C_15  and  C_24
REMARK    6  A    between atoms: N_27  and  C_29
REMARK                            x       y       z     vdW  Elec       q    Type
REMARK                         _______ _______ _______ _____ _____    ______ ____
ROOT
ATOM      1  N   UNL     1       0.950  -2.876  -1.151  0.00  0.00    -0.298 N 
ATOM      2  C   UNL     1       0.935  -1.903  -2.249  0.00  0.00    +0.110 C 
ATOM      3  C   UNL     1       2.257  -2.098  -3.014  0.00  0.00    +0.003 C 
ATOM      4  C   UNL     1       3.352  -1.195  -2.394  0.00  0.00    -0.007 C 
ATOM      5  C   UNL     1       4.614  -2.083  -2.547  0.00  0.00    -0.033 C 
ATOM      6  N   UNL     1       4.142  -3.462  -2.297  0.00  0.00    +0.394 N 
ATOM      7  C   UNL     1       2.681  -3.523  -2.584  0.00  0.00    +0.018 C 
ATOM      8  C   UNL     1       1.897  -3.812  -1.337  0.00  0.00    +0.206 C 
ATOM      9  O   UNL     1       2.089  -4.758  -0.603  0.00  0.00    -0.277 OA
ATOM     10  C   UNL     1       2.428  -4.538  -3.701  0.00  0.00    -0.004 C 
ATOM     11  C   UNL     1       3.700  -5.429  -3.658  0.00  0.00    -0.019 C 
ATOM     12  C   UNL     1       4.810  -4.383  -3.243  0.00  0.00    -0.077 C 
ATOM     13  H   UNL     1       4.339  -3.733  -1.345  0.00  0.00    -0.079 HD
ENDROOT
BRANCH   5  14
ATOM     14  C   UNL     1       5.657  -1.690  -1.533  0.00  0.00    -0.023 A 
ATOM     15  C   UNL     1       5.666  -2.051  -0.181  0.00  0.00    +0.136 A 
ATOM     16  N   UNL     1       6.727  -1.524   0.376  0.00  0.00    -0.175 NA
ATOM     17  N   UNL     1       7.427  -0.809  -0.605  0.00  0.00    -0.237 N 
ATOM     18  C   UNL     1       6.752  -0.932  -1.770  0.00  0.00    +0.116 A 
BRANCH  17  19
ATOM     19  C   UNL     1       8.620  -0.098  -0.413  0.00  0.00    +0.100 A 
ATOM     20  C   UNL     1       9.208   0.574  -1.476  0.00  0.00    +0.031 A 
ATOM     21  C   UNL     1      10.383   1.275  -1.285  0.00  0.00    +0.002 A 
ATOM     22  C   UNL     1      10.976   1.308  -0.036  0.00  0.00    +0.003 A 
ATOM     23  C   UNL     1      10.395   0.640   1.026  0.00  0.00    +0.040 A 
ATOM     24  C   UNL     1       9.215  -0.059   0.843  0.00  0.00    +0.149 A 
ATOM     25  F   UNL     1       8.644  -0.707   1.882  0.00  0.00    -0.203 F 
ENDBRANCH  17  19
ENDBRANCH   5  14
BRANCH   1  26
ATOM     26  C   UNL     1       0.052  -2.828   0.005  0.00  0.00    +0.146 C 
BRANCH  26  32
ATOM     27  C   UNL     1       0.626  -0.618   1.042  0.00  0.00    +0.125 A 
ATOM     28  C   UNL     1       1.202   0.139   2.051  0.00  0.00    +0.046 A 
ATOM     29  C   UNL     1       1.835  -0.488   3.107  0.00  0.00    +0.004 A 
ATOM     30  C   UNL     1       1.895  -1.869   3.158  0.00  0.00    +0.001 A 
ATOM     31  C   UNL     1       1.321  -2.625   2.153  0.00  0.00    +0.009 A 
ATOM     32  C   UNL     1       0.682  -2.003   1.097  0.00  0.00    +0.011 A 
BRANCH  27  34
ATOM     33  C   UNL     1      -0.017   1.425   0.010  0.00  0.00    +0.277 C 
ATOM     34  O   UNL     1       0.002  -0.004   0.002  0.00  0.00    -0.495 OA
ENDBRANCH  27  34
ENDBRANCH  26  32
ENDBRANCH   1  26
TORSDOF 5
