REMARK  Name = ZINC44243777
REMARK  5 active torsions:
REMARK  status: ('A' for Active; 'I' for Inactive)
REMARK    1  A    between atoms: C_1  and  C_2
REMARK    2  A    between atoms: C_2  and  O_3
REMARK    3  A    between atoms: O_3  and  C_4
REMARK    4  A    between atoms: N_14  and  C_15
REMARK    5  A    between atoms: C_17  and  N_22
REMARK                            x       y       z     vdW  Elec       q    Type
REMARK                         _______ _______ _______ _____ _____    ______ ____
ROOT
ATOM      1  C   UNL     1      -1.416  -2.042   0.184  0.00  0.00    +0.403 C 
ATOM      2  O   UNL     1      -0.444  -2.734  -0.050  0.00  0.00    -0.226 OA
ATOM      3  N   UNL     1      -2.647  -2.591   0.195  0.00  0.00    -0.264 N 
ATOM      4  C   UNL     1      -3.831  -1.765   0.470  0.00  0.00    +0.130 C 
ATOM      5  C   UNL     1      -4.822  -1.928  -0.689  0.00  0.00    +0.128 C 
ATOM      6  N   UNL     1      -5.004  -3.362  -0.953  0.00  0.00    -0.282 N 
ATOM      7  C   UNL     1      -3.820  -4.188  -1.229  0.00  0.00    +0.128 C 
ATOM      8  C   UNL     1      -2.829  -4.024  -0.075  0.00  0.00    +0.130 C 
ATOM      9  C   UNL     1      -6.235  -3.911  -0.943  0.00  0.00    +0.307 C 
ATOM     10  O   UNL     1      -7.197  -3.240  -0.624  0.00  0.00    -0.252 OA
ATOM     11  N   UNL     1      -6.400  -5.204  -1.286  0.00  0.00    -0.268 N 
ATOM     12  H   UNL     1      -5.627  -5.757  -1.477  0.00  0.00    +0.156 HD
ENDROOT
BRANCH  11  13
ATOM     13  C   UNL     1      -7.687  -5.748  -1.367  0.00  0.00    +0.055 A 
ATOM     14  C   UNL     1      -8.790  -4.912  -1.468  0.00  0.00    +0.048 A 
ATOM     15  C   UNL     1     -10.064  -5.455  -1.548  0.00  0.00    +0.038 A 
ATOM     16  C   UNL     1     -10.233  -6.834  -1.528  0.00  0.00    +0.025 A 
ATOM     17  C   UNL     1      -9.133  -7.665  -1.428  0.00  0.00    +0.023 A 
ATOM     18  C   UNL     1      -7.862  -7.127  -1.353  0.00  0.00    +0.062 A 
ATOM     19 CL   UNL     1      -6.483  -8.175  -1.234  0.00  0.00    -0.082 Cl
BRANCH  15  20
ATOM     20  N   UNL     1     -11.178  -4.614  -1.649  0.00  0.00    -0.271 N 
ATOM     21  C   UNL     1     -11.122  -3.150  -1.565  0.00  0.00    +0.114 C 
ATOM     22  C   UNL     1     -12.460  -2.651  -2.153  0.00  0.00    +0.029 C 
ATOM     23  C   UNL     1     -13.385  -3.866  -1.908  0.00  0.00    +0.098 C 
ATOM     24  C   UNL     1     -12.437  -5.044  -1.842  0.00  0.00    +0.220 C 
ATOM     25  O   UNL     1     -12.767  -6.207  -1.946  0.00  0.00    -0.275 OA
ENDBRANCH  15  20
ENDBRANCH  11  13
BRANCH   1  26
ATOM     26  O   UNL     1      -1.262  -0.728   0.433  0.00  0.00    -0.451 OA
BRANCH  26  28
ATOM     27  C   UNL     1       0.045   1.286   0.709  0.00  0.00    +0.048 C 
ATOM     28  C   UNL     1       0.071  -0.214   0.405  0.00  0.00    +0.230 C 
ENDBRANCH  26  28
ENDBRANCH   1  26
TORSDOF 4
