REMARK  Name = ZINC11439971
REMARK  11 active torsions:
REMARK  status: ('A' for Active; 'I' for Inactive)
REMARK    1  A    between atoms: C_1  and  O_2
REMARK    2  A    between atoms: O_2  and  C_3
REMARK    3  A    between atoms: C_6  and  C_11
REMARK    4  A    between atoms: C_7  and  O_9
REMARK    5  A    between atoms: O_9  and  C_10
REMARK    6  A    between atoms: C_16  and  C_17
REMARK    7  A    between atoms: C_16  and  N_52
REMARK    8  A    between atoms: N_19  and  C_20
REMARK    9  A    between atoms: C_24  and  C_25
REMARK   10  A    between atoms: C_25  and  O_27
REMARK   11  A    between atoms: O_27  and  C_28
REMARK                            x       y       z     vdW  Elec       q    Type
REMARK                         _______ _______ _______ _____ _____    ______ ____
ROOT
ATOM      1  C   UNL     1      -4.827  -3.163  -0.294  0.00  0.00    -0.033 C 
ATOM      2  C   UNL     1      -4.657  -3.750  -1.712  0.00  0.00    -0.012 C 
ATOM      3  C   UNL     1      -3.116  -3.826  -1.877  0.00  0.00    -0.020 C 
ATOM      4  C   UNL     1      -2.657  -2.557  -1.115  0.00  0.00    -0.077 C 
ATOM      5  N   UNL     1      -3.568  -2.472   0.040  0.00  0.00    +0.390 N 
ATOM      6  H   UNL     1      -3.134  -2.930   0.850  0.00  0.00    -0.080 HD
ENDROOT
BRANCH   1  10
ATOM      7  C   UNL     1      -8.110  -0.423  -0.237  0.00  0.00    +0.124 A 
ATOM      8  C   UNL     1      -7.145  -0.335  -1.230  0.00  0.00    +0.046 A 
ATOM      9  C   UNL     1      -6.085  -1.221  -1.247  0.00  0.00    +0.009 A 
ATOM     10  C   UNL     1      -5.984  -2.198  -0.274  0.00  0.00    -0.019 A 
ATOM     11  C   UNL     1      -6.949  -2.294   0.718  0.00  0.00    +0.125 A 
ATOM     12  C   UNL     1      -8.010  -1.402   0.740  0.00  0.00    +0.091 A 
BRANCH   7  14
ATOM     13  C   UNL     1      -9.191   1.431  -1.259  0.00  0.00    +0.277 C 
ATOM     14  O   UNL     1      -9.152   0.449  -0.222  0.00  0.00    -0.495 OA
ENDBRANCH   7  14
BRANCH  11  15
ATOM     15  O   UNL     1      -6.851  -3.258   1.671  0.00  0.00    -0.495 OA
ATOM     16  C   UNL     1      -7.881  -3.298   2.661  0.00  0.00    +0.277 C 
ENDBRANCH  11  15
ENDBRANCH   1  10
BRANCH   5  17
ATOM     17  C   UNL     1      -3.842  -1.050   0.377  0.00  0.00    +0.020 C 
BRANCH  17  18
ATOM     18  C   UNL     1      -2.615  -0.447   1.011  0.00  0.00    +0.201 C 
ATOM     19  O   UNL     1      -1.618  -1.120   1.165  0.00  0.00    -0.278 OA
ATOM     20  N   UNL     1      -2.626   0.842   1.407  0.00  0.00    -0.286 N 
ATOM     21  H   UNL     1      -3.445   1.358   1.354  0.00  0.00    +0.155 HD
BRANCH  20  22
ATOM     22  C   UNL     1      -1.459   1.432   1.892  0.00  0.00    +0.055 A 
ATOM     23  C   UNL     1      -0.211   0.948   1.559  0.00  0.00    +0.032 A 
ATOM     24  C   UNL     1       0.892   1.563   2.054  0.00  0.00    +0.048 A 
ATOM     25  S   UNL     1       0.238   2.846   3.018  0.00  0.00    -0.088 S 
ATOM     26  C   UNL     1      -1.496   2.538   2.741  0.00  0.00    +0.117 A 
BRANCH  26  27
ATOM     27  C   UNL     1      -2.618   3.235   3.247  0.00  0.00    +0.347 C 
ATOM     28  O   UNL     1      -3.743   2.878   2.948  0.00  0.00    -0.244 OA
BRANCH  27  29
ATOM     29  O   UNL     1      -2.442   4.297   4.061  0.00  0.00    -0.464 OA
ATOM     30  C   UNL     1      -3.619   4.954   4.535  0.00  0.00    +0.280 C 
ENDBRANCH  27  29
ENDBRANCH  26  27
ENDBRANCH  20  22
ENDBRANCH  17  18
ENDBRANCH   5  17
TORSDOF 8
