REMARK  Name = ZINC56932948
REMARK  5 active torsions:
REMARK  status: ('A' for Active; 'I' for Inactive)
REMARK    1  A    between atoms: C_1  and  C_2
REMARK    2  A    between atoms: C_8  and  C_24
REMARK    3  A    between atoms: C_9  and  C_12
REMARK    4  A    between atoms: C_16  and  C_23
REMARK    5  A    between atoms: C_19  and  C_22
REMARK                            x       y       z     vdW  Elec       q    Type
REMARK                         _______ _______ _______ _____ _____    ______ ____
ROOT
ATOM      1  C   UNL     1       0.025   1.497   0.365  0.00  0.00    +0.053 C 
ATOM      2  C   UNL     1       0.041  -0.009   0.324  0.00  0.00    +0.008 A 
ATOM      3  C   UNL     1      -0.967  -0.892   0.536  0.00  0.00    +0.124 A 
ATOM      4  N   UNL     1      -0.672  -2.174   0.436  0.00  0.00    -0.229 NA
ATOM      5  C   UNL     1       0.547  -2.571   0.144  0.00  0.00    +0.196 A 
ATOM      6  S   UNL     1       1.391  -1.124  -0.024  0.00  0.00    -0.053 S 
ATOM      7  N   UNL     1       1.023  -3.874   0.001  0.00  0.00    -0.192 N 
ATOM      8  C   UNL     1       0.307  -5.013   0.133  0.00  0.00    +0.076 A 
ATOM      9  C   UNL     1       1.169  -6.048  -0.091  0.00  0.00    +0.170 A 
ATOM     10  N   UNL     1       2.386  -5.541  -0.353  0.00  0.00    -0.124 NA
ATOM     11  N   UNL     1       2.335  -4.255  -0.312  0.00  0.00    -0.058 NA
ATOM     12  C   UNL     1      -1.160  -5.119   0.462  0.00  0.00    +0.068 C 
ENDROOT
BRANCH   9  13
ATOM     13  C   UNL     1       0.823  -7.482  -0.051  0.00  0.00    +0.269 C 
ATOM     14  O   UNL     1      -0.336  -7.824   0.081  0.00  0.00    -0.268 OA
ATOM     15  N   UNL     1       1.792  -8.412  -0.159  0.00  0.00    -0.296 N 
ATOM     16  C   UNL     1       3.209  -8.022  -0.152  0.00  0.00    +0.111 C 
ATOM     17  C   UNL     1       3.937  -8.827   0.929  0.00  0.00    +0.004 C 
ATOM     18  C   UNL     1       3.697 -10.320   0.696  0.00  0.00    +0.009 C 
ATOM     19  C   UNL     1       2.200 -10.620   0.796  0.00  0.00    +0.004 C 
ATOM     20  C   UNL     1       1.453  -9.836  -0.281  0.00  0.00    +0.111 C 
ATOM     21  C   UNL     1       1.687 -10.204   2.176  0.00  0.00    +0.009 C 
ATOM     22  C   UNL     1       5.436  -8.533   0.862  0.00  0.00    +0.009 C 
ENDBRANCH   9  13
TORSDOF 1
