REMARK  Name = ZINC00358167
REMARK  3 active torsions:
REMARK  status: ('A' for Active; 'I' for Inactive)
REMARK    1  A    between atoms: C_4  and  C_7
REMARK    2  A    between atoms: C_10  and  C_18
REMARK    3  A    between atoms: C_14  and  C_16
REMARK                            x       y       z     vdW  Elec       q    Type
REMARK                         _______ _______ _______ _____ _____    ______ ____
ROOT
ATOM      1  C   UNL     1       4.944   1.053  -0.039  0.00  0.00    +0.069 C 
ATOM      2  C   UNL     1       3.616   1.764  -0.022  0.00  0.00    +0.007 C 
ATOM      3  C   UNL     1       2.480   1.072  -0.015  0.00  0.00    +0.037 C 
ATOM      4  N   UNL     1       2.495  -0.324  -0.016  0.00  0.00    -0.284 N 
ATOM      5  C   UNL     1       3.603  -0.996   0.343  0.00  0.00    +0.235 C 
ATOM      6  O   UNL     1       3.606  -2.209   0.333  0.00  0.00    -0.274 OA
ATOM      7  C   UNL     1       4.840  -0.245   0.763  0.00  0.00    +0.188 C 
ATOM      8  H   UNL     1       1.701  -0.814  -0.281  0.00  0.00    +0.155 HD
ENDROOT
BRANCH   1  12
ATOM      9  C   UNL     1       6.023   0.151  -4.072  0.00  0.00    +0.000 A 
ATOM     10  C   UNL     1       6.842   0.954  -3.301  0.00  0.00    +0.000 A 
ATOM     11  C   UNL     1       6.493   1.246  -1.995  0.00  0.00    +0.004 A 
ATOM     12  C   UNL     1       5.324   0.735  -1.462  0.00  0.00    -0.039 A 
ATOM     13  C   UNL     1       4.508  -0.072  -2.232  0.00  0.00    +0.004 A 
ATOM     14  C   UNL     1       4.855  -0.361  -3.538  0.00  0.00    +0.000 A 
ENDBRANCH   1  12
BRANCH   3  15
ATOM     15  C   UNL     1       1.185   1.791   0.000  0.00  0.00    -0.004 A 
ATOM     16  C   UNL     1      -0.013   1.076   0.008  0.00  0.00    +0.010 A 
ATOM     17  C   UNL     1      -1.216   1.751   0.017  0.00  0.00    +0.001 A 
ATOM     18  C   UNL     1      -1.236   3.134   0.030  0.00  0.00    +0.000 A 
ATOM     19  C   UNL     1      -0.052   3.849   0.022  0.00  0.00    +0.001 A 
ATOM     20  C   UNL     1       1.158   3.185   0.008  0.00  0.00    +0.010 A 
ENDBRANCH   3  15
BRANCH   7  21
ATOM     21  C   UNL     1       4.758   0.070   2.199  0.00  0.00    +0.076 C 
ATOM     22  N   UNL     1       4.696   0.313   3.307  0.00  0.00    -0.196 NA
ENDBRANCH   7  21
TORSDOF 3
