REMARK  Name = ZINC49963430
REMARK  4 active torsions:
REMARK  status: ('A' for Active; 'I' for Inactive)
REMARK    1  A    between atoms: C_9  and  N_11
REMARK    2  A    between atoms: N_11  and  C_12
REMARK    3  A    between atoms: C_12  and  C_13
REMARK    4  A    between atoms: C_16  and  N_20
REMARK                            x       y       z     vdW  Elec       q    Type
REMARK                         _______ _______ _______ _____ _____    ______ ____
ROOT
ATOM      1  N   UNL     1       4.148  -1.058   1.305  0.00  0.00    +0.386 N 
ATOM      2  H   UNL     1       3.425  -1.296   1.968  0.00  0.00    -0.085 HD
ATOM      3  H   UNL     1       4.854  -1.779   1.304  0.00  0.00    -0.085 HD
ENDROOT
BRANCH   1  12
ATOM      4  C   UNL     1      -0.017   1.377   0.010  0.00  0.00    +0.000 A 
ATOM      5  C   UNL     1       1.172   2.083   0.002  0.00  0.00    +0.000 A 
ATOM      6  C   UNL     1       2.376   1.406  -0.013  0.00  0.00    +0.002 A 
ATOM      7  C   UNL     1       2.396   0.021  -0.021  0.00  0.00    -0.058 A 
ATOM      8  C   UNL     1       1.208  -0.685  -0.013  0.00  0.00    -0.046 A 
ATOM      9  C   UNL     1       0.002  -0.004   0.002  0.00  0.00    +0.004 A 
ATOM     10  C   UNL     1       1.496  -2.171  -0.025  0.00  0.00    +0.034 C 
ATOM     11  C   UNL     1       2.966  -2.294  -0.480  0.00  0.00    -0.007 C 
ATOM     12  C   UNL     1       3.564  -0.942  -0.037  0.00  0.00    -0.040 C 
ENDBRANCH   1  12
BRANCH   1  13
ATOM     13  C   UNL     1       4.758   0.223   1.686  0.00  0.00    -0.044 C 
BRANCH  13  14
ATOM     14  C   UNL     1       5.358   0.104   3.064  0.00  0.00    -0.046 A 
ATOM     15  C   UNL     1       4.670   0.588   4.161  0.00  0.00    +0.005 A 
ATOM     16  C   UNL     1       5.220   0.479   5.425  0.00  0.00    +0.033 A 
ATOM     17  C   UNL     1       6.458  -0.113   5.592  0.00  0.00    +0.128 A 
ATOM     18  C   UNL     1       7.146  -0.598   4.495  0.00  0.00    +0.053 A 
ATOM     19  C   UNL     1       6.593  -0.495   3.231  0.00  0.00    +0.044 A 
ATOM     20 CL   UNL     1       7.454  -1.109   1.855  0.00  0.00    -0.083 Cl
BRANCH  17  21
ATOM     21  N   UNL     1       7.047  -0.228   6.945  0.00  0.00    +0.056 N 
ATOM     22  O   UNL     1       6.445   0.196   7.904  0.00  0.00    -0.126 OA
ATOM     23  O   UNL     1       8.129  -0.747   7.091  0.00  0.00    -0.126 OA
ENDBRANCH  17  21
ENDBRANCH  13  14
ENDBRANCH   1  13
TORSDOF 4
