REMARK  Name = ZINC04899128
REMARK  8 active torsions:
REMARK  status: ('A' for Active; 'I' for Inactive)
REMARK    1  A    between atoms: C_1  and  O_2
REMARK    2  A    between atoms: O_2  and  C_3
REMARK    3  A    between atoms: C_6  and  C_9
REMARK    4  A    between atoms: C_9  and  C_11
REMARK    5  A    between atoms: C_13  and  C_25
REMARK    6  A    between atoms: C_16  and  O_24
REMARK    7  A    between atoms: C_18  and  C_19
REMARK    8  A    between atoms: C_28  and  O_31
REMARK                            x       y       z     vdW  Elec       q    Type
REMARK                         _______ _______ _______ _____ _____    ______ ____
ROOT
ATOM      1  C   UNL     1      -5.047  -4.129  -0.072  0.00  0.00    +0.149 C 
ATOM      2  C   UNL     1      -6.312  -4.495  -0.863  0.00  0.00    +0.120 C 
ATOM      3  N   UNL     1      -7.461  -3.924  -0.143  0.00  0.00    -0.293 N 
ATOM      4  C   UNL     1      -7.495  -4.019   1.226  0.00  0.00    +0.256 C 
ATOM      5  N   UNL     1      -6.466  -4.370   1.920  0.00  0.00    -0.306 N 
ATOM      6  C   UNL     1      -5.172  -4.712   1.338  0.00  0.00    +0.284 C 
ATOM      7  O   UNL     1      -5.045  -6.133   1.273  0.00  0.00    -0.194 OA
ATOM      8  H   UNL     1      -8.180  -3.488  -0.627  0.00  0.00    +0.151 HD
ATOM      9  H   UNL     1      -6.557  -4.409   2.885  0.00  0.00    +0.167 HD
ENDROOT
BRANCH   2  10
ATOM     10  C   UNL     1      -6.449  -5.994  -0.944  0.00  0.00    -0.026 A 
ATOM     11  C   UNL     1      -6.969  -6.698   0.126  0.00  0.00    +0.009 A 
ATOM     12  C   UNL     1      -7.096  -8.072   0.054  0.00  0.00    +0.046 A 
ATOM     13  C   UNL     1      -6.702  -8.745  -1.093  0.00  0.00    +0.117 A 
ATOM     14  C   UNL     1      -6.181  -8.035  -2.166  0.00  0.00    +0.046 A 
ATOM     15  C   UNL     1      -6.061  -6.661  -2.091  0.00  0.00    +0.009 A 
BRANCH  13  16
ATOM     16  O   UNL     1      -6.825 -10.096  -1.166  0.00  0.00    -0.507 OA
ATOM     17  H   UNL     1      -7.673 -10.395  -1.520  0.00  0.00    +0.292 HD
ENDBRANCH  13  16
ENDBRANCH   2  10
BRANCH   6  18
ATOM     18  C   UNL     1      -4.056  -4.146   2.219  0.00  0.00    +0.441 C 
ATOM     19  F   UNL     1      -4.247  -2.770   2.388  0.00  0.00    -0.166 F 
ATOM     20  F   UNL     1      -4.082  -4.777   3.467  0.00  0.00    -0.166 F 
ATOM     21  F   UNL     1      -2.819  -4.373   1.607  0.00  0.00    -0.166 F 
ENDBRANCH   6  18
BRANCH   1  22
ATOM     22  C   UNL     1      -4.915  -2.630   0.009  0.00  0.00    +0.173 C 
ATOM     23  O   UNL     1      -5.754  -1.978   0.594  0.00  0.00    -0.292 OA
BRANCH  22  27
ATOM     24  C   UNL     1      -1.615  -0.694  -1.806  0.00  0.00    +0.120 A 
ATOM     25  C   UNL     1      -2.630   0.062  -1.229  0.00  0.00    +0.046 A 
ATOM     26  C   UNL     1      -3.700  -0.560  -0.640  0.00  0.00    +0.015 A 
ATOM     27  C   UNL     1      -3.771  -1.958  -0.621  0.00  0.00    +0.018 A 
ATOM     28  C   UNL     1      -2.746  -2.715  -1.203  0.00  0.00    +0.015 A 
ATOM     29  C   UNL     1      -1.682  -2.083  -1.794  0.00  0.00    +0.046 A 
BRANCH  24  31
ATOM     30  C   UNL     1      -0.551   1.355  -2.365  0.00  0.00    +0.277 C 
ATOM     31  O   UNL     1      -0.557  -0.073  -2.388  0.00  0.00    -0.495 OA
ENDBRANCH  24  31
ENDBRANCH  22  27
ENDBRANCH   1  22
BRANCH   4  32
ATOM     32  O   UNL     1      -8.649  -3.735   1.870  0.00  0.00    -0.483 OA
ATOM     33  H   UNL     1      -8.595  -3.825   2.831  0.00  0.00    +0.295 HD
ENDBRANCH   4  32
TORSDOF 7
