REMARK  Name = ZINC22796230
REMARK  9 active torsions:
REMARK  status: ('A' for Active; 'I' for Inactive)
REMARK    1  A    between atoms: C_1  and  C_2
REMARK    2  A    between atoms: C_5  and  C_31
REMARK    3  A    between atoms: C_6  and  N_8
REMARK    4  A    between atoms: C_9  and  C_11
REMARK    5  A    between atoms: N_13  and  C_14
REMARK    6  A    between atoms: C_14  and  C_15
REMARK    7  A    between atoms: C_15  and  C_17
REMARK    8  A    between atoms: C_15  and  N_24
REMARK    9  A    between atoms: N_27  and  C_30
REMARK                            x       y       z     vdW  Elec       q    Type
REMARK                         _______ _______ _______ _____ _____    ______ ____
ROOT
ATOM      1  C   UNL     1      -1.549   5.131  -2.267  0.00  0.00    +0.128 C 
ENDROOT
BRANCH   1   4
ATOM      2  C   UNL     1      -0.025   7.026  -2.099  0.00  0.00    +0.299 C 
ATOM      3  O   UNL     1      -0.985   7.766  -2.165  0.00  0.00    -0.265 OA
ATOM      4  N   UNL     1      -0.200   5.690  -2.141  0.00  0.00    -0.306 N 
ATOM      5  H   UNL     1       0.670   5.019  -2.081  0.00  0.00    +0.149 HD
BRANCH   2   7
ATOM      6  N   UNL     1       1.524   8.931  -1.929  0.00  0.00    -0.278 N 
ATOM      7  C   UNL     1       1.349   7.596  -1.971  0.00  0.00    +0.303 C 
ATOM      8  O   UNL     1       2.309   6.856  -1.905  0.00  0.00    -0.265 OA
ATOM      9  H   UNL     1       0.651   9.600  -1.932  0.00  0.00    +0.155 HD
BRANCH   6  15
ATOM     10  C   UNL     1       6.267   8.437  -0.739  0.00  0.00    +0.044 C 
ATOM     11  C   UNL     1       5.133   9.248  -1.310  0.00  0.00    -0.049 A 
ATOM     12  C   UNL     1       5.369  10.525  -1.786  0.00  0.00    +0.004 A 
ATOM     13  C   UNL     1       4.330  11.274  -2.309  0.00  0.00    +0.005 A 
ATOM     14  C   UNL     1       3.054  10.748  -2.358  0.00  0.00    -0.029 A 
ATOM     15  C   UNL     1       2.814   9.466  -1.881  0.00  0.00    +0.037 A 
ATOM     16  C   UNL     1       3.858   8.718  -1.351  0.00  0.00    +0.027 A 
ATOM     17  C   UNL     1       1.923  11.565  -2.929  0.00  0.00    +0.045 C 
ENDBRANCH   6  15
ENDBRANCH   2   7
ENDBRANCH   1   4
BRANCH   1  18
ATOM     18  C   UNL     1      -1.460   3.610  -2.402  0.00  0.00    +0.104 C 
BRANCH  18  19
ATOM     19  N   UNL     1      -0.837   3.047  -1.197  0.00  0.00    -0.297 NA
ATOM     20  C   UNL     1      -1.052   3.921  -0.035  0.00  0.00    +0.066 C 
ATOM     21  C   UNL     1      -0.459   3.262   1.212  0.00  0.00    -0.064 C 
ATOM     22  N   UNL     1       0.975   3.018   1.000  0.00  0.00    +0.379 N 
ATOM     23  C   UNL     1       1.190   2.144  -0.162  0.00  0.00    -0.064 C 
ATOM     24  C   UNL     1       0.597   2.802  -1.410  0.00  0.00    +0.066 C 
ATOM     25  C   UNL     1       1.597   2.454   2.205  0.00  0.00    -0.096 C 
ATOM     26  H   UNL     1       1.457   3.984   0.792  0.00  0.00    -0.082 HD
ENDBRANCH  18  19
BRANCH  18  27
ATOM     27  C   UNL     1      -2.845   3.038  -2.566  0.00  0.00    -0.029 A 
ATOM     28  C   UNL     1      -3.687   2.945  -1.474  0.00  0.00    +0.008 A 
ATOM     29  C   UNL     1      -4.959   2.427  -1.624  0.00  0.00    +0.038 A 
ATOM     30  C   UNL     1      -5.386   1.989  -2.866  0.00  0.00    +0.123 A 
ATOM     31  C   UNL     1      -4.539   2.078  -3.958  0.00  0.00    +0.038 A 
ATOM     32  C   UNL     1      -3.269   2.602  -3.807  0.00  0.00    +0.008 A 
ATOM     33  F   UNL     1      -6.627   1.476  -3.013  0.00  0.00    -0.205 F 
ENDBRANCH  18  27
ENDBRANCH   1  18
TORSDOF 6
