REMARK  Name = ZINC12735597
REMARK  6 active torsions:
REMARK  status: ('A' for Active; 'I' for Inactive)
REMARK    1  A    between atoms: C_1  and  C_2
REMARK    2  A    between atoms: C_5  and  S_8
REMARK    3  A    between atoms: S_8  and  N_11
REMARK    4  A    between atoms: C_14  and  C_17
REMARK    5  A    between atoms: N_19  and  N_20
REMARK    6  A    between atoms: C_21  and  C_23
REMARK                            x       y       z     vdW  Elec       q    Type
REMARK                         _______ _______ _______ _____ _____    ______ ____
ROOT
ATOM      1  N   UNL     1      -3.182   9.061  -7.281  0.00  0.00    -0.177 NA
ATOM      2  C   UNL     1      -4.057   9.419  -6.156  0.00  0.00    +0.110 C 
ATOM      3  C   UNL     1      -3.451   8.862  -4.864  0.00  0.00    +0.030 C 
ATOM      4  C   UNL     1      -3.215   7.358  -5.023  0.00  0.00    +0.079 C 
ATOM      5  C   UNL     1      -2.225   7.114  -6.164  0.00  0.00    +0.030 C 
ATOM      6  C   UNL     1      -2.817   7.651  -7.471  0.00  0.00    +0.110 C 
ENDROOT
BRANCH   4   7
ATOM      7  C   UNL     1      -2.651   6.800  -3.741  0.00  0.00    +0.232 C 
ATOM      8  O   UNL     1      -2.457   7.533  -2.795  0.00  0.00    -0.274 OA
ATOM      9  N   UNL     1      -2.362   5.487  -3.648  0.00  0.00    -0.234 N 
ATOM     10  H   UNL     1      -2.518   4.901  -4.405  0.00  0.00    +0.173 HD
BRANCH   9  11
ATOM     11  N   UNL     1      -1.838   4.968  -2.457  0.00  0.00    -0.234 N 
ATOM     12  C   UNL     1      -1.549   3.655  -2.363  0.00  0.00    +0.232 C 
ATOM     13  O   UNL     1      -1.744   2.923  -3.309  0.00  0.00    -0.274 OA
ATOM     14  H   UNL     1      -1.683   5.554  -1.699  0.00  0.00    +0.173 HD
BRANCH  12  15
ATOM     15  C   UNL     1      -0.985   3.097  -1.081  0.00  0.00    +0.080 C 
ATOM     16  C   UNL     1      -0.747   1.590  -1.236  0.00  0.00    +0.017 C 
ATOM     17  C   UNL     1      -0.013   1.086   0.008  0.00  0.00    +0.027 C 
ATOM     18  C   UNL     1      -0.710   1.567   1.247  0.00  0.00    -0.031 C 
ATOM     19  C   UNL     1      -1.560   2.540   1.271  0.00  0.00    -0.030 C 
ATOM     20  C   UNL     1      -1.983   3.316   0.058  0.00  0.00    +0.039 C 
ENDBRANCH  12  15
ENDBRANCH   9  11
ENDBRANCH   4   7
BRANCH   1  21
ATOM     21  S   UNL     1      -2.618  10.226  -8.314  0.00  0.00    +0.061 S 
ATOM     22  O   UNL     1      -2.311   9.570  -9.537  0.00  0.00    -0.153 OA
ATOM     23  O   UNL     1      -3.532  11.311  -8.241  0.00  0.00    -0.153 OA
BRANCH  21  28
ATOM     24  C   UNL     1       2.614  12.224  -6.068  0.00  0.00    +0.044 C 
ATOM     25  C   UNL     1       1.307  11.725  -6.629  0.00  0.00    -0.050 A 
ATOM     26  C   UNL     1       1.295  10.659  -7.509  0.00  0.00    +0.005 A 
ATOM     27  C   UNL     1       0.096  10.201  -8.024  0.00  0.00    +0.029 A 
ATOM     28  C   UNL     1      -1.090  10.809  -7.658  0.00  0.00    +0.105 A 
ATOM     29  C   UNL     1      -1.077  11.879  -6.782  0.00  0.00    +0.029 A 
ATOM     30  C   UNL     1       0.121  12.334  -6.264  0.00  0.00    +0.005 A 
ENDBRANCH  21  28
ENDBRANCH   1  21
TORSDOF 5
