REMARK  Name = ZINC06187298
REMARK  10 active torsions:
REMARK  status: ('A' for Active; 'I' for Inactive)
REMARK    1  A    between atoms: C_1  and  C_2
REMARK    2  A    between atoms: C_2  and  O_3
REMARK    3  A    between atoms: O_3  and  C_4
REMARK    4  A    between atoms: C_7  and  C_12
REMARK    5  A    between atoms: C_9  and  O_10
REMARK    6  A    between atoms: O_10  and  C_11
REMARK    7  A    between atoms: C_19  and  N_32
REMARK    8  A    between atoms: C_20  and  C_30
REMARK    9  A    between atoms: C_21  and  C_23
REMARK   10  A    between atoms: C_26  and  C_29
REMARK                            x       y       z     vdW  Elec       q    Type
REMARK                         _______ _______ _______ _____ _____    ______ ____
ROOT
ATOM      1  C   UNL     1       1.140  -6.045   1.759  0.00  0.00    +0.100 A 
ATOM      2  C   UNL     1       0.185  -6.991   1.374  0.00  0.00    +0.054 A 
ATOM      3  C   UNL     1       0.668  -8.229   1.686  0.00  0.00    +0.223 A 
ATOM      4  N   UNL     1       1.883  -8.066   2.249  0.00  0.00    -0.246 N 
ATOM      5  H   UNL     1       2.462  -8.774   2.571  0.00  0.00    +0.192 HD
ATOM      6  N   UNL     1       2.165  -6.691   2.281  0.00  0.00    -0.171 NA
ATOM      7  O   UNL     1      -0.023  -9.369   1.435  0.00  0.00    -0.423 OA
ATOM      8  C   UNL     1      -1.091  -9.284   0.616  0.00  0.00    +0.200 C 
ATOM      9  C   UNL     1      -1.665  -8.118   0.246  0.00  0.00    +0.098 C 
ATOM     10  C   UNL     1      -1.159  -6.780   0.727  0.00  0.00    +0.102 C 
ENDROOT
BRANCH  10  11
ATOM     11  C   UNL     1      -2.122  -6.203   1.732  0.00  0.00    -0.035 A 
ATOM     12  C   UNL     1      -2.413  -6.901   2.889  0.00  0.00    +0.005 A 
ATOM     13  C   UNL     1      -3.297  -6.371   3.811  0.00  0.00    +0.003 A 
ATOM     14  C   UNL     1      -3.889  -5.145   3.576  0.00  0.00    -0.050 A 
ATOM     15  C   UNL     1      -3.598  -4.447   2.419  0.00  0.00    +0.003 A 
ATOM     16  C   UNL     1      -2.711  -4.974   1.499  0.00  0.00    +0.005 A 
ATOM     17  C   UNL     1      -4.853  -4.568   4.581  0.00  0.00    +0.044 C 
ENDBRANCH  10  11
BRANCH   1  21
ATOM     18  C   UNL     1       0.802  -1.825   1.306  0.00  0.00    +0.162 A 
ATOM     19  C   UNL     1       0.259  -2.671   0.351  0.00  0.00    +0.050 A 
ATOM     20  C   UNL     1       0.368  -4.039   0.495  0.00  0.00    +0.014 A 
ATOM     21  C   UNL     1       1.024  -4.573   1.603  0.00  0.00    +0.006 A 
ATOM     22  C   UNL     1       1.569  -3.724   2.563  0.00  0.00    +0.059 A 
ATOM     23  C   UNL     1       1.463  -2.353   2.411  0.00  0.00    +0.162 A 
BRANCH  23  24
ATOM     24  O   UNL     1       2.000  -1.522   3.344  0.00  0.00    -0.491 OA
ATOM     25  C   UNL     1       2.664  -2.133   4.452  0.00  0.00    +0.277 C 
ENDBRANCH  23  24
BRANCH  18  26
ATOM     26  O   UNL     1       0.693  -0.477   1.160  0.00  0.00    -0.489 OA
BRANCH  26  28
ATOM     27  C   UNL     1      -0.019   1.526   0.010  0.00  0.00    +0.048 C 
ATOM     28  C   UNL     1       0.002  -0.004   0.002  0.00  0.00    +0.226 C 
ENDBRANCH  26  28
ENDBRANCH  18  26
ENDBRANCH   1  21
BRANCH   8  29
ATOM     29  N   UNL     1      -1.626 -10.451   0.129  0.00  0.00    -0.328 N 
ATOM     30  H   UNL     1      -1.236 -11.304   0.376  0.00  0.00    +0.145 HD
ATOM     31  H   UNL     1      -2.395 -10.422  -0.463  0.00  0.00    +0.145 HD
ENDBRANCH   8  29
BRANCH   9  32
ATOM     32  C   UNL     1      -2.794  -8.152  -0.633  0.00  0.00    +0.101 C 
ATOM     33  N   UNL     1      -3.690  -8.180  -1.331  0.00  0.00    -0.191 NA
ENDBRANCH   9  32
TORSDOF 7
