REMARK  Name = ZINC14850051
REMARK  6 active torsions:
REMARK  status: ('A' for Active; 'I' for Inactive)
REMARK    1  A    between atoms: C_1  and  C_2
REMARK    2  A    between atoms: C_3  and  S_9
REMARK    3  A    between atoms: S_9  and  N_12
REMARK    4  A    between atoms: C_18  and  C_20
REMARK    5  A    between atoms: C_22  and  C_31
REMARK    6  A    between atoms: N_24  and  C_25
REMARK                            x       y       z     vdW  Elec       q    Type
REMARK                         _______ _______ _______ _____ _____    ______ ____
ROOT
ATOM      1  N   UNL     1       2.443   2.985   2.990  0.00  0.00    -0.173 NA
ATOM      2  C   UNL     1       2.558   1.556   2.667  0.00  0.00    +0.128 C 
ATOM      3  C   UNL     1       2.211   1.360   1.185  0.00  0.00    +0.125 C 
ATOM      4  N   UNL     1       0.945   2.051   0.903  0.00  0.00    -0.294 N 
ATOM      5  C   UNL     1       0.832   3.481   1.222  0.00  0.00    +0.125 C 
ATOM      6  C   UNL     1       1.177   3.676   2.708  0.00  0.00    +0.128 C 
ATOM      7  C   UNL     1      -0.092   1.386   0.357  0.00  0.00    +0.265 C 
ATOM      8  O   UNL     1       0.004   0.196   0.123  0.00  0.00    -0.268 OA
ENDROOT
BRANCH   7   9
ATOM      9  C   UNL     1      -1.338   2.100   0.039  0.00  0.00    +0.129 A 
ATOM     10  C   UNL     1      -1.464   3.445  -0.245  0.00  0.00    +0.058 A 
ATOM     11  C   UNL     1      -2.810   3.703  -0.488  0.00  0.00    +0.067 A 
ATOM     12  N   UNL     1      -3.484   2.586  -0.362  0.00  0.00    -0.170 NA
ATOM     13  N   UNL     1      -2.592   1.556  -0.037  0.00  0.00    -0.227 N 
BRANCH  13  14
ATOM     14  C   UNL     1      -2.924   0.212   0.175  0.00  0.00    +0.066 A 
ATOM     15  C   UNL     1      -2.208  -0.791  -0.466  0.00  0.00    +0.028 A 
ATOM     16  C   UNL     1      -2.534  -2.116  -0.250  0.00  0.00    +0.002 A 
ATOM     17  C   UNL     1      -3.580  -2.443   0.593  0.00  0.00    +0.000 A 
ATOM     18  C   UNL     1      -4.298  -1.447   1.228  0.00  0.00    +0.002 A 
ATOM     19  C   UNL     1      -3.973  -0.121   1.022  0.00  0.00    +0.028 A 
ENDBRANCH  13  14
BRANCH  11  20
ATOM     20  C   UNL     1      -3.397   5.046  -0.838  0.00  0.00    +0.040 C 
ATOM     21  C   UNL     1      -2.538   6.283  -0.571  0.00  0.00    +0.010 C 
ATOM     22  C   UNL     1      -3.749   5.986   0.317  0.00  0.00    +0.010 C 
ENDBRANCH  11  20
ENDBRANCH   7   9
BRANCH   1  23
ATOM     23  S   UNL     1       3.717   3.803   3.661  0.00  0.00    +0.069 S 
ATOM     24  O   UNL     1       3.161   4.849   4.446  0.00  0.00    -0.152 OA
ATOM     25  O   UNL     1       4.587   2.820   4.207  0.00  0.00    -0.152 OA
BRANCH  23  28
ATOM     26  C   UNL     1       3.982   6.910   2.870  0.00  0.00    +0.066 C 
ATOM     27  C   UNL     1       4.687   5.871   2.037  0.00  0.00    +0.050 A 
ATOM     28  C   UNL     1       4.594   4.574   2.342  0.00  0.00    +0.166 A 
ATOM     29  S   UNL     1       5.597   3.827   1.068  0.00  0.00    -0.007 S 
ATOM     30  C   UNL     1       6.050   5.277   0.229  0.00  0.00    +0.290 A 
ATOM     31  O   UNL     1       6.752   5.400  -0.759  0.00  0.00    -0.260 OA
ATOM     32  N   UNL     1       5.431   6.235   0.955  0.00  0.00    -0.318 N 
ATOM     33  H   UNL     1       5.517   7.170   0.710  0.00  0.00    +0.169 HD
ENDBRANCH  23  28
ENDBRANCH   1  23
TORSDOF 5
