REMARK  Name = ZINC62198141
REMARK  4 active torsions:
REMARK  status: ('A' for Active; 'I' for Inactive)
REMARK    1  A    between atoms: C_1  and  C_2
REMARK    2  A    between atoms: C_2  and  C_3
REMARK    3  A    between atoms: C_11  and  O_21
REMARK    4  A    between atoms: C_13  and  N_15
REMARK                            x       y       z     vdW  Elec       q    Type
REMARK                         _______ _______ _______ _____ _____    ______ ____
ROOT
ATOM      1  C   UNL     1       0.782  -0.609  -0.986  0.00  0.00    -0.004 A 
ATOM      2  C   UNL     1      -0.018  -0.990  -2.044  0.00  0.00    +0.027 A 
ATOM      3  C   UNL     1       0.559  -1.435  -3.221  0.00  0.00    +0.042 A 
ATOM      4  C   UNL     1       1.936  -1.494  -3.335  0.00  0.00    +0.029 A 
ATOM      5  C   UNL     1       2.742  -1.111  -2.276  0.00  0.00    +0.016 A 
ATOM      6  C   UNL     1       2.167  -0.665  -1.099  0.00  0.00    +0.129 A 
ATOM      7  O   UNL     1       2.920  -0.286  -0.033  0.00  0.00    -0.489 OA
ATOM      8  C   UNL     1       4.299   0.009  -0.261  0.00  0.00    +0.262 C 
ATOM      9  C   UNL     1       4.912  -1.141  -1.070  0.00  0.00    +0.173 C 
ATOM     10  C   UNL     1       4.239  -1.184  -2.441  0.00  0.00    +0.122 C 
ATOM     11 CL   UNL     1      -0.444  -1.918  -4.552  0.00  0.00    -0.084 Cl
ENDROOT
BRANCH  10  12
ATOM     12  N   UNL     1       4.594  -2.431  -3.132  0.00  0.00    -0.289 NA
ATOM     13  C   UNL     1       5.882  -2.952  -2.651  0.00  0.00    +0.113 C 
ATOM     14  C   UNL     1       6.184  -4.278  -3.353  0.00  0.00    +0.175 C 
ATOM     15  O   UNL     1       6.177  -4.075  -4.769  0.00  0.00    -0.377 OA
ATOM     16  C   UNL     1       4.938  -3.569  -5.271  0.00  0.00    +0.175 C 
ATOM     17  C   UNL     1       4.623  -2.235  -4.589  0.00  0.00    +0.113 C 
ENDBRANCH  10  12
BRANCH   1  19
ATOM     18  C   UNL     1       0.066   1.404   0.273  0.00  0.00    +0.009 C 
ATOM     19  C   UNL     1       0.151  -0.123   0.294  0.00  0.00    +0.035 C 
ENDBRANCH   1  19
BRANCH   9  20
ATOM     20  O   UNL     1       4.688  -2.380  -0.393  0.00  0.00    -0.387 OA
ATOM     21  H   UNL     1       5.074  -2.419   0.493  0.00  0.00    +0.210 HD
ENDBRANCH   9  20
TORSDOF 3
