REMARK  Name = ZINC14201265
REMARK  6 active torsions:
REMARK  status: ('A' for Active; 'I' for Inactive)
REMARK    1  A    between atoms: C_4  and  C_7
REMARK    2  A    between atoms: C_7  and  C_8
REMARK    3  A    between atoms: C_8  and  C_9
REMARK    4  A    between atoms: C_14  and  N_15
REMARK    5  A    between atoms: C_14  and  N_55
REMARK    6  A    between atoms: C_19  and  C_21
REMARK                            x       y       z     vdW  Elec       q    Type
REMARK                         _______ _______ _______ _____ _____    ______ ____
ROOT
ATOM      1  C   UNL     1      -4.260  -0.072   1.464  0.00  0.00    -0.014 C 
ATOM      2  C   UNL     1      -5.372   0.794   0.867  0.00  0.00    -0.015 C 
ATOM      3  C   UNL     1      -6.696   0.029   0.929  0.00  0.00    -0.076 C 
ATOM      4  C   UNL     1      -5.975  -1.177   2.904  0.00  0.00    -0.076 C 
ATOM      5  C   UNL     1      -4.630  -0.447   2.902  0.00  0.00    -0.015 C 
ATOM      6  N   UNL     1      -7.007  -0.280   2.341  0.00  0.00    +0.393 N 
ATOM      7  H   UNL     1      -7.018   0.594   2.879  0.00  0.00    -0.079 HD
ENDROOT
BRANCH   1   8
ATOM      8  C   UNL     1      -2.945   0.711   1.462  0.00  0.00    +0.008 C 
BRANCH   8   9
ATOM      9  C   UNL     1      -2.514   0.980   0.019  0.00  0.00    +0.035 C 
BRANCH   9  13
ATOM     10  C   UNL     1       1.156   3.165   0.008  0.00  0.00    +0.000 A 
ATOM     11  C   UNL     1       1.175   1.783   0.000  0.00  0.00    +0.000 A 
ATOM     12  C   UNL     1      -0.013   1.076   0.008  0.00  0.00    +0.003 A 
ATOM     13  C   UNL     1      -1.219   1.751   0.017  0.00  0.00    -0.047 A 
ATOM     14  C   UNL     1      -1.238   3.133   0.030  0.00  0.00    +0.003 A 
ATOM     15  C   UNL     1      -0.050   3.840   0.022  0.00  0.00    +0.000 A 
ENDBRANCH   9  13
ENDBRANCH   8   9
ENDBRANCH   1   8
BRANCH   6  16
ATOM     16  C   UNL     1      -8.336  -0.919   2.437  0.00  0.00    +0.073 C 
BRANCH  16  17
ATOM     17  N   UNL     1      -9.359   0.065   2.073  0.00  0.00    -0.240 N 
ATOM     18  C   UNL     1      -9.987   0.921   2.908  0.00  0.00    +0.265 A 
ATOM     19  S   UNL     1      -9.735   1.061   4.596  0.00  0.00    +0.011 S 
ATOM     20  O   UNL     1     -10.843   1.645   2.167  0.00  0.00    -0.416 OA
ATOM     21  C   UNL     1     -10.759   1.239   0.884  0.00  0.00    +0.221 A 
ATOM     22  N   UNL     1      -9.881   0.295   0.792  0.00  0.00    -0.136 NA
BRANCH  21  23
ATOM     23  C   UNL     1     -11.562   1.799  -0.262  0.00  0.00    +0.099 C 
ATOM     24  C   UNL     1     -11.299   3.308  -0.391  0.00  0.00    +0.037 C 
ATOM     25  C   UNL     1     -12.343   3.946  -1.339  0.00  0.00    +0.166 C 
ATOM     26  S   UNL     1     -13.800   2.842  -1.137  0.00  0.00    -0.030 S 
ATOM     27  O   UNL     1     -14.082   2.217  -2.382  0.00  0.00    -0.174 OA
ATOM     28  O   UNL     1     -14.829   3.552  -0.462  0.00  0.00    -0.174 OA
ATOM     29  C   UNL     1     -13.079   1.593   0.011  0.00  0.00    +0.178 C 
ENDBRANCH  21  23
ENDBRANCH  16  17
ENDBRANCH   6  16
TORSDOF 6
