REMARK  Name = ZINC67302260
REMARK  9 active torsions:
REMARK  status: ('A' for Active; 'I' for Inactive)
REMARK    1  A    between atoms: C_1  and  C_2
REMARK    2  A    between atoms: C_2  and  C_3
REMARK    3  A    between atoms: C_2  and  N_4
REMARK    4  A    between atoms: C_13  and  C_15
REMARK    5  A    between atoms: C_16  and  C_24
REMARK    6  A    between atoms: C_24  and  O_25
REMARK    7  A    between atoms: O_25  and  C_26
REMARK    8  A    between atoms: C_26  and  C_27
REMARK    9  A    between atoms: C_26  and  C_28
REMARK                            x       y       z     vdW  Elec       q    Type
REMARK                         _______ _______ _______ _____ _____    ______ ____
ROOT
ATOM      1  N   UNL     1      -1.524  -1.014  -4.253  0.00  0.00    -0.297 N 
ATOM      2  C   UNL     1      -2.408  -0.396  -3.445  0.00  0.00    +0.302 C 
ATOM      3  O   UNL     1      -2.086   0.616  -2.853  0.00  0.00    -0.253 OA
ATOM      4  N   UNL     1      -3.649  -0.899  -3.294  0.00  0.00    -0.283 N 
ATOM      5  C   UNL     1      -4.002  -2.203  -3.872  0.00  0.00    +0.128 C 
ATOM      6  C   UNL     1      -4.547  -3.102  -2.755  0.00  0.00    +0.127 C 
ATOM      7  N   UNL     1      -5.571  -2.357  -2.009  0.00  0.00    -0.292 N 
ATOM      8  C   UNL     1      -5.217  -1.052  -1.432  0.00  0.00    +0.127 C 
ATOM      9  C   UNL     1      -4.671  -0.156  -2.544  0.00  0.00    +0.128 C 
ATOM     10  C   UNL     1      -6.812  -2.860  -1.858  0.00  0.00    +0.282 C 
ATOM     11  O   UNL     1      -7.689  -2.177  -1.364  0.00  0.00    -0.267 OA
ATOM     12  H   UNL     1      -1.756  -1.858  -4.670  0.00  0.00    +0.150 HD
ENDROOT
BRANCH  10  13
ATOM     13  C   UNL     1      -7.106  -4.234  -2.290  0.00  0.00    +0.196 A 
ATOM     14  C   UNL     1      -8.342  -4.796  -2.322  0.00  0.00    +0.036 A 
ATOM     15  C   UNL     1      -8.154  -6.160  -2.814  0.00  0.00    +0.026 A 
ATOM     16  C   UNL     1      -9.014  -7.231  -3.069  0.00  0.00    +0.012 A 
ATOM     17  C   UNL     1      -8.508  -8.410  -3.538  0.00  0.00    +0.001 A 
ATOM     18  C   UNL     1      -7.145  -8.550  -3.762  0.00  0.00    +0.004 A 
ATOM     19  C   UNL     1      -6.279  -7.507  -3.517  0.00  0.00    +0.047 A 
ATOM     20  C   UNL     1      -6.771  -6.297  -3.040  0.00  0.00    +0.136 A 
ATOM     21  O   UNL     1      -6.189  -5.125  -2.720  0.00  0.00    -0.450 OA
BRANCH  14  22
ATOM     22  C   UNL     1      -9.643  -4.145  -1.930  0.00  0.00    +0.200 C 
BRANCH  22  23
ATOM     23  O   UNL     1     -10.219  -3.506  -3.072  0.00  0.00    -0.372 OA
BRANCH  23  24
ATOM     24  C   UNL     1     -11.463  -2.855  -2.807  0.00  0.00    +0.113 C 
ATOM     25  C   UNL     1     -11.621  -1.657  -3.746  0.00  0.00    +0.037 C 
ATOM     26  C   UNL     1     -12.613  -3.838  -3.037  0.00  0.00    +0.037 C 
ENDBRANCH  23  24
ENDBRANCH  22  23
ENDBRANCH  14  22
ENDBRANCH  10  13
BRANCH   1  28
ATOM     27  C   UNL     1       0.788  -1.503  -4.885  0.00  0.00    +0.027 C 
ATOM     28  C   UNL     1      -0.212  -0.410  -4.501  0.00  0.00    +0.068 C 
ATOM     29  C   UNL     1      -0.324   0.602  -5.643  0.00  0.00    +0.027 C 
ENDBRANCH   1  28
TORSDOF 5
