REMARK  Name = ZINC67229913
REMARK  11 active torsions:
REMARK  status: ('A' for Active; 'I' for Inactive)
REMARK    1  A    between atoms: C_1  and  C_2
REMARK    2  A    between atoms: C_2  and  C_3
REMARK    3  A    between atoms: C_2  and  C_4
REMARK    4  A    between atoms: C_2  and  C_5
REMARK    5  A    between atoms: N_11  and  C_14
REMARK    6  A    between atoms: C_14  and  C_15
REMARK    7  A    between atoms: C_21  and  O_23
REMARK    8  A    between atoms: O_23  and  C_24
REMARK    9  A    between atoms: C_24  and  C_25
REMARK   10  A    between atoms: C_24  and  C_26
REMARK   11  A    between atoms: C_24  and  C_27
REMARK                            x       y       z     vdW  Elec       q    Type
REMARK                         _______ _______ _______ _____ _____    ______ ____
ROOT
ATOM      1  C   UNL     1       1.717  -2.326  -0.380  0.00  0.00    +0.221 C 
ATOM      2  O   UNL     1       2.591  -1.817  -1.049  0.00  0.00    -0.275 OA
ATOM      3  N   UNL     1       1.408  -3.626  -0.552  0.00  0.00    -0.303 N 
ATOM      4  C   UNL     1       0.279  -4.197   0.210  0.00  0.00    +0.106 C 
ATOM      5  C   UNL     1      -0.567  -5.133  -0.672  0.00  0.00    +0.000 C 
ATOM      6  C   UNL     1      -0.701  -4.537  -2.056  0.00  0.00    -0.077 C 
ATOM      7  N   UNL     1       0.352  -5.072  -2.916  0.00  0.00    +0.382 N 
ATOM      8  C   UNL     1       1.566  -4.350  -2.889  0.00  0.00    -0.060 C 
ATOM      9  C   UNL     1       2.192  -4.413  -1.481  0.00  0.00    +0.089 C 
ATOM     10  H   UNL     1       0.540  -6.022  -2.635  0.00  0.00    -0.082 HD
ENDROOT
BRANCH   1  12
ATOM     11  C   UNL     1       1.649  -0.138   0.784  0.00  0.00    +0.020 C 
ATOM     12  C   UNL     1       0.976  -1.504   0.643  0.00  0.00    +0.039 C 
ATOM     13  C   UNL     1       0.999  -2.226   1.991  0.00  0.00    +0.020 C 
ATOM     14  C   UNL     1      -0.474  -1.314   0.191  0.00  0.00    +0.020 C 
ENDBRANCH   1  12
BRANCH   7  15
ATOM     15  C   UNL     1      -0.144  -5.092  -4.298  0.00  0.00    -0.056 C 
BRANCH  15  16
ATOM     16  C   UNL     1       0.889  -5.769  -5.201  0.00  0.00    +0.063 C 
ATOM     17  C   UNL     1       1.064  -7.255  -4.800  0.00  0.00    +0.022 C 
ATOM     18  C   UNL     1       1.589  -7.875  -6.122  0.00  0.00    +0.021 C 
ATOM     19  C   UNL     1       0.829  -7.078  -7.203  0.00  0.00    +0.111 C 
ATOM     20  N   UNL     1       0.408  -5.806  -6.594  0.00  0.00    -0.266 N 
ATOM     21  C   UNL     1      -0.300  -4.836  -7.206  0.00  0.00    +0.404 C 
ATOM     22  O   UNL     1      -0.515  -3.787  -6.632  0.00  0.00    -0.226 OA
BRANCH  21  23
ATOM     23  O   UNL     1      -0.770  -5.031  -8.452  0.00  0.00    -0.445 OA
BRANCH  23  24
ATOM     24  C   UNL     1      -1.452  -3.935  -9.067  0.00  0.00    +0.107 C 
ATOM     25  C   UNL     1      -0.517  -2.726  -9.133  0.00  0.00    +0.055 C 
ATOM     26  C   UNL     1      -1.878  -4.329 -10.483  0.00  0.00    +0.055 C 
ATOM     27  C   UNL     1      -2.690  -3.578  -8.242  0.00  0.00    +0.055 C 
ENDBRANCH  23  24
ENDBRANCH  21  23
ENDBRANCH  15  16
ENDBRANCH   7  15
TORSDOF 5
