REMARK  Name = ZINC05513680
REMARK  2 active torsions:
REMARK  status: ('A' for Active; 'I' for Inactive)
REMARK    1  A    between atoms: C_6  and  N_7
REMARK    2  A    between atoms: N_10  and  C_11
REMARK                            x       y       z     vdW  Elec       q    Type
REMARK                         _______ _______ _______ _____ _____    ______ ____
ROOT
ATOM      1  N   UNL     1       0.867   1.683   4.623  0.00  0.00    -0.269 N 
ATOM      2  C   UNL     1      -0.057   1.579   3.647  0.00  0.00    +0.304 C 
ATOM      3  O   UNL     1      -1.226   1.403   3.932  0.00  0.00    -0.252 OA
ATOM      4  N   UNL     1       0.316   1.669   2.355  0.00  0.00    -0.293 N 
ATOM      5  H   UNL     1       1.807   1.756   4.396  0.00  0.00    +0.156 HD
ATOM      6  H   UNL     1       1.248   1.809   2.127  0.00  0.00    +0.151 HD
ENDROOT
BRANCH   4   7
ATOM      7  C   UNL     1      -0.688   1.555   1.294  0.00  0.00    +0.115 C 
ATOM      8  C   UNL     1      -1.350   2.941   1.068  0.00  0.00    +0.189 C 
ATOM      9  S   UNL     1      -2.031   2.681  -0.628  0.00  0.00    -0.028 S 
ATOM     10  O   UNL     1      -1.990   3.909  -1.342  0.00  0.00    -0.174 OA
ATOM     11  O   UNL     1      -3.253   1.962  -0.536  0.00  0.00    -0.174 OA
ATOM     12  C   UNL     1      -0.717   1.563  -1.271  0.00  0.00    +0.187 C 
ATOM     13  C   UNL     1      -0.014   1.073   0.010  0.00  0.00    +0.123 C 
ATOM     14 CL   UNL     1       1.690   1.661  -0.004  0.00  0.00    -0.118 Cl
ENDBRANCH   4   7
BRANCH   1  20
ATOM     15  C   UNL     1       1.156   2.459   6.893  0.00  0.00    +0.025 A 
ATOM     16  C   UNL     1       0.758   2.466   8.215  0.00  0.00    +0.022 A 
ATOM     17  C   UNL     1      -0.318   1.694   8.619  0.00  0.00    +0.041 A 
ATOM     18  C   UNL     1      -1.001   0.919   7.698  0.00  0.00    +0.022 A 
ATOM     19  C   UNL     1      -0.610   0.914   6.373  0.00  0.00    +0.025 A 
ATOM     20  C   UNL     1       0.469   1.687   5.965  0.00  0.00    +0.035 A 
ATOM     21 CL   UNL     1      -0.811   1.699  10.283  0.00  0.00    -0.084 Cl
ENDBRANCH   1  20
TORSDOF 2
