REMARK  Name = ZINC38187782
REMARK  0 active torsions:
REMARK  status: ('A' for Active; 'I' for Inactive)
REMARK                            x       y       z     vdW  Elec       q    Type
REMARK                         _______ _______ _______ _____ _____    ______ ____
ROOT
ATOM      1  C   UNL     1      -0.021   1.318   0.592  0.00  0.00    +0.030 A 
ATOM      2  C   UNL     1       1.167   1.996   0.783  0.00  0.00    +0.043 A 
ATOM      3  C   UNL     1       2.375   1.329   0.655  0.00  0.00    +0.042 A 
ATOM      4  C   UNL     1       2.406  -0.015   0.335  0.00  0.00    +0.064 A 
ATOM      5  C   UNL     1       1.220  -0.714   0.139  0.00  0.00    +0.060 A 
ATOM      6  C   UNL     1       0.000  -0.036   0.270  0.00  0.00    +0.012 A 
ATOM      7  C   UNL     1      -1.061  -1.030   0.007  0.00  0.00    +0.065 C 
ATOM      8  C   UNL     1      -2.428  -0.825   0.020  0.00  0.00    +0.090 C 
ATOM      9  C   UNL     1      -3.190   0.447   0.128  0.00  0.00    +0.257 C 
ATOM     10  O   UNL     1      -2.628   1.521   0.222  0.00  0.00    -0.269 OA
ATOM     11  N   UNL     1      -4.509   0.352   0.115  0.00  0.00    -0.261 N 
ATOM     12  C   UNL     1      -5.125  -0.878   0.007  0.00  0.00    +0.158 C 
ATOM     13  N   UNL     1      -6.400  -1.144  -0.020  0.00  0.00    -0.279 NA
ATOM     14  S   UNL     1      -3.754  -2.017  -0.094  0.00  0.00    -0.049 S 
ATOM     15  C   UNL     1      -0.345  -2.290  -0.275  0.00  0.00    +0.250 C 
ATOM     16  O   UNL     1      -0.857  -3.361  -0.543  0.00  0.00    -0.270 OA
ATOM     17  N   UNL     1       0.973  -2.045  -0.185  0.00  0.00    -0.280 N 
ATOM     18 CL   UNL     1       3.930  -0.833   0.178  0.00  0.00    -0.082 Cl
ATOM     19 CL   UNL     1       1.148   3.684   1.185  0.00  0.00    -0.083 Cl
ATOM     20  H   UNL     1      -5.049   1.155   0.183  0.00  0.00    +0.157 HD
ATOM     21  H   UNL     1      -7.047  -0.424   0.040  0.00  0.00    +0.189 HD
ATOM     22  H   UNL     1       1.665  -2.710  -0.327  0.00  0.00    +0.155 HD
ENDROOT
TORSDOF 0
