REMARK  Name = ZINC23248731
REMARK  9 active torsions:
REMARK  status: ('A' for Active; 'I' for Inactive)
REMARK    1  A    between atoms: C_1  and  C_2
REMARK    2  A    between atoms: C_2  and  C_3
REMARK    3  A    between atoms: C_6  and  N_9
REMARK    4  A    between atoms: C_12  and  C_15
REMARK    5  A    between atoms: C_15  and  N_16
REMARK    6  A    between atoms: N_19  and  C_22
REMARK    7  A    between atoms: C_22  and  C_23
REMARK    8  A    between atoms: C_24  and  C_25
REMARK    9  A    between atoms: C_31  and  C_33
REMARK                            x       y       z     vdW  Elec       q    Type
REMARK                         _______ _______ _______ _____ _____    ______ ____
ROOT
ATOM      1  N   UNL     1       1.350   3.234   0.071  0.00  0.00    -0.219 N 
ATOM      2  C   UNL     1       1.140   1.992  -0.519  0.00  0.00    +0.172 A 
ATOM      3  N   UNL     1       0.010   1.329  -0.673  0.00  0.00    -0.228 NA
ATOM      4  C   UNL     1      -0.015   0.149  -1.261  0.00  0.00    +0.064 A 
ATOM      5  C   UNL     1       1.153  -0.374  -1.709  0.00  0.00    +0.073 A 
ATOM      6  S   UNL     1       2.296   0.917  -1.242  0.00  0.00    -0.060 S 
ATOM      7  C   UNL     1       0.301   3.966   0.495  0.00  0.00    +0.223 C 
ATOM      8  O   UNL     1      -0.820   3.503   0.446  0.00  0.00    -0.275 OA
ATOM      9  C   UNL     1       0.519   5.357   1.030  0.00  0.00    +0.110 C 
ENDROOT
BRANCH   1  13
ATOM     10  C   UNL     1       5.227   4.694   0.528  0.00  0.00    -0.048 A 
ATOM     11  C   UNL     1       4.688   3.855   1.487  0.00  0.00    +0.005 A 
ATOM     12  C   UNL     1       3.404   3.370   1.338  0.00  0.00    +0.024 A 
ATOM     13  C   UNL     1       2.653   3.724   0.225  0.00  0.00    +0.043 A 
ATOM     14  C   UNL     1       3.200   4.562  -0.739  0.00  0.00    +0.024 A 
ATOM     15  C   UNL     1       4.482   5.049  -0.582  0.00  0.00    +0.005 A 
BRANCH  10  17
ATOM     16  C   UNL     1       7.618   4.257   0.039  0.00  0.00    +0.009 C 
ATOM     17  C   UNL     1       6.628   5.222   0.694  0.00  0.00    +0.032 C 
ENDBRANCH  10  17
ENDBRANCH   1  13
BRANCH   4  18
ATOM     18  C   UNL     1      -1.311  -0.600  -1.433  0.00  0.00    +0.140 C 
BRANCH  18  19
ATOM     19  N   UNL     1      -1.598  -1.367  -0.213  0.00  0.00    -0.300 NA
ATOM     20  C   UNL     1      -0.606  -2.433  -0.015  0.00  0.00    +0.066 C 
ATOM     21  C   UNL     1      -0.893  -3.155   1.303  0.00  0.00    -0.063 C 
ATOM     22  N   UNL     1      -2.255  -3.707   1.270  0.00  0.00    +0.384 N 
ATOM     23  C   UNL     1      -3.247  -2.641   1.072  0.00  0.00    -0.063 C 
ATOM     24  C   UNL     1      -2.960  -1.919  -0.246  0.00  0.00    +0.066 C 
ATOM     25  H   UNL     1      -2.322  -4.396   0.415  0.00  0.00    -0.081 HD
BRANCH  22  26
ATOM     26  C   UNL     1      -2.542  -4.474   2.490  0.00  0.00    -0.051 C 
BRANCH  26  27
ATOM     27  C   UNL     1      -1.383  -5.387   2.793  0.00  0.00    -0.045 C 
ATOM     28  C   UNL     1      -0.792  -5.336   3.979  0.00  0.00    +0.002 C 
BRANCH  28  29
ATOM     29  C   UNL     1       0.345  -6.232   4.276  0.00  0.00    -0.025 A 
ATOM     30  C   UNL     1       0.795  -7.137   3.314  0.00  0.00    +0.008 A 
ATOM     31  C   UNL     1       1.861  -7.967   3.596  0.00  0.00    +0.001 A 
ATOM     32  C   UNL     1       2.475  -7.912   4.835  0.00  0.00    +0.000 A 
ATOM     33  C   UNL     1       2.031  -7.021   5.795  0.00  0.00    +0.001 A 
ATOM     34  C   UNL     1       0.970  -6.181   5.523  0.00  0.00    +0.008 A 
ENDBRANCH  28  29
ENDBRANCH  26  27
ENDBRANCH  22  26
ENDBRANCH  18  19
ENDBRANCH   4  18
TORSDOF 7
