REMARK  Name = ZINC20178608
REMARK  3 active torsions:
REMARK  status: ('A' for Active; 'I' for Inactive)
REMARK    1  A    between atoms: C_5  and  C_7
REMARK    2  A    between atoms: C_7  and  C_9
REMARK    3  A    between atoms: C_7  and  N_11
REMARK                            x       y       z     vdW  Elec       q    Type
REMARK                         _______ _______ _______ _____ _____    ______ ____
ROOT
ATOM      1  C   UNL     1       2.452   3.936  -0.001  0.00  0.00    +0.192 C 
ENDROOT
BRANCH   1   2
ATOM      2  N   UNL     1       3.619   3.135   0.394  0.00  0.00    -0.283 NA
ATOM      3  C   UNL     1       3.781   1.972  -0.488  0.00  0.00    +0.091 C 
ATOM      4  C   UNL     1       4.909   1.083   0.040  0.00  0.00    +0.080 C 
ATOM      5  C   UNL     1       6.205   1.895   0.100  0.00  0.00    +0.172 C 
ATOM      6  C   UNL     1       5.997   3.130   0.980  0.00  0.00    +0.080 C 
ATOM      7  C   UNL     1       4.835   3.956   0.422  0.00  0.00    +0.091 C 
ATOM      8  O   UNL     1       7.254   1.084   0.652  0.00  0.00    -0.346 OA
ATOM      9  C   UNL     1       7.947   0.542  -0.498  0.00  0.00    +0.191 C 
ATOM     10  C   UNL     1       7.872   1.724  -1.496  0.00  0.00    +0.191 C 
ATOM     11  O   UNL     1       6.580   2.302  -1.221  0.00  0.00    -0.346 OA
ENDBRANCH   1   2
BRANCH   1  16
ATOM     12  C   UNL     1       2.312   5.708   3.330  0.00  0.00    +0.000 A 
ATOM     13  C   UNL     1       1.668   6.884   2.990  0.00  0.00    +0.001 A 
ATOM     14  C   UNL     1       1.287   7.111   1.682  0.00  0.00    +0.020 A 
ATOM     15  C   UNL     1       1.539   6.155   0.713  0.00  0.00    +0.047 A 
ATOM     16  C   UNL     1       2.178   4.977   1.054  0.00  0.00    +0.002 A 
ATOM     17  C   UNL     1       2.564   4.754   2.362  0.00  0.00    +0.007 A 
ATOM     18 CL   UNL     1       1.053   6.436  -0.930  0.00  0.00    -0.083 Cl
ENDBRANCH   1  16
BRANCH   1  19
ATOM     19  C   UNL     1       1.279   3.058  -0.141  0.00  0.00    +0.086 C 
ATOM     20  N   UNL     1       0.373   2.381  -0.249  0.00  0.00    -0.195 NA
ENDBRANCH   1  19
TORSDOF 3
