REMARK  Name = ZINC60361393
REMARK  8 active torsions:
REMARK  status: ('A' for Active; 'I' for Inactive)
REMARK    1  A    between atoms: C_1  and  C_2
REMARK    2  A    between atoms: C_2  and  O_3
REMARK    3  A    between atoms: O_3  and  C_4
REMARK    4  A    between atoms: C_4  and  C_6
REMARK    5  A    between atoms: C_7  and  C_35
REMARK    6  A    between atoms: C_13  and  C_17
REMARK    7  A    between atoms: C_17  and  C_19
REMARK    8  A    between atoms: C_17  and  N_20
REMARK                            x       y       z     vdW  Elec       q    Type
REMARK                         _______ _______ _______ _____ _____    ______ ____
ROOT
ATOM      1  C   UNL     1       4.420  -4.331  -7.734  0.00  0.00    -0.003 C 
ATOM      2  C   UNL     1       3.706  -5.311  -8.668  0.00  0.00    -0.005 C 
ENDROOT
BRANCH   1   3
ATOM      3  N   UNL     1       4.434  -2.995  -8.345  0.00  0.00    +0.391 N 
ATOM      4  C   UNL     1       5.209  -2.088  -7.496  0.00  0.00    -0.041 C 
ATOM      5  C   UNL     1       5.562  -0.819  -8.218  0.00  0.00    -0.056 A 
ATOM      6  C   UNL     1       4.871   0.350  -7.986  0.00  0.00    +0.002 A 
ATOM      7  C   UNL     1       5.230   1.509  -8.652  0.00  0.00    +0.000 A 
ATOM      8  C   UNL     1       6.282   1.504  -9.551  0.00  0.00    +0.001 A 
ATOM      9  C   UNL     1       6.978   0.336  -9.797  0.00  0.00    +0.009 A 
ATOM     10  C   UNL     1       6.613  -0.829  -9.137  0.00  0.00    -0.016 A 
ATOM     11  C   UNL     1       7.295  -2.120  -9.401  0.00  0.00    -0.016 A 
ATOM     12  C   UNL     1       8.679  -2.225  -9.408  0.00  0.00    +0.009 A 
ATOM     13  C   UNL     1       9.267  -3.454  -9.640  0.00  0.00    +0.001 A 
ATOM     14  C   UNL     1       8.479  -4.570  -9.861  0.00  0.00    +0.000 A 
ATOM     15  C   UNL     1       7.099  -4.466  -9.862  0.00  0.00    +0.002 A 
ATOM     16  C   UNL     1       6.502  -3.243  -9.642  0.00  0.00    -0.056 A 
ATOM     17  C   UNL     1       5.008  -3.088  -9.688  0.00  0.00    -0.041 C 
ATOM     18  H   UNL     1       3.487  -2.653  -8.413  0.00  0.00    -0.080 HD
ENDBRANCH   1   3
BRANCH   1  26
ATOM     19  C   UNL     1       1.310  -2.593  -2.508  0.00  0.00    +0.102 A 
ATOM     20  C   UNL     1       1.673  -3.872  -2.817  0.00  0.00    -0.015 A 
ATOM     21  C   UNL     1       2.360  -4.132  -4.005  0.00  0.00    +0.076 A 
ATOM     22  C   UNL     1       2.848  -5.423  -4.540  0.00  0.00    +0.260 A 
ATOM     23  O   UNL     1       2.672  -6.461  -3.926  0.00  0.00    -0.267 OA
ATOM     24  N   UNL     1       3.493  -5.421  -5.723  0.00  0.00    -0.312 N 
ATOM     25  H   UNL     1       3.819  -6.259  -6.088  0.00  0.00    +0.170 HD
ATOM     26  C   UNL     1       3.693  -4.273  -6.415  0.00  0.00    +0.097 A 
ATOM     27  N   UNL     1       3.275  -3.118  -5.973  0.00  0.00    -0.228 NA
ATOM     28  C   UNL     1       2.630  -3.008  -4.818  0.00  0.00    +0.116 A 
ATOM     29  S   UNL     1       1.919  -1.663  -3.905  0.00  0.00    -0.062 S 
ATOM     30  C   UNL     1       1.335  -5.001  -1.878  0.00  0.00    +0.046 C 
BRANCH  19  31
ATOM     31  C   UNL     1       0.593  -2.106  -1.328  0.00  0.00    +0.346 C 
ATOM     32  O   UNL     1       0.247  -2.887  -0.462  0.00  0.00    -0.244 OA
BRANCH  31  33
ATOM     33  O   UNL     1       0.317  -0.792  -1.201  0.00  0.00    -0.461 OA
BRANCH  33  35
ATOM     34  C   UNL     1      -0.607   1.126  -0.057  0.00  0.00    +0.048 C 
ATOM     35  C   UNL     1      -0.385  -0.387  -0.024  0.00  0.00    +0.229 C 
ENDBRANCH  33  35
ENDBRANCH  31  33
ENDBRANCH  19  31
ENDBRANCH   1  26
TORSDOF 5
