REMARK  Name = ZINC42360714
REMARK  4 active torsions:
REMARK  status: ('A' for Active; 'I' for Inactive)
REMARK    1  A    between atoms: C_4  and  S_9
REMARK    2  A    between atoms: C_5  and  C_7
REMARK    3  A    between atoms: S_9  and  N_12
REMARK    4  A    between atoms: C_15  and  C_18
REMARK                            x       y       z     vdW  Elec       q    Type
REMARK                         _______ _______ _______ _____ _____    ______ ____
ROOT
ATOM      1  S   UNL     1       3.962  -0.804  -0.042  0.00  0.00    +0.102 S 
ATOM      2  O   UNL     1       3.877  -1.780  -1.072  0.00  0.00    -0.146 OA
ATOM      3  O   UNL     1       4.972   0.195  -0.020  0.00  0.00    -0.146 OA
ENDROOT
BRANCH   1   4
ATOM      4  N   UNL     1       4.085  -1.634   1.386  0.00  0.00    -0.103 NA
ATOM      5  C   UNL     1       5.150  -2.356   1.635  0.00  0.00    +0.192 A 
ATOM      6  N   UNL     1       5.449  -3.119   2.743  0.00  0.00    -0.336 N 
ATOM      7  C   UNL     1       6.636  -3.790   2.769  0.00  0.00    +0.028 A 
ATOM      8  C   UNL     1       7.480  -3.701   1.741  0.00  0.00    +0.070 A 
ATOM      9  S   UNL     1       6.599  -2.622   0.624  0.00  0.00    -0.057 S 
ATOM     10  H   UNL     1       4.829  -3.178   3.486  0.00  0.00    +0.168 HD
BRANCH   7  11
ATOM     11  C   UNL     1       6.996  -4.634   3.965  0.00  0.00    +0.036 C 
ATOM     12  C   UNL     1       6.090  -4.539   5.194  0.00  0.00    +0.010 C 
ATOM     13  C   UNL     1       6.062  -5.793   4.318  0.00  0.00    +0.010 C 
ENDBRANCH   7  11
ENDBRANCH   1   4
BRANCH   1  17
ATOM     14  C   UNL     1      -0.017   1.375   0.010  0.00  0.00    +0.001 A 
ATOM     15  C   UNL     1       1.170   2.086   0.002  0.00  0.00    +0.002 A 
ATOM     16  C   UNL     1       2.383   1.421  -0.013  0.00  0.00    +0.030 A 
ATOM     17  C   UNL     1       2.416   0.041  -0.021  0.00  0.00    +0.130 A 
ATOM     18  C   UNL     1       1.223  -0.682  -0.013  0.00  0.00    +0.079 A 
ATOM     19  C   UNL     1       0.002  -0.004   0.002  0.00  0.00    +0.021 A 
BRANCH  18  20
ATOM     20  C   UNL     1       1.250  -2.114  -0.022  0.00  0.00    +0.101 C 
ATOM     21  N   UNL     1       1.271  -3.250  -0.029  0.00  0.00    -0.191 NA
ENDBRANCH  18  20
ENDBRANCH   1  17
TORSDOF 4
