REMARK  Name = ZINC02876856
REMARK  10 active torsions:
REMARK  status: ('A' for Active; 'I' for Inactive)
REMARK    1  A    between atoms: C_1  and  C_2
REMARK    2  A    between atoms: C_2  and  C_3
REMARK    3  A    between atoms: C_2  and  C_4
REMARK    4  A    between atoms: C_2  and  C_5
REMARK    5  A    between atoms: C_12  and  N_16
REMARK    6  A    between atoms: C_13  and  C_14
REMARK    7  A    between atoms: C_17  and  C_19
REMARK    8  A    between atoms: C_19  and  S_20
REMARK    9  A    between atoms: S_20  and  C_21
REMARK   10  A    between atoms: N_25  and  C_26
REMARK                            x       y       z     vdW  Elec       q    Type
REMARK                         _______ _______ _______ _____ _____    ______ ____
ROOT
ATOM      1  N   UNL     1      -0.242   1.246   2.466  0.00  0.00    -0.278 N 
ATOM      2  C   UNL     1      -0.718   1.572   1.248  0.00  0.00    +0.228 C 
ATOM      3  O   UNL     1      -1.715   2.256   1.150  0.00  0.00    -0.275 OA
ATOM      4  H   UNL     1       0.555   0.699   2.544  0.00  0.00    +0.155 HD
ENDROOT
BRANCH   1  11
ATOM      5  C   UNL     1      -3.419   2.974   7.738  0.00  0.00    -0.000 C 
ATOM      6  C   UNL     1      -1.955   2.985   8.188  0.00  0.00    +0.009 C 
ATOM      7  C   UNL     1      -1.176   1.895   7.450  0.00  0.00    +0.037 C 
ATOM      8  C   UNL     1      -1.410   2.053   5.953  0.00  0.00    -0.018 A 
ATOM      9  C   UNL     1      -2.456   2.770   5.484  0.00  0.00    -0.004 A 
ATOM     10  S   UNL     1      -2.312   2.679   3.722  0.00  0.00    -0.077 S 
ATOM     11  C   UNL     1      -0.891   1.694   3.608  0.00  0.00    +0.090 A 
ATOM     12  C   UNL     1      -0.557   1.466   4.934  0.00  0.00    +0.084 A 
ATOM     13  C   UNL     1      -3.495   3.484   6.291  0.00  0.00    +0.047 C 
BRANCH   5  15
ATOM     14  C   UNL     1      -3.695   5.315   8.566  0.00  0.00    +0.011 C 
ATOM     15  C   UNL     1      -4.242   3.889   8.648  0.00  0.00    -0.035 C 
ATOM     16  C   UNL     1      -5.703   3.876   8.196  0.00  0.00    +0.011 C 
ATOM     17  C   UNL     1      -4.150   3.389  10.091  0.00  0.00    +0.011 C 
ENDBRANCH   5  15
BRANCH  12  18
ATOM     18  C   UNL     1       0.587   0.680   5.287  0.00  0.00    +0.102 C 
ATOM     19  N   UNL     1       1.494   0.056   5.567  0.00  0.00    -0.191 NA
ENDBRANCH  12  18
ENDBRANCH   1  11
BRANCH   2  20
ATOM     20  C   UNL     1      -0.013   1.086   0.008  0.00  0.00    +0.173 C 
BRANCH  20  21
ATOM     21  S   UNL     1      -0.888   1.685  -1.458  0.00  0.00    -0.075 S 
BRANCH  21  22
ATOM     22  C   UNL     1       0.122   0.990  -2.724  0.00  0.00    +0.214 A 
ATOM     23  N   UNL     1       1.200   0.256  -2.550  0.00  0.00    -0.101 NA
ATOM     24  N   UNL     1       1.696  -0.091  -3.682  0.00  0.00    -0.022 NA
ATOM     25  N   UNL     1       0.994   0.390  -4.650  0.00  0.00    -0.038 NA
ATOM     26  N   UNL     1      -0.061   1.114  -4.068  0.00  0.00    -0.187 N 
BRANCH  26  27
ATOM     27  C   UNL     1      -1.081   1.814  -4.728  0.00  0.00    +0.070 A 
ATOM     28  C   UNL     1      -2.361   1.851  -4.189  0.00  0.00    +0.028 A 
ATOM     29  C   UNL     1      -3.362   2.546  -4.839  0.00  0.00    +0.002 A 
ATOM     30  C   UNL     1      -3.095   3.194  -6.030  0.00  0.00    +0.000 A 
ATOM     31  C   UNL     1      -1.823   3.155  -6.572  0.00  0.00    +0.002 A 
ATOM     32  C   UNL     1      -0.816   2.466  -5.924  0.00  0.00    +0.028 A 
ENDBRANCH  26  27
ENDBRANCH  21  22
ENDBRANCH  20  21
ENDBRANCH   2  20
TORSDOF 7
