REMARK  Name = ZINC12180781
REMARK  4 active torsions:
REMARK  status: ('A' for Active; 'I' for Inactive)
REMARK    1  A    between atoms: C_1  and  C_2
REMARK    2  A    between atoms: C_7  and  C_24
REMARK    3  A    between atoms: C_8  and  N_13
REMARK    4  A    between atoms: C_14  and  C_16
REMARK                            x       y       z     vdW  Elec       q    Type
REMARK                         _______ _______ _______ _____ _____    ______ ____
ROOT
ATOM      1  C   UNL     1      -4.358  -4.661  -0.123  0.00  0.00    +0.045 C 
ATOM      2  C   UNL     1      -4.454  -3.157  -0.138  0.00  0.00    -0.034 A 
ATOM      3  C   UNL     1      -5.711  -2.538  -0.214  0.00  0.00    +0.008 A 
ATOM      4  C   UNL     1      -5.790  -1.178  -0.227  0.00  0.00    +0.047 A 
ATOM      5  C   UNL     1      -4.610  -0.414  -0.164  0.00  0.00    +0.141 A 
ATOM      6  N   UNL     1      -4.687   0.914  -0.177  0.00  0.00    -0.232 NA
ATOM      7  C   UNL     1      -3.601   1.670  -0.119  0.00  0.00    +0.067 A 
ATOM      8  C   UNL     1      -2.350   1.081  -0.044  0.00  0.00    +0.121 A 
ATOM      9  C   UNL     1      -2.261  -0.322  -0.035  0.00  0.00    +0.280 A 
ATOM     10  O   UNL     1      -1.174  -0.875   0.025  0.00  0.00    -0.265 OA
ATOM     11  N   UNL     1      -3.399  -1.048  -0.090  0.00  0.00    -0.266 N 
ATOM     12  C   UNL     1      -3.331  -2.409  -0.078  0.00  0.00    +0.099 A 
ATOM     13  C   UNL     1      -3.727   3.172  -0.137  0.00  0.00    +0.068 C 
ENDROOT
BRANCH   8  14
ATOM     14  N   UNL     1      -1.191   1.870   0.018  0.00  0.00    -0.276 N 
ATOM     15  C   UNL     1      -0.348   1.750   1.063  0.00  0.00    +0.251 C 
ATOM     16  O   UNL     1      -0.637   1.026   1.997  0.00  0.00    -0.270 OA
ATOM     17  H   UNL     1      -0.996   2.502  -0.692  0.00  0.00    +0.155 HD
BRANCH  15  18
ATOM     18  C   UNL     1       0.926   2.494   1.073  0.00  0.00    +0.072 A 
ATOM     19  C   UNL     1       1.260   3.327   0.002  0.00  0.00    +0.019 A 
ATOM     20  C   UNL     1       2.452   4.018   0.016  0.00  0.00    +0.039 A 
ATOM     21  C   UNL     1       3.320   3.890   1.090  0.00  0.00    +0.126 A 
ATOM     22  C   UNL     1       2.997   3.066   2.156  0.00  0.00    +0.077 A 
ATOM     23  C   UNL     1       1.802   2.372   2.157  0.00  0.00    +0.138 A 
ATOM     24  F   UNL     1       1.484   1.573   3.198  0.00  0.00    -0.205 F 
ATOM     25  F   UNL     1       4.487   4.571   1.097  0.00  0.00    -0.205 F 
ENDBRANCH  15  18
ENDBRANCH   8  14
TORSDOF 2
