REMARK  Name = ZINC20804757
REMARK  8 active torsions:
REMARK  status: ('A' for Active; 'I' for Inactive)
REMARK    1  A    between atoms: C_1  and  C_2
REMARK    2  A    between atoms: C_5  and  N_9
REMARK    3  A    between atoms: C_6  and  C_8
REMARK    4  A    between atoms: C_10  and  C_12
REMARK    5  A    between atoms: C_13  and  C_30
REMARK    6  A    between atoms: C_17  and  C_29
REMARK    7  A    between atoms: C_20  and  C_22
REMARK    8  A    between atoms: C_25  and  O_28
REMARK                            x       y       z     vdW  Elec       q    Type
REMARK                         _______ _______ _______ _____ _____    ______ ____
ROOT
ATOM      1  C   UNL     1      -3.180   3.265   4.632  0.00  0.00    +0.060 C 
ATOM      2  C   UNL     1      -1.966   3.234   5.201  0.00  0.00    +0.018 C 
ATOM      3  N   UNL     1      -0.899   2.596   4.617  0.00  0.00    -0.287 N 
ATOM      4  C   UNL     1      -1.038   2.202   3.293  0.00  0.00    +0.219 A 
ATOM      5  N   UNL     1      -0.141   1.789   2.439  0.00  0.00    -0.198 NA
ATOM      6  C   UNL     1      -0.728   1.524   1.268  0.00  0.00    +0.150 A 
ATOM      7  N   UNL     1      -2.011   1.771   1.363  0.00  0.00    -0.153 NA
ATOM      8  N   UNL     1      -2.241   2.204   2.668  0.00  0.00    -0.221 N 
ATOM      9  C   UNL     1      -3.488   2.600   3.317  0.00  0.00    +0.177 C 
ATOM     10  C   UNL     1      -0.025   1.026   0.032  0.00  0.00    +0.090 C 
ATOM     11  C   UNL     1      -1.766   3.922   6.527  0.00  0.00    +0.061 C 
ATOM     12  H   UNL     1       0.018   2.415   5.197  0.00  0.00    +0.155 HD
ENDROOT
BRANCH   9  13
ATOM     13  C   UNL     1      -4.339   1.380   3.559  0.00  0.00    -0.018 A 
ATOM     14  C   UNL     1      -3.860   0.349   4.346  0.00  0.00    +0.009 A 
ATOM     15  C   UNL     1      -4.640  -0.768   4.573  0.00  0.00    +0.046 A 
ATOM     16  C   UNL     1      -5.901  -0.860   4.002  0.00  0.00    +0.117 A 
ATOM     17  C   UNL     1      -6.377   0.173   3.208  0.00  0.00    +0.046 A 
ATOM     18  C   UNL     1      -5.596   1.291   2.988  0.00  0.00    +0.009 A 
BRANCH  16  19
ATOM     19  O   UNL     1      -6.668  -1.960   4.219  0.00  0.00    -0.507 OA
ATOM     20  H   UNL     1      -7.667  -2.033   3.765  0.00  0.00    +0.292 HD
ENDBRANCH  16  19
ENDBRANCH   9  13
BRANCH   1  22
ATOM     21  N   UNL     1      -5.451   4.008   4.753  0.00  0.00    -0.281 N 
ATOM     22  C   UNL     1      -4.219   3.957   5.298  0.00  0.00    +0.248 C 
ATOM     23  O   UNL     1      -4.001   4.505   6.363  0.00  0.00    -0.270 OA
ATOM     24  H   UNL     1      -5.627   3.592   3.750  0.00  0.00    +0.155 HD
BRANCH  21  29
ATOM     25  C   UNL     1      -9.729   6.368   7.635  0.00  0.00    +0.044 C 
ATOM     26  C   UNL     1      -8.592   5.741   6.869  0.00  0.00    -0.050 A 
ATOM     27  C   UNL     1      -7.504   5.225   7.549  0.00  0.00    +0.005 A 
ATOM     28  C   UNL     1      -6.464   4.645   6.851  0.00  0.00    +0.024 A 
ATOM     29  C   UNL     1      -6.506   4.590   5.464  0.00  0.00    +0.037 A 
ATOM     30  C   UNL     1      -7.600   5.109   4.784  0.00  0.00    -0.029 A 
ATOM     31  C   UNL     1      -8.640   5.683   5.489  0.00  0.00    +0.008 A 
ATOM     32  C   UNL     1      -7.652   5.046   3.279  0.00  0.00    +0.045 C 
ENDBRANCH  21  29
ENDBRANCH   1  22
TORSDOF 4
