REMARK  Name = ZINC14258518
REMARK  4 active torsions:
REMARK  status: ('A' for Active; 'I' for Inactive)
REMARK    1  A    between atoms: C_6  and  N_7
REMARK    2  A    between atoms: C_8  and  C_10
REMARK    3  A    between atoms: C_10  and  O_11
REMARK    4  A    between atoms: O_11  and  C_12
REMARK                            x       y       z     vdW  Elec       q    Type
REMARK                         _______ _______ _______ _____ _____    ______ ____
ROOT
ATOM      1  N   UNL     1      -0.011   0.966   0.007  0.00  0.00    -0.283 N 
ATOM      2  C   UNL     1      -1.211   1.579   0.018  0.00  0.00    +0.255 C 
ATOM      3  O   UNL     1      -1.276   2.787  -0.066  0.00  0.00    -0.272 OA
ATOM      4  H   UNL     1       0.039  -0.003   0.007  0.00  0.00    +0.155 HD
ENDROOT
BRANCH   1  10
ATOM      5  C   UNL     1       2.288   1.284   0.678  0.00  0.00    +0.025 A 
ATOM      6  C   UNL     1       3.451   2.027   0.662  0.00  0.00    +0.029 A 
ATOM      7  C   UNL     1       3.496   3.226  -0.032  0.00  0.00    +0.067 A 
ATOM      8  C   UNL     1       2.367   3.678  -0.719  0.00  0.00    +0.069 A 
ATOM      9  C   UNL     1       1.203   2.927  -0.705  0.00  0.00    +0.051 A 
ATOM     10  C   UNL     1       1.164   1.728  -0.009  0.00  0.00    +0.036 A 
ATOM     11  N   UNL     1       2.713   4.891  -1.310  0.00  0.00    -0.306 N 
ATOM     12  H   UNL     1       2.131   5.444  -1.854  0.00  0.00    +0.170 HD
ATOM     13  C   UNL     1       3.994   5.165  -0.998  0.00  0.00    +0.325 A 
ATOM     14  O   UNL     1       4.607   6.153  -1.358  0.00  0.00    -0.247 OA
ATOM     15  N   UNL     1       4.495   4.180  -0.229  0.00  0.00    -0.306 N 
ATOM     16  H   UNL     1       5.396   4.141   0.129  0.00  0.00    +0.170 HD
ENDBRANCH   1  10
BRANCH   2  17
ATOM     17  C   UNL     1      -2.473   0.763   0.133  0.00  0.00    +0.325 C 
BRANCH  17  18
ATOM     18  O   UNL     1      -3.606   1.634   0.122  0.00  0.00    -0.481 OA
BRANCH  18  19
ATOM     19  C   UNL     1      -4.832   1.053   0.219  0.00  0.00    +0.140 A 
ATOM     20  C   UNL     1      -4.941  -0.326   0.323  0.00  0.00    +0.048 A 
ATOM     21  C   UNL     1      -6.187  -0.914   0.422  0.00  0.00    +0.023 A 
ATOM     22  C   UNL     1      -7.326  -0.129   0.417  0.00  0.00    +0.043 A 
ATOM     23  C   UNL     1      -7.221   1.247   0.313  0.00  0.00    +0.043 A 
ATOM     24  C   UNL     1      -5.975   1.840   0.220  0.00  0.00    +0.084 A 
ATOM     25 CL   UNL     1      -5.842   3.567   0.098  0.00  0.00    -0.080 Cl
ATOM     26 CL   UNL     1      -8.891  -0.871   0.541  0.00  0.00    -0.083 Cl
ENDBRANCH  18  19
ENDBRANCH  17  18
ENDBRANCH   2  17
TORSDOF 4
