REMARK  Name = ZINC18240750
REMARK  8 active torsions:
REMARK  status: ('A' for Active; 'I' for Inactive)
REMARK    1  A    between atoms: C_1  and  C_2
REMARK    2  A    between atoms: C_5  and  N_8
REMARK    3  A    between atoms: C_12  and  N_50
REMARK    4  A    between atoms: C_16  and  C_17
REMARK    5  A    between atoms: C_16  and  N_50
REMARK    6  A    between atoms: C_17  and  C_18
REMARK    7  A    between atoms: C_25  and  O_28
REMARK    8  A    between atoms: O_28  and  C_29
REMARK                            x       y       z     vdW  Elec       q    Type
REMARK                         _______ _______ _______ _____ _____    ______ ____
ROOT
ATOM      1  N   UNL     1      -0.801   1.547  -1.118  0.00  0.00    +0.387 N 
ATOM      2  H   UNL     1      -0.197   1.629  -1.945  0.00  0.00    -0.085 HD
ATOM      3  H   UNL     1      -1.195   2.467  -0.889  0.00  0.00    -0.085 HD
ENDROOT
BRANCH   1   8
ATOM      4  N   UNL     1       0.342   2.333   1.940  0.00  0.00    -0.212 N 
ATOM      5  C   UNL     1       1.495   2.461   1.272  0.00  0.00    +0.225 C 
ATOM      6  O   UNL     1       2.452   3.106   1.642  0.00  0.00    -0.275 OA
ATOM      7  C   UNL     1       1.413   1.673  -0.017  0.00  0.00    +0.090 C 
ATOM      8  C   UNL     1      -0.002   1.061   0.022  0.00  0.00    +0.026 C 
ATOM      9  C   UNL     1      -0.571   1.567   1.330  0.00  0.00    +0.213 C 
ATOM     10  O   UNL     1      -1.679   1.319   1.756  0.00  0.00    -0.277 OA
BRANCH   4  15
ATOM     11  C   UNL     1      -0.599   4.827   6.951  0.00  0.00    +0.044 C 
ATOM     12  C   UNL     1      -0.349   4.164   5.621  0.00  0.00    -0.050 A 
ATOM     13  C   UNL     1      -1.059   4.568   4.505  0.00  0.00    +0.005 A 
ATOM     14  C   UNL     1      -0.832   3.963   3.284  0.00  0.00    +0.024 A 
ATOM     15  C   UNL     1       0.110   2.949   3.178  0.00  0.00    +0.044 A 
ATOM     16  C   UNL     1       0.817   2.542   4.301  0.00  0.00    +0.024 A 
ATOM     17  C   UNL     1       0.589   3.154   5.518  0.00  0.00    +0.005 A 
ENDBRANCH   4  15
ENDBRANCH   1   8
BRANCH   1  18
ATOM     18  C   UNL     1      -1.900   0.607  -1.411  0.00  0.00    -0.077 C 
BRANCH  18  19
ATOM     19  C   UNL     1      -2.710   1.136  -2.596  0.00  0.00    +0.018 C 
BRANCH  19  20
ATOM     20  C   UNL     1      -3.836   0.182  -2.902  0.00  0.00    -0.024 A 
ATOM     21  C   UNL     1      -3.820  -0.806  -3.811  0.00  0.00    +0.087 A 
ATOM     22  N   UNL     1      -5.020  -1.462  -3.807  0.00  0.00    -0.360 N 
ATOM     23  H   UNL     1      -5.247  -2.213  -4.378  0.00  0.00    +0.165 HD
ATOM     24  C   UNL     1      -5.860  -0.898  -2.870  0.00  0.00    +0.047 A 
ATOM     25  C   UNL     1      -5.152   0.152  -2.259  0.00  0.00    +0.006 A 
ATOM     26  C   UNL     1      -5.761   0.918  -1.263  0.00  0.00    +0.056 A 
ATOM     27  C   UNL     1      -7.054   0.630  -0.876  0.00  0.00    +0.121 A 
ATOM     28  C   UNL     1      -7.751  -0.414  -1.479  0.00  0.00    +0.047 A 
ATOM     29  C   UNL     1      -7.162  -1.172  -2.466  0.00  0.00    +0.030 A 
BRANCH  27  30
ATOM     30  O   UNL     1      -7.651   1.368   0.098  0.00  0.00    -0.495 OA
ATOM     31  C   UNL     1      -8.990   1.017   0.451  0.00  0.00    +0.277 C 
ENDBRANCH  27  30
ENDBRANCH  19  20
ENDBRANCH  18  19
ENDBRANCH   1  18
TORSDOF 6
