REMARK  Name = ZINC63161705
REMARK  5 active torsions:
REMARK  status: ('A' for Active; 'I' for Inactive)
REMARK    1  A    between atoms: C_3  and  N_24
REMARK    2  A    between atoms: C_6  and  C_7
REMARK    3  A    between atoms: C_7  and  N_8
REMARK    4  A    between atoms: N_11  and  C_12
REMARK    5  A    between atoms: C_14  and  C_20
REMARK                            x       y       z     vdW  Elec       q    Type
REMARK                         _______ _______ _______ _____ _____    ______ ____
ROOT
ATOM      1  N   UNL     1      -1.797  -0.823  -1.415  0.00  0.00    -0.295 N 
ATOM      2  C   UNL     1      -2.940  -1.496  -1.655  0.00  0.00    +0.304 C 
ATOM      3  O   UNL     1      -3.683  -1.779  -0.735  0.00  0.00    -0.252 OA
ATOM      4  N   UNL     1      -3.259  -1.856  -2.914  0.00  0.00    -0.265 N 
ATOM      5  H   UNL     1      -1.204  -0.598  -2.149  0.00  0.00    +0.151 HD
ATOM      6  H   UNL     1      -2.634  -1.693  -3.638  0.00  0.00    +0.157 HD
ENDROOT
BRANCH   4   7
ATOM      7  C   UNL     1      -4.494  -2.465  -3.178  0.00  0.00    +0.100 A 
ATOM      8  C   UNL     1      -5.376  -1.891  -4.051  0.00  0.00    +0.042 A 
ATOM      9  C   UNL     1      -6.604  -2.521  -4.298  0.00  0.00    +0.073 A 
ATOM     10  C   UNL     1      -6.905  -3.683  -3.675  0.00  0.00    +0.098 A 
ATOM     11  N   UNL     1      -6.030  -4.256  -2.807  0.00  0.00    -0.327 N 
ATOM     12  H   UNL     1      -6.264  -5.090  -2.370  0.00  0.00    +0.168 HD
ATOM     13  C   UNL     1      -4.839  -3.681  -2.550  0.00  0.00    +0.270 A 
ATOM     14  O   UNL     1      -4.061  -4.210  -1.772  0.00  0.00    -0.266 OA
BRANCH   9  15
ATOM     15  C   UNL     1      -7.589  -1.903  -5.256  0.00  0.00    +0.419 C 
ATOM     16  F   UNL     1      -8.730  -2.708  -5.336  0.00  0.00    -0.166 F 
ATOM     17  F   UNL     1      -7.948  -0.630  -4.800  0.00  0.00    -0.166 F 
ATOM     18  F   UNL     1      -7.004  -1.796  -6.522  0.00  0.00    -0.166 F 
ENDBRANCH   9  15
ENDBRANCH   4   7
BRANCH   1  19
ATOM     19  C   UNL     1      -1.451  -0.433  -0.046  0.00  0.00    +0.142 C 
BRANCH  19  25
ATOM     20  C   UNL     1      -0.102   1.682  -0.203  0.00  0.00    +0.010 A 
ATOM     21  C   UNL     1       1.126   2.317  -0.202  0.00  0.00    +0.042 A 
ATOM     22  C   UNL     1       2.281   1.557  -0.049  0.00  0.00    +0.099 A 
ATOM     23  N   UNL     1       2.208   0.242   0.093  0.00  0.00    -0.349 N 
ATOM     24  C   UNL     1       1.051  -0.390   0.095  0.00  0.00    +0.089 A 
ATOM     25  C   UNL     1      -0.135   0.302  -0.051  0.00  0.00    -0.014 A 
ATOM     26  H   UNL     1       3.027  -0.268   0.198  0.00  0.00    +0.167 HD
BRANCH  22  27
ATOM     27  N   UNL     1       3.522   2.183  -0.046  0.00  0.00    -0.317 N 
ATOM     28  C   UNL     1       4.744   1.420   0.243  0.00  0.00    +0.106 C 
ATOM     29  C   UNL     1       5.745   1.643  -0.895  0.00  0.00    +0.019 C 
ATOM     30  C   UNL     1       5.971   3.144  -1.084  0.00  0.00    +0.003 C 
ATOM     31  C   UNL     1       4.651   3.817  -1.464  0.00  0.00    +0.019 C 
ATOM     32  C   UNL     1       3.638   3.618  -0.339  0.00  0.00    +0.106 C 
ENDBRANCH  22  27
ENDBRANCH  19  25
ENDBRANCH   1  19
TORSDOF 5
