REMARK  Name = ZINC00337550
REMARK  1 active torsions:
REMARK  status: ('A' for Active; 'I' for Inactive)
REMARK    1  A    between atoms: C_6  and  N_7
REMARK                            x       y       z     vdW  Elec       q    Type
REMARK                         _______ _______ _______ _____ _____    ______ ____
ROOT
ATOM      1  N   UNL     1      -1.202  -0.723   0.010  0.00  0.00    -0.134 N 
ATOM      2  N   UNL     1      -2.469  -0.193   0.316  0.00  0.00    -0.144 NA
ATOM      3  C   UNL     1      -3.311  -1.175   0.219  0.00  0.00    +0.141 A 
ATOM      4  C   UNL     1      -2.578  -2.330  -0.172  0.00  0.00    +0.113 A 
ATOM      5  N   UNL     1      -1.329  -1.977  -0.267  0.00  0.00    -0.048 N 
ATOM      6  O   UNL     1      -0.266  -2.842  -0.619  0.00  0.00    -0.145 OA
ATOM      7  C   UNL     1      -3.224  -3.661  -0.438  0.00  0.00    +0.067 C 
ATOM      8  C   UNL     1      -4.445  -3.904   0.445  0.00  0.00    +0.067 C 
ATOM      9  C   UNL     1      -5.324  -2.684   0.527  0.00  0.00    +0.114 A 
ATOM     10  C   UNL     1      -4.771  -1.311   0.432  0.00  0.00    +0.159 A 
ATOM     11  N   UNL     1      -5.731  -0.466   0.558  0.00  0.00    -0.047 NA
ATOM     12  O   UNL     1      -6.935  -1.206   0.712  0.00  0.00    -0.242 OA
ATOM     13  N   UNL     1      -6.597  -2.585   0.684  0.00  0.00    -0.053 NA
ENDROOT
BRANCH   1  19
ATOM     14  C   UNL     1      -0.017   1.384   0.010  0.00  0.00    +0.031 A 
ATOM     15  C   UNL     1       1.170   2.090   0.002  0.00  0.00    +0.023 A 
ATOM     16  C   UNL     1       2.378   1.416  -0.013  0.00  0.00    +0.059 A 
ATOM     17  C   UNL     1       2.400   0.031  -0.021  0.00  0.00    +0.061 A 
ATOM     18  C   UNL     1       1.215  -0.680  -0.014  0.00  0.00    +0.051 A 
ATOM     19  C   UNL     1       0.002  -0.004   0.002  0.00  0.00    +0.089 A 
ATOM     20 CL   UNL     1       3.917  -0.813  -0.040  0.00  0.00    -0.082 Cl
ATOM     21 CL   UNL     1       3.868   2.306  -0.023  0.00  0.00    -0.082 Cl
ENDBRANCH   1  19
TORSDOF 1
