REMARK  Name = ZINC57984616
REMARK  3 active torsions:
REMARK  status: ('A' for Active; 'I' for Inactive)
REMARK    1  A    between atoms: C_1  and  C_2
REMARK    2  A    between atoms: C_7  and  N_8
REMARK    3  A    between atoms: C_17  and  C_19
REMARK                            x       y       z     vdW  Elec       q    Type
REMARK                         _______ _______ _______ _____ _____    ______ ____
ROOT
ATOM      1  N   UNL     1       0.032  -0.014   2.418  0.00  0.00    -0.269 N 
ATOM      2  C   UNL     1      -0.056  -0.693   3.579  0.00  0.00    +0.307 C 
ATOM      3  O   UNL     1      -0.045  -1.909   3.574  0.00  0.00    -0.252 OA
ATOM      4  N   UNL     1      -0.155  -0.025   4.745  0.00  0.00    -0.282 N 
ATOM      5  C   UNL     1      -0.292   1.439   4.759  0.00  0.00    +0.128 C 
ATOM      6  C   UNL     1      -1.551   1.806   5.554  0.00  0.00    +0.127 C 
ATOM      7  N   UNL     1      -1.525   1.084   6.834  0.00  0.00    -0.298 N 
ATOM      8  C   UNL     1      -1.388  -0.379   6.820  0.00  0.00    +0.127 C 
ATOM      9  C   UNL     1      -0.135  -0.747   6.025  0.00  0.00    +0.128 C 
ATOM     10  C   UNL     1      -1.624   1.752   8.000  0.00  0.00    +0.219 C 
ATOM     11  O   UNL     1      -1.736   2.960   8.000  0.00  0.00    -0.275 OA
ATOM     12  H   UNL     1       0.089   0.955   2.426  0.00  0.00    +0.156 HD
ENDROOT
BRANCH   1  19
ATOM     13  C   UNL     1      -1.010   1.300   0.118  0.00  0.00    +0.046 C 
ATOM     14  C   UNL     1      -0.458  -0.102   0.054  0.00  0.00    -0.028 A 
ATOM     15  C   UNL     1      -0.443  -0.784  -1.147  0.00  0.00    +0.025 A 
ATOM     16  C   UNL     1       0.062  -2.071  -1.206  0.00  0.00    +0.041 A 
ATOM     17  C   UNL     1       0.554  -2.677  -0.064  0.00  0.00    +0.022 A 
ATOM     18  C   UNL     1       0.541  -1.999   1.139  0.00  0.00    +0.025 A 
ATOM     19  C   UNL     1       0.040  -0.705   1.201  0.00  0.00    +0.038 A 
ATOM     20 CL   UNL     1       0.079  -2.926  -2.717  0.00  0.00    -0.084 Cl
ENDBRANCH   1  19
BRANCH  10  21
ATOM     21  C   UNL     1      -1.596   0.999   9.305  0.00  0.00    +0.075 C 
ATOM     22  C   UNL     1      -2.887   0.956  10.124  0.00  0.00    +0.013 C 
ATOM     23  C   UNL     1      -1.712   1.815  10.595  0.00  0.00    +0.013 C 
ENDBRANCH  10  21
TORSDOF 2
