REMARK  Name = ZINC38990078
REMARK  8 active torsions:
REMARK  status: ('A' for Active; 'I' for Inactive)
REMARK    1  A    between atoms: C_1  and  C_2
REMARK    2  A    between atoms: C_5  and  S_8
REMARK    3  A    between atoms: S_8  and  N_11
REMARK    4  A    between atoms: N_11  and  C_12
REMARK    5  A    between atoms: N_11  and  C_19
REMARK    6  A    between atoms: C_12  and  C_13
REMARK    7  A    between atoms: C_19  and  C_20
REMARK    8  A    between atoms: C_26  and  C_32
REMARK                            x       y       z     vdW  Elec       q    Type
REMARK                         _______ _______ _______ _____ _____    ______ ____
ROOT
ATOM      1  N   UNL     1       1.764  -5.085   0.009  0.00  0.00    -0.173 NA
ENDROOT
BRANCH   1   2
ATOM      2  S   UNL     1       0.437  -4.109   0.187  0.00  0.00    +0.061 S 
ATOM      3  O   UNL     1      -0.215  -4.523   1.379  0.00  0.00    -0.153 OA
ATOM      4  O   UNL     1      -0.221  -4.086  -1.073  0.00  0.00    -0.153 OA
BRANCH   2   9
ATOM      5  C   UNL     1       2.456   1.489   1.180  0.00  0.00    +0.044 C 
ATOM      6  C   UNL     1       1.952   0.091   0.932  0.00  0.00    -0.050 A 
ATOM      7  C   UNL     1       1.719  -0.341  -0.361  0.00  0.00    +0.005 A 
ATOM      8  C   UNL     1       1.256  -1.623  -0.588  0.00  0.00    +0.029 A 
ATOM      9  C   UNL     1       1.028  -2.475   0.477  0.00  0.00    +0.105 A 
ATOM     10  C   UNL     1       1.262  -2.044   1.769  0.00  0.00    +0.029 A 
ATOM     11  C   UNL     1       1.728  -0.762   1.996  0.00  0.00    +0.005 A 
ENDBRANCH   2   9
ENDBRANCH   1   2
BRANCH   1  12
ATOM     12  C   UNL     1       2.353  -5.739   1.180  0.00  0.00    +0.141 C 
BRANCH  12  13
ATOM     13  C   UNL     1       1.752  -7.137   1.340  0.00  0.00    +0.134 C 
ATOM     14  C   UNL     1       2.277  -7.787   2.638  0.00  0.00    +0.035 C 
ATOM     15  C   UNL     1       2.490  -9.263   2.205  0.00  0.00    +0.031 C 
ATOM     16  C   UNL     1       2.930  -9.076   0.731  0.00  0.00    +0.160 C 
ATOM     17  O   UNL     1       2.154  -7.967   0.245  0.00  0.00    -0.375 OA
ENDBRANCH  12  13
ENDBRANCH   1  12
BRANCH   1  18
ATOM     18  C   UNL     1       2.347  -5.294  -1.318  0.00  0.00    +0.126 C 
BRANCH  18  19
ATOM     19  C   UNL     1       3.303  -4.144  -1.642  0.00  0.00    +0.114 C 
ATOM     20  C   UNL     1       3.663  -4.238  -3.111  0.00  0.00    -0.003 C 
ATOM     21  C   UNL     1       4.985  -4.356  -3.425  0.00  0.00    -0.007 A 
ATOM     22  C   UNL     1       5.420  -4.454  -4.818  0.00  0.00    +0.010 A 
ATOM     23  C   UNL     1       6.747  -4.571  -5.083  0.00  0.00    +0.004 A 
ATOM     24  C   UNL     1       7.693  -4.601  -4.057  0.00  0.00    -0.049 A 
ATOM     25  C   UNL     1       7.353  -4.515  -2.745  0.00  0.00    +0.027 A 
ATOM     26  C   UNL     1       6.005  -4.390  -2.362  0.00  0.00    +0.041 A 
ATOM     27  N   UNL     1       5.684  -4.306  -1.071  0.00  0.00    -0.284 N 
ATOM     28  C   UNL     1       4.439  -4.190  -0.644  0.00  0.00    +0.225 C 
ATOM     29  O   UNL     1       4.207  -4.118   0.548  0.00  0.00    -0.275 OA
ATOM     30  C   UNL     1       9.149  -4.733  -4.420  0.00  0.00    +0.044 C 
ATOM     31  H   UNL     1       6.397  -4.333  -0.415  0.00  0.00    +0.155 HD
ENDBRANCH  18  19
ENDBRANCH   1  18
TORSDOF 6
