REMARK  Name = ZINC09948584
REMARK  5 active torsions:
REMARK  status: ('A' for Active; 'I' for Inactive)
REMARK    1  A    between atoms: C_1  and  C_2
REMARK    2  A    between atoms: C_3  and  C_14
REMARK    3  A    between atoms: N_5  and  C_7
REMARK    4  A    between atoms: N_15  and  N_16
REMARK    5  A    between atoms: C_17  and  C_19
REMARK                            x       y       z     vdW  Elec       q    Type
REMARK                         _______ _______ _______ _____ _____    ______ ____
ROOT
ATOM      1  N   UNL     1       3.593   3.341   1.317  0.00  0.00    -0.204 N 
ATOM      2  C   UNL     1       3.493   2.018   1.079  0.00  0.00    +0.276 C 
ATOM      3  O   UNL     1       4.495   1.338   0.998  0.00  0.00    -0.270 OA
ATOM      4  H   UNL     1       2.793   3.871   1.453  0.00  0.00    +0.177 HD
ENDROOT
BRANCH   2   5
ATOM      5  C   UNL     1       2.136   1.383   0.911  0.00  0.00    +0.297 C 
ATOM      6  C   UNL     1       1.503   1.853  -0.405  0.00  0.00    +0.283 C 
ATOM      7  O   UNL     1       0.220   1.231  -0.533  0.00  0.00    -0.484 OA
ATOM      8  C   UNL     1       0.159  -0.106  -0.277  0.00  0.00    +0.163 A 
ATOM      9  C   UNL     1      -0.925  -0.811  -0.719  0.00  0.00    +0.058 A 
ATOM     10  C   UNL     1      -1.015  -2.189  -0.465  0.00  0.00    -0.014 A 
ATOM     11  C   UNL     1      -2.118  -2.942  -0.904  0.00  0.00    +0.008 A 
ATOM     12  C   UNL     1      -2.173  -4.275  -0.638  0.00  0.00    +0.001 A 
ATOM     13  C   UNL     1      -1.150  -4.909   0.065  0.00  0.00    +0.001 A 
ATOM     14  C   UNL     1      -0.067  -4.213   0.506  0.00  0.00    +0.008 A 
ATOM     15  C   UNL     1       0.025  -2.834   0.251  0.00  0.00    -0.014 A 
ATOM     16  C   UNL     1       1.128  -2.084   0.691  0.00  0.00    +0.058 A 
ATOM     17  C   UNL     1       1.189  -0.745   0.428  0.00  0.00    +0.164 A 
ATOM     18  O   UNL     1       2.272  -0.041   0.861  0.00  0.00    -0.472 OA
ENDBRANCH   2   5
BRANCH   1  20
ATOM     19  C   UNL     1       4.956   5.204   1.683  0.00  0.00    +0.143 C 
ATOM     20  N   UNL     1       4.854   3.949   1.369  0.00  0.00    -0.187 NA
BRANCH  19  23
ATOM     21  C   UNL     1       3.878   7.886   0.378  0.00  0.00    +0.068 C 
ATOM     22  C   UNL     1       3.272   7.150   1.545  0.00  0.00    +0.070 A 
ATOM     23  C   UNL     1       3.764   5.955   2.117  0.00  0.00    +0.054 A 
ATOM     24  C   UNL     1       2.923   5.625   3.161  0.00  0.00    +0.142 A 
ATOM     25  N   UNL     1       1.962   6.572   3.218  0.00  0.00    -0.221 N 
ATOM     26  N   UNL     1       2.200   7.504   2.201  0.00  0.00    -0.170 NA
ATOM     27 CL   UNL     1       3.074   4.248   4.208  0.00  0.00    -0.061 Cl
BRANCH  25  28
ATOM     28  C   UNL     1       0.905   6.614   4.137  0.00  0.00    +0.067 A 
ATOM     29  C   UNL     1       0.316   5.435   4.574  0.00  0.00    +0.028 A 
ATOM     30  C   UNL     1      -0.722   5.479   5.484  0.00  0.00    +0.002 A 
ATOM     31  C   UNL     1      -1.181   6.697   5.953  0.00  0.00    +0.000 A 
ATOM     32  C   UNL     1      -0.600   7.873   5.516  0.00  0.00    +0.002 A 
ATOM     33  C   UNL     1       0.442   7.835   4.610  0.00  0.00    +0.028 A 
ENDBRANCH  25  28
ENDBRANCH  19  23
ENDBRANCH   1  20
TORSDOF 4
