REMARK  Name = ZINC31784200
REMARK  7 active torsions:
REMARK  status: ('A' for Active; 'I' for Inactive)
REMARK    1  A    between atoms: C_1  and  C_2
REMARK    2  A    between atoms: C_5  and  C_8
REMARK    3  A    between atoms: C_10  and  C_13
REMARK    4  A    between atoms: C_13  and  C_15
REMARK    5  A    between atoms: C_13  and  N_16
REMARK    6  A    between atoms: N_19  and  C_22
REMARK    7  A    between atoms: C_22  and  N_23
REMARK                            x       y       z     vdW  Elec       q    Type
REMARK                         _______ _______ _______ _____ _____    ______ ____
ROOT
ATOM      1  N   UNL     1      -6.603  -0.394  -0.948  0.00  0.00    -0.295 NA
ATOM      2  C   UNL     1      -6.055  -0.132  -2.287  0.00  0.00    +0.066 C 
ATOM      3  C   UNL     1      -6.569  -1.195  -3.262  0.00  0.00    -0.061 C 
ATOM      4  N   UNL     1      -8.038  -1.168  -3.282  0.00  0.00    +0.394 N 
ATOM      5  C   UNL     1      -8.586  -1.429  -1.944  0.00  0.00    -0.061 C 
ATOM      6  C   UNL     1      -8.072  -0.367  -0.969  0.00  0.00    +0.066 C 
ATOM      7  H   UNL     1      -8.355  -0.160  -3.588  0.00  0.00    -0.079 HD
ENDROOT
BRANCH   1   8
ATOM      8  C   UNL     1      -6.073   0.562   0.033  0.00  0.00    +0.143 C 
ATOM      9  C   UNL     1      -6.590   0.201   1.427  0.00  0.00    +0.034 C 
BRANCH   8  12
ATOM     10  C   UNL     1      -2.505   1.002   0.019  0.00  0.00    +0.202 A 
ATOM     11  N   UNL     1      -3.750   1.530   0.033  0.00  0.00    -0.190 NA
ATOM     12  C   UNL     1      -4.567   0.506   0.026  0.00  0.00    +0.245 A 
ATOM     13  O   UNL     1      -3.813  -0.598   0.016  0.00  0.00    -0.336 OA
ATOM     14  N   UNL     1      -2.638  -0.299   0.012  0.00  0.00    -0.056 NA
BRANCH  10  19
ATOM     15  C   UNL     1       2.452   3.934  -0.001  0.00  0.00    +0.044 C 
ATOM     16  C   UNL     1       1.155   3.167   0.008  0.00  0.00    -0.050 A 
ATOM     17  C   UNL     1       1.173   1.783   0.000  0.00  0.00    +0.004 A 
ATOM     18  C   UNL     1      -0.013   1.076   0.008  0.00  0.00    +0.012 A 
ATOM     19  C   UNL     1      -1.228   1.757   0.017  0.00  0.00    +0.022 A 
ATOM     20  C   UNL     1      -1.239   3.150   0.031  0.00  0.00    +0.012 A 
ATOM     21  C   UNL     1      -0.048   3.848   0.023  0.00  0.00    +0.004 A 
ENDBRANCH  10  19
ENDBRANCH   8  12
ENDBRANCH   1   8
BRANCH   4  22
ATOM     22  C   UNL     1      -8.568  -2.123  -4.264  0.00  0.00    +0.072 C 
BRANCH  22  23
ATOM     23  N   UNL     1      -8.196  -1.694  -5.614  0.00  0.00    -0.257 N 
ATOM     24  C   UNL     1      -7.076  -2.040  -6.280  0.00  0.00    +0.181 A 
ATOM     25  S   UNL     1      -5.833  -3.062  -5.696  0.00  0.00    -0.011 S 
ATOM     26  N   UNL     1      -7.108  -1.439  -7.486  0.00  0.00    -0.279 N 
ATOM     27  C   UNL     1      -6.228  -1.454  -8.540  0.00  0.00    +0.095 A 
ATOM     28  C   UNL     1      -6.487  -0.759  -9.662  0.00  0.00    +0.018 A 
ATOM     29  C   UNL     1      -7.669   0.001  -9.777  0.00  0.00    +0.005 A 
ATOM     30  C   UNL     1      -8.554   0.033  -8.751  0.00  0.00    +0.048 A 
ATOM     31  C   UNL     1      -8.275  -0.703  -7.571  0.00  0.00    +0.160 A 
ATOM     32  N   UNL     1      -8.943  -0.853  -6.451  0.00  0.00    -0.153 NA
ENDBRANCH  22  23
ENDBRANCH   4  22
TORSDOF 5
