REMARK  Name = ZINC12869793
REMARK  7 active torsions:
REMARK  status: ('A' for Active; 'I' for Inactive)
REMARK    1  A    between atoms: C_1  and  C_2
REMARK    2  A    between atoms: C_4  and  C_32
REMARK    3  A    between atoms: C_6  and  C_27
REMARK    4  A    between atoms: C_10  and  C_11
REMARK    5  A    between atoms: N_13  and  C_14
REMARK    6  A    between atoms: C_14  and  C_15
REMARK    7  A    between atoms: C_15  and  N_21
REMARK                            x       y       z     vdW  Elec       q    Type
REMARK                         _______ _______ _______ _____ _____    ______ ____
ROOT
ATOM      1  C   UNL     1       0.755   4.821   0.972  0.00  0.00    +0.251 C 
ATOM      2  O   UNL     1      -0.188   5.589   0.963  0.00  0.00    -0.270 OA
ATOM      3  N   UNL     1       0.543   3.493   0.894  0.00  0.00    -0.309 N 
ATOM      4  H   UNL     1       1.396   2.798   0.902  0.00  0.00    +0.149 HD
ENDROOT
BRANCH   1  14
ATOM      5  C   UNL     1       1.522   7.751   1.149  0.00  0.00    +0.046 C 
ATOM      6  C   UNL     1       2.536   6.636   1.151  0.00  0.00    -0.020 A 
ATOM      7  C   UNL     1       3.904   6.931   1.241  0.00  0.00    +0.032 A 
ATOM      8  C   UNL     1       4.544   8.194   1.338  0.00  0.00    +0.051 A 
ATOM      9  N   UNL     1       5.853   8.251   1.408  0.00  0.00    -0.229 NA
ATOM     10  C   UNL     1       6.616   7.158   1.391  0.00  0.00    +0.197 A 
ATOM     11  N   UNL     1       6.077   5.946   1.301  0.00  0.00    -0.217 NA
ATOM     12  C   UNL     1       4.773   5.807   1.228  0.00  0.00    +0.113 A 
ATOM     13  S   UNL     1       3.660   4.431   1.101  0.00  0.00    -0.064 S 
ATOM     14  C   UNL     1       2.125   5.342   1.069  0.00  0.00    +0.079 A 
ATOM     15  C   UNL     1       3.727   9.460   1.361  0.00  0.00    +0.066 C 
BRANCH  10  16
ATOM     16  C   UNL     1       8.081   7.296   1.472  0.00  0.00    +0.172 A 
ATOM     17  C   UNL     1       8.982   6.274   1.466  0.00  0.00    +0.053 A 
ATOM     18  C   UNL     1      10.258   6.859   1.560  0.00  0.00    +0.042 A 
ATOM     19  C   UNL     1      10.079   8.194   1.619  0.00  0.00    +0.196 A 
ATOM     20  O   UNL     1       8.764   8.455   1.560  0.00  0.00    -0.460 OA
ENDBRANCH  10  16
ENDBRANCH   1  14
BRANCH   3  21
ATOM     21  C   UNL     1      -0.824   2.973   0.797  0.00  0.00    +0.126 C 
BRANCH  21  22
ATOM     22  C   UNL     1      -0.785   1.446   0.721  0.00  0.00    +0.038 C 
ATOM     23  C   UNL     1       0.012   1.017  -0.513  0.00  0.00    +0.024 C 
ATOM     24  C   UNL     1      -0.657   1.573  -1.771  0.00  0.00    +0.002 C 
ATOM     25  C   UNL     1      -2.084   1.031  -1.872  0.00  0.00    +0.000 C 
ATOM     26  C   UNL     1      -2.881   1.460  -0.639  0.00  0.00    +0.002 C 
ATOM     27  C   UNL     1      -2.212   0.904   0.620  0.00  0.00    +0.024 C 
BRANCH  22  28
ATOM     28  N   UNL     1      -0.142   0.911   1.929  0.00  0.00    -0.291 NA
ATOM     29  C   UNL     1      -0.009  -0.551   1.852  0.00  0.00    +0.113 C 
ATOM     30  C   UNL     1       0.717  -1.058   3.101  0.00  0.00    +0.175 C 
ATOM     31  O   UNL     1      -0.000  -0.640   4.266  0.00  0.00    -0.377 OA
ATOM     32  C   UNL     1      -0.148   0.779   4.373  0.00  0.00    +0.175 C 
ATOM     33  C   UNL     1      -0.883   1.304   3.137  0.00  0.00    +0.113 C 
ENDBRANCH  22  28
ENDBRANCH  21  22
ENDBRANCH   3  21
TORSDOF 5
