REMARK  Name = ZINC48540263
REMARK  4 active torsions:
REMARK  status: ('A' for Active; 'I' for Inactive)
REMARK    1  A    between atoms: C_4  and  O_10
REMARK    2  A    between atoms: C_5  and  N_7
REMARK    3  A    between atoms: O_10  and  C_11
REMARK    4  A    between atoms: C_11  and  C_13
REMARK                            x       y       z     vdW  Elec       q    Type
REMARK                         _______ _______ _______ _____ _____    ______ ____
ROOT
ATOM      1  C   UNL     1      -0.020   1.372   0.011  0.00  0.00    +0.002 A 
ATOM      2  C   UNL     1       1.160   2.077  -0.139  0.00  0.00    +0.004 A 
ATOM      3  C   UNL     1       2.368   1.409  -0.155  0.00  0.00    +0.049 A 
ATOM      4  C   UNL     1       2.398   0.028  -0.020  0.00  0.00    +0.162 A 
ATOM      5  C   UNL     1       1.213  -0.677   0.130  0.00  0.00    +0.168 A 
ATOM      6  C   UNL     1       0.006  -0.004   0.145  0.00  0.00    +0.036 A 
ENDROOT
BRANCH   5   7
ATOM      7  N   UNL     1       1.241  -2.150   0.274  0.00  0.00    +0.060 N 
ATOM      8  O   UNL     1       0.208  -2.764   0.405  0.00  0.00    -0.126 OA
ATOM      9  O   UNL     1       2.296  -2.739   0.260  0.00  0.00    -0.126 OA
ENDBRANCH   5   7
BRANCH   4  10
ATOM     10  O   UNL     1       3.586  -0.632  -0.036  0.00  0.00    -0.420 OA
BRANCH  10  11
ATOM     11  C   UNL     1       4.026  -1.115  -1.215  0.00  0.00    +0.345 C 
ATOM     12  O   UNL     1       3.413  -0.874  -2.237  0.00  0.00    -0.245 OA
BRANCH  11  13
ATOM     13  C   UNL     1       5.247  -1.932  -1.266  0.00  0.00    +0.067 A 
ATOM     14  C   UNL     1       5.752  -2.461  -2.510  0.00  0.00    +0.038 A 
ATOM     15  C   UNL     1       6.880  -3.195  -2.419  0.00  0.00    +0.056 A 
ATOM     16  S   UNL     1       7.243  -3.164  -0.677  0.00  0.00    -0.089 S 
ATOM     17  C   UNL     1       5.967  -2.224  -0.128  0.00  0.00    +0.061 A 
ATOM     18 BR   UNL     1       7.841  -4.050  -3.806  0.00  0.00    -0.043 Br
ENDBRANCH  11  13
ENDBRANCH  10  11
ENDBRANCH   4  10
TORSDOF 4
