REMARK  Name = ZINC34757719
REMARK  9 active torsions:
REMARK  status: ('A' for Active; 'I' for Inactive)
REMARK    1  A    between atoms: C_1  and  C_2
REMARK    2  A    between atoms: C_2  and  C_3
REMARK    3  A    between atoms: C_2  and  C_4
REMARK    4  A    between atoms: C_4  and  N_5
REMARK    5  A    between atoms: C_18  and  S_20
REMARK    6  A    between atoms: S_20  and  C_21
REMARK    7  A    between atoms: C_21  and  C_22
REMARK    8  A    between atoms: N_24  and  C_25
REMARK    9  A    between atoms: N_24  and  C_26
REMARK                            x       y       z     vdW  Elec       q    Type
REMARK                         _______ _______ _______ _____ _____    ______ ____
ROOT
ATOM      1  N   UNL     1      -1.258   0.642   2.248  0.00  0.00    +0.382 N 
ATOM      2  C   UNL     1      -2.417   0.960   3.091  0.00  0.00    -0.060 C 
ATOM      3  C   UNL     1      -2.104   0.596   4.546  0.00  0.00    +0.088 C 
ATOM      4  N   UNL     1      -0.861   1.277   4.941  0.00  0.00    -0.318 N 
ATOM      5  C   UNL     1       0.311   1.144   4.061  0.00  0.00    +0.088 C 
ATOM      6  C   UNL     1      -0.116   1.482   2.629  0.00  0.00    -0.060 C 
ATOM      7  C   UNL     1      -0.795   2.020   6.105  0.00  0.00    +0.134 A 
ATOM      8  C   UNL     1      -0.412   1.408   7.330  0.00  0.00    +0.051 A 
ATOM      9  C   UNL     1      -0.047   0.002   7.575  0.00  0.00    -0.025 A 
ATOM     10  C   UNL     1       0.279  -0.330   8.833  0.00  0.00    -0.004 A 
ATOM     11  S   UNL     1       0.129   1.178   9.764  0.00  0.00    -0.073 S 
ATOM     12  C   UNL     1      -0.378   2.256   8.452  0.00  0.00    +0.115 A 
ATOM     13  N   UNL     1      -0.684   3.536   8.360  0.00  0.00    -0.214 NA
ATOM     14  C   UNL     1      -1.035   4.055   7.191  0.00  0.00    +0.191 A 
ATOM     15  N   UNL     1      -1.083   3.311   6.092  0.00  0.00    -0.206 NA
ATOM     16  C   UNL     1       0.628  -1.788   8.964  0.00  0.00    +0.043 C 
ATOM     17  C   UNL     1       0.062  -2.439   7.683  0.00  0.00    +0.010 C 
ATOM     18  C   UNL     1       0.065  -1.251   6.702  0.00  0.00    +0.037 C 
ATOM     19  H   UNL     1      -1.014  -0.330   2.369  0.00  0.00    -0.082 HD
ENDROOT
BRANCH   1  20
ATOM     20  C   UNL     1      -1.597   0.888   0.840  0.00  0.00    -0.076 C 
BRANCH  20  22
ATOM     21  C   UNL     1      -0.295  -1.098   0.062  0.00  0.00    +0.005 C 
ATOM     22  C   UNL     1      -0.444   0.420  -0.051  0.00  0.00    -0.034 C 
ATOM     23  C   UNL     1      -0.739   0.797  -1.505  0.00  0.00    +0.005 C 
ENDBRANCH  20  22
ENDBRANCH   1  20
BRANCH  14  24
ATOM     24  S   UNL     1      -1.441   5.767   7.093  0.00  0.00    -0.077 S 
BRANCH  24  25
ATOM     25  C   UNL     1      -1.235   6.365   8.794  0.00  0.00    +0.173 C 
BRANCH  25  26
ATOM     26  C   UNL     1      -1.556   7.836   8.851  0.00  0.00    +0.225 C 
ATOM     27  O   UNL     1      -1.889   8.424   7.844  0.00  0.00    -0.275 OA
ATOM     28  N   UNL     1      -1.471   8.499  10.021  0.00  0.00    -0.307 N 
ATOM     29  C   UNL     1      -1.782   9.930  10.077  0.00  0.00    +0.131 C 
ATOM     30  C   UNL     1      -1.067   7.789  11.238  0.00  0.00    +0.131 C 
ENDBRANCH  25  26
ENDBRANCH  24  25
ENDBRANCH  14  24
TORSDOF 5
