REMARK  Name = ZINC36147226
REMARK  5 active torsions:
REMARK  status: ('A' for Active; 'I' for Inactive)
REMARK    1  A    between atoms: C_1  and  C_2
REMARK    2  A    between atoms: C_7  and  S_17
REMARK    3  A    between atoms: C_12  and  C_14
REMARK    4  A    between atoms: S_17  and  N_20
REMARK    5  A    between atoms: N_23  and  C_26
REMARK                            x       y       z     vdW  Elec       q    Type
REMARK                         _______ _______ _______ _____ _____    ______ ____
ROOT
ATOM      1  C   UNL     1      -0.024   1.523   0.014  0.00  0.00    +0.029 C 
ATOM      2  C   UNL     1       0.003  -0.007   0.001  0.00  0.00    +0.083 C 
ATOM      3  C   UNL     1      -1.428  -0.566   0.078  0.00  0.00    +0.059 C 
ATOM      4  C   UNL     1      -1.452  -1.373   1.357  0.00  0.00    -0.022 A 
ATOM      5  C   UNL     1      -2.466  -2.104   1.947  0.00  0.00    +0.034 A 
ATOM      6  C   UNL     1      -2.239  -2.768   3.138  0.00  0.00    +0.106 A 
ATOM      7  C   UNL     1      -0.996  -2.699   3.739  0.00  0.00    +0.030 A 
ATOM      8  C   UNL     1       0.018  -1.971   3.153  0.00  0.00    +0.026 A 
ATOM      9  C   UNL     1      -0.203  -1.298   1.950  0.00  0.00    +0.040 A 
ATOM     10  N   UNL     1       0.680  -0.514   1.197  0.00  0.00    -0.268 N 
ATOM     11  C   UNL     1       1.964  -0.262   1.523  0.00  0.00    +0.223 C 
ATOM     12  O   UNL     1       2.407  -0.648   2.584  0.00  0.00    -0.275 OA
ENDROOT
BRANCH  11  13
ATOM     13  C   UNL     1       2.848   0.499   0.570  0.00  0.00    +0.076 C 
ATOM     14  C   UNL     1       3.388   1.854   1.034  0.00  0.00    +0.013 C 
ATOM     15  C   UNL     1       4.325   0.648   0.941  0.00  0.00    +0.013 C 
ENDBRANCH  11  13
BRANCH   6  16
ATOM     16  S   UNL     1      -3.533  -3.699   3.890  0.00  0.00    +0.061 S 
ATOM     17  O   UNL     1      -3.225  -3.776   5.275  0.00  0.00    -0.153 OA
ATOM     18  O   UNL     1      -4.755  -3.158   3.409  0.00  0.00    -0.153 OA
BRANCH  16  19
ATOM     19  N   UNL     1      -3.433  -5.242   3.296  0.00  0.00    -0.174 NA
ATOM     20  C   UNL     1      -4.158  -5.630   2.077  0.00  0.00    +0.125 C 
ATOM     21  C   UNL     1      -3.171  -6.305   1.118  0.00  0.00    +0.102 C 
ATOM     22  N   UNL     1      -2.492  -7.406   1.814  0.00  0.00    -0.297 NA
ATOM     23  C   UNL     1      -1.691  -6.910   2.941  0.00  0.00    +0.102 C 
ATOM     24  C   UNL     1      -2.612  -6.259   3.971  0.00  0.00    +0.125 C 
BRANCH  22  25
ATOM     25  C   UNL     1      -1.665  -8.186   0.883  0.00  0.00    +0.057 C 
ATOM     26  C   UNL     1      -2.552  -8.774  -0.216  0.00  0.00    +0.019 C 
ATOM     27  C   UNL     1      -1.691  -9.587  -1.185  0.00  0.00    +0.002 C 
ATOM     28  C   UNL     1      -1.001 -10.722  -0.426  0.00  0.00    +0.000 C 
ATOM     29  C   UNL     1      -0.115 -10.134   0.674  0.00  0.00    +0.002 C 
ATOM     30  C   UNL     1      -0.976  -9.321   1.643  0.00  0.00    +0.019 C 
ENDBRANCH  22  25
ENDBRANCH  16  19
ENDBRANCH   6  16
TORSDOF 4
