REMARK  Name = ZINC64243979
REMARK  7 active torsions:
REMARK  status: ('A' for Active; 'I' for Inactive)
REMARK    1  A    between atoms: C_1  and  C_2
REMARK    2  A    between atoms: C_2  and  C_3
REMARK    3  A    between atoms: C_2  and  N_13
REMARK    4  A    between atoms: C_6  and  S_9
REMARK    5  A    between atoms: S_9  and  C_12
REMARK    6  A    between atoms: C_22  and  O_26
REMARK    7  A    between atoms: O_26  and  C_27
REMARK                            x       y       z     vdW  Elec       q    Type
REMARK                         _______ _______ _______ _____ _____    ______ ____
ROOT
ATOM      1  N   UNL     1       0.711  -0.491   1.188  0.00  0.00    -0.293 N 
ATOM      2  C   UNL     1       2.054  -0.600   1.174  0.00  0.00    +0.303 C 
ATOM      3  O   UNL     1       2.670  -0.383   0.148  0.00  0.00    -0.253 OA
ATOM      4  N   UNL     1       2.714  -0.949   2.296  0.00  0.00    -0.281 N 
ATOM      5  C   UNL     1       4.185  -0.967   2.344  0.00  0.00    +0.114 C 
ATOM      6  C   UNL     1       4.635   0.091   3.350  0.00  0.00    +0.054 C 
ATOM      7  C   UNL     1       3.852  -0.021   4.632  0.00  0.00    -0.041 A 
ATOM      8  C   UNL     1       4.400   0.552   5.774  0.00  0.00    +0.007 A 
ATOM      9  C   UNL     1       3.734   0.495   6.978  0.00  0.00    +0.046 A 
ATOM     10  C   UNL     1       2.502  -0.138   7.055  0.00  0.00    +0.120 A 
ATOM     11  C   UNL     1       1.956  -0.712   5.919  0.00  0.00    +0.051 A 
ATOM     12  C   UNL     1       2.633  -0.658   4.709  0.00  0.00    -0.023 A 
ATOM     13  C   UNL     1       1.995  -1.321   3.519  0.00  0.00    +0.144 C 
ATOM     14  H   UNL     1       0.213  -0.735   1.984  0.00  0.00    +0.151 HD
ENDROOT
BRANCH   1  16
ATOM     15  C   UNL     1      -0.020   1.526   0.015  0.00  0.00    +0.033 C 
ATOM     16  C   UNL     1       0.002  -0.004   0.003  0.00  0.00    +0.102 C 
BRANCH  16  17
ATOM     17  C   UNL     1      -1.411  -0.527   0.011  0.00  0.00    -0.027 A 
ATOM     18  C   UNL     1      -2.123  -0.575   1.195  0.00  0.00    +0.007 A 
ATOM     19  C   UNL     1      -3.419  -1.055   1.203  0.00  0.00    +0.027 A 
ATOM     20  C   UNL     1      -4.004  -1.486   0.027  0.00  0.00    +0.088 A 
ATOM     21  C   UNL     1      -3.293  -1.436  -1.157  0.00  0.00    +0.027 A 
ATOM     22  C   UNL     1      -1.998  -0.952  -1.166  0.00  0.00    +0.007 A 
BRANCH  20  23
ATOM     23  S   UNL     1      -5.656  -2.099   0.038  0.00  0.00    -0.006 S 
ATOM     24  O   UNL     1      -5.724  -2.978  -1.076  0.00  0.00    -0.170 OA
ATOM     25  O   UNL     1      -5.854  -2.586   1.358  0.00  0.00    -0.170 OA
ATOM     26  C   UNL     1      -6.696  -0.641  -0.253  0.00  0.00    +0.200 C 
ENDBRANCH  20  23
ENDBRANCH  16  17
ENDBRANCH   1  16
BRANCH  10  27
ATOM     27  O   UNL     1       1.835  -0.196   8.238  0.00  0.00    -0.495 OA
ATOM     28  C   UNL     1       2.461   0.418   9.366  0.00  0.00    +0.277 C 
ENDBRANCH  10  27
TORSDOF 4
