REMARK  Name = ZINC26506447
REMARK  2 active torsions:
REMARK  status: ('A' for Active; 'I' for Inactive)
REMARK    1  A    between atoms: C_6  and  N_7
REMARK    2  A    between atoms: C_11  and  C_17
REMARK                            x       y       z     vdW  Elec       q    Type
REMARK                         _______ _______ _______ _____ _____    ______ ____
ROOT
ATOM      1  N   UNL     1      -1.175  -0.709   0.009  0.00  0.00    -0.235 NA
ATOM      2  C   UNL     1      -1.370  -1.661  -0.858  0.00  0.00    +0.124 C 
ATOM      3  N   UNL     1      -0.364  -2.042  -1.716  0.00  0.00    -0.236 N 
ATOM      4  N   UNL     1      -0.648  -2.210  -3.074  0.00  0.00    -0.212 N 
ATOM      5  C   UNL     1       0.195  -2.357  -4.129  0.00  0.00    +0.255 A 
ATOM      6  N   UNL     1      -0.545  -2.490  -5.199  0.00  0.00    -0.123 NA
ATOM      7  N   UNL     1      -1.796  -2.433  -4.885  0.00  0.00    -0.121 NA
ATOM      8  C   UNL     1      -1.912  -2.259  -3.603  0.00  0.00    +0.210 A 
ATOM      9  S   UNL     1      -3.370  -2.099  -2.619  0.00  0.00    -0.077 S 
ATOM     10  C   UNL     1      -2.708  -2.372  -0.936  0.00  0.00    +0.150 C 
ATOM     11  H   UNL     1       0.534  -2.194  -1.381  0.00  0.00    +0.174 HD
ENDROOT
BRANCH   1  17
ATOM     12  C   UNL     1       0.427   0.614  -1.188  0.00  0.00    +0.029 A 
ATOM     13  C   UNL     1       1.605   1.332  -1.200  0.00  0.00    +0.022 A 
ATOM     14  C   UNL     1       2.358   1.451  -0.044  0.00  0.00    +0.041 A 
ATOM     15  C   UNL     1       1.935   0.851   1.129  0.00  0.00    +0.022 A 
ATOM     16  C   UNL     1       0.758   0.130   1.153  0.00  0.00    +0.029 A 
ATOM     17  C   UNL     1      -0.005   0.007  -0.008  0.00  0.00    +0.066 A 
ATOM     18 CL   UNL     1       3.840   2.355  -0.067  0.00  0.00    -0.084 Cl
ENDBRANCH   1  17
BRANCH   5  19
ATOM     19  C   UNL     1       1.701  -2.366  -4.076  0.00  0.00    +0.454 C 
ATOM     20  F   UNL     1       2.213  -2.196  -5.366  0.00  0.00    -0.163 F 
ATOM     21  F   UNL     1       2.145  -1.322  -3.257  0.00  0.00    -0.163 F 
ATOM     22  F   UNL     1       2.142  -3.587  -3.555  0.00  0.00    -0.163 F 
ENDBRANCH   5  19
TORSDOF 2
