REMARK  Name = ZINC35938788
REMARK  5 active torsions:
REMARK  status: ('A' for Active; 'I' for Inactive)
REMARK    1  A    between atoms: C_3  and  C_8
REMARK    2  A    between atoms: N_17  and  C_18
REMARK    3  A    between atoms: C_18  and  C_19
REMARK    4  A    between atoms: C_19  and  C_20
REMARK    5  A    between atoms: C_28  and  C_30
REMARK                            x       y       z     vdW  Elec       q    Type
REMARK                         _______ _______ _______ _____ _____    ______ ____
ROOT
ATOM      1  C   UNL     1       3.736   2.285  -0.058  0.00  0.00    -0.006 C 
ATOM      2  C   UNL     1       4.325   2.329   1.348  0.00  0.00    -0.047 A 
ATOM      3  C   UNL     1       3.573   2.529   2.503  0.00  0.00    +0.010 A 
ATOM      4  C   UNL     1       4.181   2.549   3.712  0.00  0.00    +0.045 A 
ATOM      5  S   UNL     1       5.891   2.281   3.270  0.00  0.00    -0.101 S 
ATOM      6  C   UNL     1       5.667   2.164   1.518  0.00  0.00    -0.010 A 
ATOM      7  C   UNL     1       6.677   1.942   0.440  0.00  0.00    +0.024 C 
ATOM      8  C   UNL     1       6.001   2.270  -0.903  0.00  0.00    -0.072 C 
ATOM      9  N   UNL     1       4.688   1.613  -0.951  0.00  0.00    +0.388 N 
ATOM     10  H   UNL     1       4.789   0.651  -0.664  0.00  0.00    -0.080 HD
ENDROOT
BRANCH   1  13
ATOM     11  C   UNL     1       0.042   1.507  -0.008  0.00  0.00    +0.003 A 
ATOM     12  C   UNL     1       1.235   2.205  -0.026  0.00  0.00    +0.002 A 
ATOM     13  C   UNL     1       2.436   1.523  -0.038  0.00  0.00    -0.054 A 
ATOM     14  C   UNL     1       2.447   0.141  -0.033  0.00  0.00    +0.040 A 
ATOM     15  C   UNL     1       1.253  -0.560  -0.015  0.00  0.00    +0.124 A 
ATOM     16  C   UNL     1       0.049   0.125  -0.002  0.00  0.00    +0.038 A 
ATOM     17  F   UNL     1       1.261  -1.911  -0.011  0.00  0.00    -0.205 F 
ENDBRANCH   1  13
BRANCH   9  18
ATOM     18  C   UNL     1       4.173   1.655  -2.326  0.00  0.00    -0.068 C 
BRANCH  18  19
ATOM     19  C   UNL     1       5.097   0.850  -3.241  0.00  0.00    +0.077 C 
BRANCH  19  20
ATOM     20  C   UNL     1       4.568   0.893  -4.652  0.00  0.00    +0.214 C 
ATOM     21  O   UNL     1       3.553   1.507  -4.901  0.00  0.00    -0.276 OA
ATOM     22  N   UNL     1       5.224   0.248  -5.638  0.00  0.00    -0.299 N 
ATOM     23  C   UNL     1       6.453  -0.505  -5.350  0.00  0.00    +0.126 C 
ATOM     24  C   UNL     1       6.271  -1.946  -5.845  0.00  0.00    +0.127 C 
ATOM     25  N   UNL     1       5.771  -1.907  -7.226  0.00  0.00    -0.292 N 
ATOM     26  C   UNL     1       4.543  -1.154  -7.514  0.00  0.00    +0.127 C 
ATOM     27  C   UNL     1       4.721   0.282  -7.018  0.00  0.00    +0.126 C 
ATOM     28  C   UNL     1       6.427  -2.552  -8.212  0.00  0.00    +0.282 C 
ATOM     29  O   UNL     1       5.952  -2.596  -9.331  0.00  0.00    -0.267 OA
BRANCH  28  30
ATOM     30  C   UNL     1       7.713  -3.200  -7.934  0.00  0.00    +0.189 A 
ATOM     31  C   UNL     1       8.534  -3.781  -8.858  0.00  0.00    +0.054 A 
ATOM     32  C   UNL     1       9.647  -4.270  -8.157  0.00  0.00    +0.042 A 
ATOM     33  C   UNL     1       9.459  -3.971  -6.853  0.00  0.00    +0.196 A 
ATOM     34  O   UNL     1       8.295  -3.321  -6.723  0.00  0.00    -0.458 OA
ENDBRANCH  28  30
ENDBRANCH  19  20
ENDBRANCH  18  19
ENDBRANCH   9  18
TORSDOF 5
