REMARK  Name = ZINC11881988
REMARK  7 active torsions:
REMARK  status: ('A' for Active; 'I' for Inactive)
REMARK    1  A    between atoms: C_1  and  C_2
REMARK    2  A    between atoms: C_2  and  C_3
REMARK    3  A    between atoms: C_4  and  C_17
REMARK    4  A    between atoms: C_8  and  C_16
REMARK    5  A    between atoms: N_9  and  C_10
REMARK    6  A    between atoms: C_10  and  C_11
REMARK    7  A    between atoms: C_24  and  N_71
REMARK                            x       y       z     vdW  Elec       q    Type
REMARK                         _______ _______ _______ _____ _____    ______ ____
ROOT
ATOM      1  C   UNL     1      -4.423   3.509   4.502  0.00  0.00    +0.252 C 
ATOM      2  O   UNL     1      -5.543   3.858   4.821  0.00  0.00    -0.270 OA
ATOM      3  N   UNL     1      -3.861   2.432   5.086  0.00  0.00    -0.301 N 
ATOM      4  C   UNL     1      -2.510   1.989   4.710  0.00  0.00    +0.089 C 
ATOM      5  C   UNL     1      -1.681   1.827   5.995  0.00  0.00    -0.059 C 
ATOM      6  C   UNL     1      -3.676   1.513   7.337  0.00  0.00    -0.059 C 
ATOM      7  C   UNL     1      -4.585   1.665   6.112  0.00  0.00    +0.089 C 
ATOM      8  N   UNL     1      -2.397   0.908   6.907  0.00  0.00    +0.385 N 
ATOM      9  H   UNL     1      -2.593   0.032   6.409  0.00  0.00    -0.081 HD
ENDROOT
BRANCH   8  10
ATOM     10  C   UNL     1      -1.557   0.613   8.086  0.00  0.00    -0.065 C 
ATOM     11  C   UNL     1      -1.286   1.888   8.886  0.00  0.00    -0.009 C 
ATOM     12  C   UNL     1      -0.416   1.553  10.100  0.00  0.00    -0.012 C 
ATOM     13  C   UNL     1       0.910   0.955   9.628  0.00  0.00    +0.007 C 
ATOM     14  C   UNL     1       0.638  -0.321   8.828  0.00  0.00    -0.012 C 
ATOM     15  C   UNL     1      -0.231   0.015   7.614  0.00  0.00    -0.009 C 
ATOM     16  C   UNL     1      -0.091  -1.333   9.713  0.00  0.00    +0.007 C 
ATOM     17  C   UNL     1      -1.418  -0.735  10.185  0.00  0.00    -0.012 C 
ATOM     18  C   UNL     1      -1.146   0.541  10.986  0.00  0.00    +0.007 C 
ATOM     19  C   UNL     1      -2.287  -0.399   8.971  0.00  0.00    -0.009 C 
ENDBRANCH   8  10
BRANCH   1  21
ATOM     20  C   UNL     1      -3.785   3.932   2.141  0.00  0.00    +0.035 A 
ATOM     21  C   UNL     1      -3.681   4.262   3.477  0.00  0.00    +0.103 A 
ATOM     22  C   UNL     1      -2.813   5.390   3.850  0.00  0.00    +0.194 A 
ATOM     23  O   UNL     1      -2.686   5.729   5.016  0.00  0.00    -0.287 OA
ATOM     24  C   UNL     1      -2.128   6.070   2.812  0.00  0.00    +0.072 A 
ATOM     25  C   UNL     1      -2.294   5.666   1.536  0.00  0.00    +0.020 A 
ATOM     26  N   UNL     1      -3.099   4.623   1.215  0.00  0.00    -0.342 N 
ATOM     27  C   UNL     1      -1.564   6.393   0.437  0.00  0.00    +0.063 C 
BRANCH  20  29
ATOM     28  C   UNL     1      -3.828   1.516   1.586  0.00  0.00    +0.010 C 
ATOM     29  C   UNL     1      -4.669   2.787   1.719  0.00  0.00    +0.051 C 
ENDBRANCH  20  29
BRANCH  26  30
ATOM     30  C   UNL     1      -3.231   4.240  -0.192  0.00  0.00    +0.164 C 
BRANCH  30  31
ATOM     31  C   UNL     1      -4.273   5.105  -0.853  0.00  0.00    +0.009 A 
ATOM     32  C   UNL     1      -4.108   6.247  -1.565  0.00  0.00    +0.013 A 
ATOM     33  C   UNL     1      -5.223   6.881  -2.082  0.00  0.00    +0.008 A 
ATOM     34  C   UNL     1      -6.446   6.336  -1.871  0.00  0.00    +0.045 A 
ATOM     35  S   UNL     1      -6.044   4.886  -0.910  0.00  0.00    -0.100 S 
ENDBRANCH  30  31
ENDBRANCH  26  30
ENDBRANCH   1  21
TORSDOF 5
