REMARK  Name = ZINC64131555
REMARK  9 active torsions:
REMARK  status: ('A' for Active; 'I' for Inactive)
REMARK    1  A    between atoms: C_1  and  C_2
REMARK    2  A    between atoms: C_11  and  C_13
REMARK    3  A    between atoms: N_15  and  C_16
REMARK    4  A    between atoms: C_16  and  C_17
REMARK    5  A    between atoms: C_17  and  C_18
REMARK    6  A    between atoms: C_17  and  C_19
REMARK    7  A    between atoms: N_20  and  C_21
REMARK    8  A    between atoms: C_21  and  C_22
REMARK    9  A    between atoms: C_22  and  C_23
REMARK                            x       y       z     vdW  Elec       q    Type
REMARK                         _______ _______ _______ _____ _____    ______ ____
ROOT
ATOM      1  C   UNL     1      -0.208   1.582   0.318  0.00  0.00    +0.014 C 
ATOM      2  C   UNL     1      -0.133   0.063   0.154  0.00  0.00    +0.044 C 
ATOM      3  C   UNL     1      -1.503  -0.523   0.371  0.00  0.00    +0.028 A 
ATOM      4  C   UNL     1      -2.571  -0.569  -0.541  0.00  0.00    +0.126 A 
ATOM      5  N   UNL     1      -3.725  -1.113  -0.176  0.00  0.00    -0.221 NA
ATOM      6  C   UNL     1      -3.902  -1.617   1.029  0.00  0.00    +0.224 A 
ATOM      7  N   UNL     1      -2.928  -1.604   1.920  0.00  0.00    -0.229 NA
ATOM      8  C   UNL     1      -1.748  -1.085   1.622  0.00  0.00    +0.106 A 
ATOM      9  S   UNL     1      -0.235  -0.940   2.544  0.00  0.00    -0.092 S 
ATOM     10  C   UNL     1       0.895  -0.503   1.162  0.00  0.00    +0.146 C 
ATOM     11  N   UNL     1      -2.420  -0.047  -1.817  0.00  0.00    -0.328 N 
ATOM     12  H   UNL     1      -1.576   0.351  -2.081  0.00  0.00    +0.147 HD
ENDROOT
BRANCH  10  13
ATOM     13  C   UNL     1       1.890   0.549   1.580  0.00  0.00    +0.227 C 
ATOM     14  O   UNL     1       2.905   0.712   0.937  0.00  0.00    -0.275 OA
ATOM     15  N   UNL     1       1.652   1.307   2.669  0.00  0.00    -0.314 N 
ATOM     16  H   UNL     1       0.840   1.176   3.183  0.00  0.00    +0.149 HD
BRANCH  15  17
ATOM     17  C   UNL     1       2.619   2.329   3.075  0.00  0.00    +0.107 C 
BRANCH  17  18
ATOM     18  C   UNL     1       2.112   3.041   4.331  0.00  0.00    -0.000 C 
ATOM     19  C   UNL     1       3.177   4.021   4.827  0.00  0.00    +0.009 C 
ATOM     20  C   UNL     1       0.829   3.807   4.000  0.00  0.00    +0.009 C 
ENDBRANCH  17  18
ENDBRANCH  15  17
ENDBRANCH  10  13
BRANCH  11  21
ATOM     21  C   UNL     1      -3.535  -0.097  -2.765  0.00  0.00    +0.107 C 
BRANCH  21  22
ATOM     22  C   UNL     1      -3.108   0.541  -4.088  0.00  0.00    +0.052 C 
BRANCH  22  23
ATOM     23  C   UNL     1      -4.256   0.490  -5.064  0.00  0.00    -0.040 C 
ATOM     24  C   UNL     1      -5.160   1.465  -5.308  0.00  0.00    -0.001 A 
ATOM     25  C   UNL     1      -5.340   2.814  -4.758  0.00  0.00    +0.010 A 
ATOM     26  C   UNL     1      -6.362   3.576  -5.209  0.00  0.00    +0.001 A 
ATOM     27  C   UNL     1      -7.253   3.110  -6.186  0.00  0.00    +0.002 A 
ATOM     28  C   UNL     1      -7.152   1.883  -6.739  0.00  0.00    +0.026 A 
ATOM     29  C   UNL     1      -6.114   0.997  -6.339  0.00  0.00    +0.043 A 
ATOM     30  N   UNL     1      -5.810  -0.220  -6.718  0.00  0.00    -0.380 N 
ATOM     31  C   UNL     1      -4.625  -0.661  -5.974  0.00  0.00    +0.144 C 
ATOM     32  H   UNL     1      -6.287  -0.742  -7.383  0.00  0.00    +0.160 HD
ENDBRANCH  22  23
ENDBRANCH  21  22
ENDBRANCH  11  21
TORSDOF 6
