REMARK  Name = ZINC15321589
REMARK  5 active torsions:
REMARK  status: ('A' for Active; 'I' for Inactive)
REMARK    1  A    between atoms: C_1  and  C_2
REMARK    2  A    between atoms: C_2  and  C_3
REMARK    3  A    between atoms: C_6  and  N_9
REMARK    4  A    between atoms: C_13  and  N_17
REMARK    5  A    between atoms: N_27  and  C_28
REMARK                            x       y       z     vdW  Elec       q    Type
REMARK                         _______ _______ _______ _____ _____    ______ ____
ROOT
ATOM      1  N   UNL     1      -8.464  -1.729  -1.117  0.00  0.00    -0.291 NA
ATOM      2  C   UNL     1      -9.764  -2.123  -0.560  0.00  0.00    +0.088 C 
ATOM      3  C   UNL     1     -10.803  -1.044  -0.875  0.00  0.00    +0.051 C 
ATOM      4  C   UNL     1     -10.899  -0.864  -2.390  0.00  0.00    +0.115 C 
ATOM      5  C   UNL     1      -9.524  -0.512  -2.959  0.00  0.00    +0.051 C 
ATOM      6  C   UNL     1      -8.525  -1.607  -2.579  0.00  0.00    +0.088 C 
ATOM      7  C   UNL     1     -11.416  -2.126  -3.030  0.00  0.00    +0.238 C 
ATOM      8  O   UNL     1     -10.880  -3.212  -2.978  0.00  0.00    -0.273 OA
ATOM      9  N   UNL     1     -12.568  -1.854  -3.667  0.00  0.00    -0.298 N 
ATOM     10  C   UNL     1     -12.910  -0.440  -3.516  0.00  0.00    +0.214 C 
ATOM     11  N   UNL     1     -11.861   0.198  -2.709  0.00  0.00    -0.300 N 
ATOM     12  H   UNL     1     -13.097  -2.503  -4.158  0.00  0.00    +0.150 HD
ENDROOT
BRANCH   1  17
ATOM     13  N   UNL     1      -5.323  -1.969   0.042  0.00  0.00    -0.209 N 
ATOM     14  C   UNL     1      -5.961  -2.308   1.169  0.00  0.00    +0.228 C 
ATOM     15  O   UNL     1      -5.497  -2.240   2.287  0.00  0.00    -0.275 OA
ATOM     16  C   UNL     1      -7.354  -2.790   0.826  0.00  0.00    +0.125 C 
ATOM     17  C   UNL     1      -7.410  -2.669  -0.710  0.00  0.00    +0.153 C 
ATOM     18  C   UNL     1      -6.045  -2.126  -1.074  0.00  0.00    +0.244 C 
ATOM     19  O   UNL     1      -5.665  -1.876  -2.197  0.00  0.00    -0.273 OA
BRANCH  13  23
ATOM     20  C   UNL     1      -1.412  -0.524   0.014  0.00  0.00    -0.048 A 
ATOM     21  C   UNL     1      -2.458   0.308  -0.342  0.00  0.00    +0.005 A 
ATOM     22  C   UNL     1      -3.755  -0.168  -0.334  0.00  0.00    +0.024 A 
ATOM     23  C   UNL     1      -4.008  -1.483   0.032  0.00  0.00    +0.044 A 
ATOM     24  C   UNL     1      -2.956  -2.316   0.389  0.00  0.00    +0.024 A 
ATOM     25  C   UNL     1      -1.661  -1.836   0.374  0.00  0.00    +0.005 A 
BRANCH  20  27
ATOM     26  C   UNL     1       0.619  -0.230  -1.377  0.00  0.00    +0.009 C 
ATOM     27  C   UNL     1       0.001  -0.002   0.004  0.00  0.00    +0.032 C 
ENDBRANCH  20  27
ENDBRANCH  13  23
ENDBRANCH   1  17
BRANCH  11  28
ATOM     28  C   UNL     1     -11.793   1.539  -2.325  0.00  0.00    +0.032 A 
ATOM     29  C   UNL     1     -10.724   1.990  -1.561  0.00  0.00    +0.023 A 
ATOM     30  C   UNL     1     -10.660   3.317  -1.183  0.00  0.00    +0.002 A 
ATOM     31  C   UNL     1     -11.658   4.195  -1.563  0.00  0.00    +0.000 A 
ATOM     32  C   UNL     1     -12.723   3.749  -2.324  0.00  0.00    +0.002 A 
ATOM     33  C   UNL     1     -12.790   2.425  -2.711  0.00  0.00    +0.023 A 
ENDBRANCH  11  28
TORSDOF 4
