REMARK  Name = ZINC04346605
REMARK  6 active torsions:
REMARK  status: ('A' for Active; 'I' for Inactive)
REMARK    1  A    between atoms: C_1  and  C_2
REMARK    2  A    between atoms: C_2  and  C_3
REMARK    3  A    between atoms: C_2  and  C_4
REMARK    4  A    between atoms: C_4  and  N_5
REMARK    5  A    between atoms: C_11  and  C_18
REMARK    6  A    between atoms: N_16  and  C_17
REMARK                            x       y       z     vdW  Elec       q    Type
REMARK                         _______ _______ _______ _____ _____    ______ ____
ROOT
ATOM      1  N   UNL     1       1.514   5.486   0.017  0.00  0.00    -0.292 N 
ATOM      2  C   UNL     1       0.058   5.277   0.030  0.00  0.00    +0.159 C 
ATOM      3  C   UNL     1      -0.119   3.775   0.024  0.00  0.00    +0.042 C 
ATOM      4  C   UNL     1       1.121   3.247   0.009  0.00  0.00    +0.058 C 
ATOM      5  C   UNL     1       2.091   4.271   0.005  0.00  0.00    +0.247 C 
ATOM      6  O   UNL     1       3.293   4.080  -0.007  0.00  0.00    -0.270 OA
ATOM      7  C   UNL     1       1.244   1.736  -0.001  0.00  0.00    +0.142 C 
ATOM      8  N   UNL     1      -0.011   0.966   0.007  0.00  0.00    -0.288 N 
ATOM      9  C   UNL     1      -1.178   1.640   0.017  0.00  0.00    +0.307 C 
ATOM     10  O   UNL     1      -2.220   1.012   0.018  0.00  0.00    -0.252 OA
ATOM     11  N   UNL     1      -1.228   2.978   0.030  0.00  0.00    -0.260 N 
ATOM     12  C   UNL     1      -2.544   3.622   0.046  0.00  0.00    +0.139 C 
ATOM     13  H   UNL     1       0.002  -0.004   0.002  0.00  0.00    +0.151 HD
ENDROOT
BRANCH   7  14
ATOM     14  C   UNL     1       2.048   1.328   1.207  0.00  0.00    -0.023 A 
ATOM     15  C   UNL     1       1.416   1.116   2.418  0.00  0.00    +0.006 A 
ATOM     16  C   UNL     1       2.153   0.737   3.525  0.00  0.00    +0.000 A 
ATOM     17  C   UNL     1       3.522   0.579   3.422  0.00  0.00    +0.000 A 
ATOM     18  C   UNL     1       4.154   0.796   2.212  0.00  0.00    +0.000 A 
ATOM     19  C   UNL     1       3.417   1.171   1.105  0.00  0.00    +0.006 A 
ENDBRANCH   7  14
BRANCH   1  20
ATOM     20  C   UNL     1       2.206   6.777   0.018  0.00  0.00    +0.111 C 
BRANCH  20  22
ATOM     21  C   UNL     1       3.429   6.239   2.130  0.00  0.00    +0.009 C 
ATOM     22  C   UNL     1       2.461   7.218   1.461  0.00  0.00    +0.000 C 
ATOM     23  C   UNL     1       3.071   8.621   1.465  0.00  0.00    +0.009 C 
ENDBRANCH  20  22
ENDBRANCH   1  20
TORSDOF 3
