REMARK  Name = ZINC08584075
REMARK  9 active torsions:
REMARK  status: ('A' for Active; 'I' for Inactive)
REMARK    1  A    between atoms: C_1  and  C_2
REMARK    2  A    between atoms: C_7  and  C_8
REMARK    3  A    between atoms: C_7  and  C_9
REMARK    4  A    between atoms: C_11  and  O_13
REMARK    5  A    between atoms: O_13  and  C_14
REMARK    6  A    between atoms: C_14  and  C_16
REMARK    7  A    between atoms: C_16  and  S_17
REMARK    8  A    between atoms: S_17  and  C_18
REMARK    9  A    between atoms: C_20  and  N_25
REMARK                            x       y       z     vdW  Elec       q    Type
REMARK                         _______ _______ _______ _____ _____    ______ ____
ROOT
ATOM      1  C   UNL     1      -3.564  -0.071   0.737  0.00  0.00    +0.318 C 
ATOM      2  O   UNL     1      -3.977  -0.654  -0.238  0.00  0.00    -0.250 OA
ENDROOT
BRANCH   1   3
ATOM      3  O   UNL     1      -2.246  -0.034   0.988  0.00  0.00    -0.460 OA
BRANCH   3  13
ATOM      4  C   UNL     1      -0.019   1.526   0.010  0.00  0.00    +0.015 C 
ATOM      5  C   UNL     1       0.002  -0.004   0.002  0.00  0.00    +0.010 C 
ATOM      6  C   UNL     1       0.744  -0.669  -1.197  0.00  0.00    +0.011 C 
ATOM      7  C   UNL     1       1.062  -2.103  -0.714  0.00  0.00    +0.005 C 
ATOM      8  C   UNL     1       0.481  -2.169   0.732  0.00  0.00    -0.001 C 
ATOM      9  C   UNL     1       0.727  -0.695   1.211  0.00  0.00    -0.023 C 
ATOM     10  C   UNL     1       0.031  -0.400   2.541  0.00  0.00    +0.012 C 
ATOM     11  C   UNL     1       2.216  -0.348   1.260  0.00  0.00    +0.012 C 
ATOM     12  C   UNL     1      -1.065  -2.175   0.532  0.00  0.00    +0.049 C 
ATOM     13  C   UNL     1      -1.389  -0.705   0.062  0.00  0.00    +0.183 C 
ENDBRANCH   3  13
ENDBRANCH   1   3
BRANCH   1  14
ATOM     14  C   UNL     1      -4.529   0.615   1.669  0.00  0.00    +0.197 C 
BRANCH  14  15
ATOM     15  S   UNL     1      -6.223   0.386   1.062  0.00  0.00    -0.076 S 
BRANCH  15  16
ATOM     16  C   UNL     1      -7.217   1.234   2.244  0.00  0.00    +0.171 A 
ATOM     17  N   UNL     1      -6.637   1.836   3.262  0.00  0.00    -0.209 NA
ATOM     18  C   UNL     1      -7.357   2.490   4.181  0.00  0.00    +0.124 A 
ATOM     19  C   UNL     1      -8.739   2.539   4.066  0.00  0.00    +0.113 A 
ATOM     20  C   UNL     1      -9.347   1.898   2.982  0.00  0.00    +0.254 A 
ATOM     21  N   UNL     1      -8.570   1.258   2.084  0.00  0.00    -0.302 N 
ATOM     22  O   UNL     1     -10.561   1.920   2.849  0.00  0.00    -0.268 OA
ATOM     23  H   UNL     1      -8.975   0.812   1.324  0.00  0.00    +0.171 HD
BRANCH  18  24
ATOM     24  N   UNL     1      -6.727   3.113   5.240  0.00  0.00    -0.343 N 
ATOM     25  H   UNL     1      -5.761   3.077   5.319  0.00  0.00    +0.144 HD
ATOM     26  H   UNL     1      -7.251   3.587   5.905  0.00  0.00    +0.144 HD
ENDBRANCH  18  24
ENDBRANCH  15  16
ENDBRANCH  14  15
ENDBRANCH   1  14
TORSDOF 6
