REMARK  Name = ZINC37250115
REMARK  5 active torsions:
REMARK  status: ('A' for Active; 'I' for Inactive)
REMARK    1  A    between atoms: C_1  and  C_2
REMARK    2  A    between atoms: C_5  and  C_11
REMARK    3  A    between atoms: C_7  and  N_8
REMARK    4  A    between atoms: C_11  and  N_12
REMARK    5  A    between atoms: N_12  and  C_13
REMARK                            x       y       z     vdW  Elec       q    Type
REMARK                         _______ _______ _______ _____ _____    ______ ____
ROOT
ATOM      1  C   UNL     1       0.578  -4.220  -0.099  0.00  0.00    +0.137 C 
ENDROOT
BRANCH   1   6
ATOM      2  C   UNL     1      -0.537   1.447   0.088  0.00  0.00    +0.046 C 
ATOM      3  C   UNL     1      -0.246  -0.031   0.039  0.00  0.00    -0.020 A 
ATOM      4  C   UNL     1      -0.347  -0.716  -1.157  0.00  0.00    +0.006 A 
ATOM      5  C   UNL     1      -0.080  -2.071  -1.202  0.00  0.00    +0.005 A 
ATOM      6  C   UNL     1       0.288  -2.742  -0.051  0.00  0.00    -0.028 A 
ATOM      7  C   UNL     1       0.390  -2.057   1.145  0.00  0.00    +0.038 A 
ATOM      8  C   UNL     1       0.127  -0.700   1.190  0.00  0.00    +0.129 A 
BRANCH   8   9
ATOM      9  N   UNL     1       0.241   0.035   2.470  0.00  0.00    +0.057 N 
ATOM     10  O   UNL     1       0.674   1.163   2.482  0.00  0.00    -0.126 OA
ATOM     11  O   UNL     1      -0.099  -0.494   3.502  0.00  0.00    -0.126 OA
ENDBRANCH   8   9
ENDBRANCH   1   6
BRANCH   1  12
ATOM     12  N   UNL     1       2.000  -4.429  -0.383  0.00  0.00    -0.339 N 
ATOM     13  H   UNL     1       2.588  -3.667  -0.505  0.00  0.00    +0.146 HD
BRANCH  12  14
ATOM     14  C   UNL     1       2.510  -5.729  -0.477  0.00  0.00    +0.046 A 
ATOM     15  C   UNL     1       1.669  -6.820  -0.307  0.00  0.00    +0.027 A 
ATOM     16  C   UNL     1       2.175  -8.102  -0.401  0.00  0.00    +0.040 A 
ATOM     17  C   UNL     1       3.520  -8.300  -0.663  0.00  0.00    +0.125 A 
ATOM     18  C   UNL     1       4.362  -7.213  -0.832  0.00  0.00    +0.060 A 
ATOM     19  C   UNL     1       3.859  -5.929  -0.746  0.00  0.00    +0.064 A 
ATOM     20 CL   UNL     1       4.912  -4.567  -0.966  0.00  0.00    -0.082 Cl
ATOM     21  F   UNL     1       4.013  -9.555  -0.752  0.00  0.00    -0.205 F 
ENDBRANCH  12  14
ENDBRANCH   1  12
TORSDOF 4
