REMARK  Name = ZINC18055368
REMARK  9 active torsions:
REMARK  status: ('A' for Active; 'I' for Inactive)
REMARK    1  A    between atoms: C_1  and  C_2
REMARK    2  A    between atoms: C_8  and  C_30
REMARK    3  A    between atoms: C_12  and  C_13
REMARK    4  A    between atoms: N_15  and  N_16
REMARK    5  A    between atoms: C_17  and  C_19
REMARK    6  A    between atoms: C_19  and  C_21
REMARK    7  A    between atoms: C_19  and  O_22
REMARK    8  A    between atoms: O_22  and  C_23
REMARK    9  A    between atoms: C_30  and  C_31
REMARK                            x       y       z     vdW  Elec       q    Type
REMARK                         _______ _______ _______ _____ _____    ______ ____
ROOT
ATOM      1  C   UNL     1       1.780  -1.637   0.669  0.00  0.00    +0.046 C 
ATOM      2  C   UNL     1       1.281  -0.228   0.862  0.00  0.00    -0.017 A 
ATOM      3  C   UNL     1       2.185   0.808   1.103  0.00  0.00    +0.076 A 
ATOM      4  C   UNL     1       3.661   0.757   1.209  0.00  0.00    +0.260 A 
ATOM      5  O   UNL     1       4.260  -0.296   1.082  0.00  0.00    -0.267 OA
ATOM      6  N   UNL     1       4.324   1.905   1.448  0.00  0.00    -0.310 N 
ATOM      7  H   UNL     1       5.292   1.888   1.520  0.00  0.00    +0.170 HD
ATOM      8  C   UNL     1       3.668   3.083   1.591  0.00  0.00    +0.115 A 
ATOM      9  N   UNL     1       2.368   3.163   1.504  0.00  0.00    -0.226 NA
ATOM     10  C   UNL     1       1.619   2.093   1.270  0.00  0.00    +0.116 A 
ATOM     11  S   UNL     1      -0.122   1.798   1.086  0.00  0.00    -0.064 S 
ATOM     12  C   UNL     1      -0.056   0.037   0.801  0.00  0.00    +0.081 A 
ENDROOT
BRANCH  12  13
ATOM     13  C   UNL     1      -1.164  -0.893   0.562  0.00  0.00    +0.267 C 
ATOM     14  O   UNL     1      -0.938  -2.075   0.384  0.00  0.00    -0.268 OA
ATOM     15  N   UNL     1      -2.432  -0.438   0.538  0.00  0.00    -0.230 N 
ATOM     16  H   UNL     1      -2.612   0.505   0.679  0.00  0.00    +0.173 HD
BRANCH  15  17
ATOM     17  N   UNL     1      -3.491  -1.327   0.309  0.00  0.00    -0.231 N 
ATOM     18  C   UNL     1      -4.760  -0.872   0.285  0.00  0.00    +0.270 C 
ATOM     19  O   UNL     1      -4.985   0.307   0.462  0.00  0.00    -0.270 OA
ATOM     20  H   UNL     1      -3.311  -2.269   0.167  0.00  0.00    +0.173 HD
BRANCH  18  21
ATOM     21  C   UNL     1      -5.898  -1.827   0.038  0.00  0.00    +0.257 C 
ATOM     22  C   UNL     1      -5.987  -2.824   1.196  0.00  0.00    +0.062 C 
BRANCH  21  23
ATOM     23  O   UNL     1      -7.122  -1.096  -0.056  0.00  0.00    -0.477 OA
BRANCH  23  24
ATOM     24  C   UNL     1      -8.131  -1.670  -0.764  0.00  0.00    +0.157 A 
ATOM     25  C   UNL     1      -7.987  -2.957  -1.260  0.00  0.00    +0.048 A 
ATOM     26  C   UNL     1      -9.014  -3.538  -1.979  0.00  0.00    +0.004 A 
ATOM     27  C   UNL     1     -10.185  -2.839  -2.204  0.00  0.00    +0.003 A 
ATOM     28  C   UNL     1     -10.333  -1.556  -1.711  0.00  0.00    +0.042 A 
ATOM     29  C   UNL     1      -9.310  -0.970  -0.987  0.00  0.00    +0.165 A 
ATOM     30  F   UNL     1      -9.456   0.282  -0.501  0.00  0.00    -0.202 F 
ENDBRANCH  23  24
ENDBRANCH  21  23
ENDBRANCH  18  21
ENDBRANCH  15  17
ENDBRANCH  12  13
BRANCH   8  31
ATOM     31  C   UNL     1       4.462   4.335   1.858  0.00  0.00    +0.109 C 
BRANCH  31  32
ATOM     32  C   UNL     1       3.524   5.509   1.978  0.00  0.00    -0.040 A 
ATOM     33  C   UNL     1       3.189   6.244   0.857  0.00  0.00    +0.004 A 
ATOM     34  C   UNL     1       2.325   7.317   0.966  0.00  0.00    +0.000 A 
ATOM     35  C   UNL     1       1.804   7.661   2.199  0.00  0.00    +0.000 A 
ATOM     36  C   UNL     1       2.143   6.930   3.322  0.00  0.00    +0.000 A 
ATOM     37  C   UNL     1       3.003   5.853   3.211  0.00  0.00    +0.004 A 
ENDBRANCH  31  32
ENDBRANCH   8  31
TORSDOF 7
