REMARK  Name = ZINC05724628
REMARK  10 active torsions:
REMARK  status: ('A' for Active; 'I' for Inactive)
REMARK    1  A    between atoms: C_1  and  C_2
REMARK    2  A    between atoms: N_5  and  C_7
REMARK    3  A    between atoms: C_7  and  C_8
REMARK    4  A    between atoms: C_15  and  N_31
REMARK    5  A    between atoms: C_16  and  C_29
REMARK    6  A    between atoms: C_17  and  C_19
REMARK    7  A    between atoms: C_22  and  O_27
REMARK    8  A    between atoms: C_23  and  O_25
REMARK    9  A    between atoms: O_25  and  C_26
REMARK   10  A    between atoms: O_27  and  C_28
REMARK                            x       y       z     vdW  Elec       q    Type
REMARK                         _______ _______ _______ _____ _____    ______ ____
ROOT
ATOM      1  C   UNL     1      -5.467   4.637   0.795  0.00  0.00    +0.068 C 
ATOM      2  C   UNL     1      -4.912   3.242   0.659  0.00  0.00    +0.068 A 
ATOM      3  C   UNL     1      -3.604   2.914   0.329  0.00  0.00    +0.049 A 
ATOM      4  C   UNL     1      -3.503   1.551   0.307  0.00  0.00    +0.225 A 
ATOM      5  N   UNL     1      -4.710   1.049   0.612  0.00  0.00    -0.228 N 
ATOM      6  N   UNL     1      -5.582   2.127   0.830  0.00  0.00    -0.173 NA
ATOM      7  O   UNL     1      -2.344   0.908   0.018  0.00  0.00    -0.423 OA
ATOM      8  C   UNL     1      -1.209   1.636   0.017  0.00  0.00    +0.200 C 
ATOM      9  C   UNL     1      -1.182   2.987   0.029  0.00  0.00    +0.098 C 
ATOM     10  C   UNL     1      -2.439   3.821   0.030  0.00  0.00    +0.101 C 
ENDROOT
BRANCH  10  11
ATOM     11  C   UNL     1      -2.629   4.466  -1.318  0.00  0.00    -0.031 A 
ATOM     12  C   UNL     1      -2.729   3.680  -2.451  0.00  0.00    +0.008 A 
ATOM     13  C   UNL     1      -2.909   4.267  -3.690  0.00  0.00    +0.050 A 
ATOM     14  C   UNL     1      -2.979   5.646  -3.799  0.00  0.00    +0.162 A 
ATOM     15  C   UNL     1      -2.872   6.438  -2.660  0.00  0.00    +0.162 A 
ATOM     16  C   UNL     1      -2.697   5.843  -1.421  0.00  0.00    +0.054 A 
BRANCH  15  17
ATOM     17  O   UNL     1      -2.939   7.793  -2.762  0.00  0.00    -0.491 OA
ATOM     18  C   UNL     1      -2.822   8.541  -1.551  0.00  0.00    +0.277 C 
ENDBRANCH  15  17
BRANCH  14  19
ATOM     19  O   UNL     1      -3.150   6.225  -5.018  0.00  0.00    -0.491 OA
ATOM     20  C   UNL     1      -3.251   5.351  -6.143  0.00  0.00    +0.277 C 
ENDBRANCH  14  19
ENDBRANCH  10  11
BRANCH   8  21
ATOM     21  N   UNL     1      -0.011   0.966   0.007  0.00  0.00    -0.328 N 
ATOM     22  H   UNL     1       0.002  -0.004   0.002  0.00  0.00    +0.145 HD
ATOM     23  H   UNL     1       0.822   1.462   0.002  0.00  0.00    +0.145 HD
ENDBRANCH   8  21
BRANCH   9  24
ATOM     24  C   UNL     1       0.086   3.651   0.037  0.00  0.00    +0.101 C 
ATOM     25  N   UNL     1       1.093   4.178   0.043  0.00  0.00    -0.191 NA
ENDBRANCH   9  24
BRANCH   5  26
ATOM     26  C   UNL     1      -5.056  -0.372   0.702  0.00  0.00    +0.182 C 
BRANCH  26  27
ATOM     27  C   UNL     1      -4.827  -0.857   2.111  0.00  0.00    -0.026 A 
ATOM     28  C   UNL     1      -3.598  -1.376   2.472  0.00  0.00    +0.005 A 
ATOM     29  C   UNL     1      -3.387  -1.816   3.766  0.00  0.00    +0.000 A 
ATOM     30  C   UNL     1      -4.408  -1.745   4.695  0.00  0.00    +0.000 A 
ATOM     31  C   UNL     1      -5.639  -1.231   4.332  0.00  0.00    +0.000 A 
ATOM     32  C   UNL     1      -5.848  -0.787   3.040  0.00  0.00    +0.005 A 
ENDBRANCH  26  27
ENDBRANCH   5  26
TORSDOF 7
