REMARK  Name = ZINC08555133
REMARK  4 active torsions:
REMARK  status: ('A' for Active; 'I' for Inactive)
REMARK    1  A    between atoms: C_1  and  C_2
REMARK    2  A    between atoms: N_16  and  C_23
REMARK    3  A    between atoms: N_19  and  C_22
REMARK    4  A    between atoms: C_25  and  C_27
REMARK                            x       y       z     vdW  Elec       q    Type
REMARK                         _______ _______ _______ _____ _____    ______ ____
ROOT
ATOM      1  C   UNL     1      -1.671   0.501   1.999  0.00  0.00    +0.109 C 
ATOM      2  C   UNL     1      -2.612   0.424   0.824  0.00  0.00    +0.217 C 
ATOM      3  O   UNL     1      -3.592  -0.289   0.877  0.00  0.00    -0.276 OA
ATOM      4  N   UNL     1      -2.364   1.147  -0.286  0.00  0.00    -0.262 N 
ATOM      5  C   UNL     1      -1.236   1.974  -0.361  0.00  0.00    +0.058 A 
ATOM      6  C   UNL     1       0.031   1.431  -0.498  0.00  0.00    +0.025 A 
ATOM      7  C   UNL     1       1.128   2.265  -0.619  0.00  0.00    +0.002 A 
ATOM      8  C   UNL     1       0.965   3.639  -0.598  0.00  0.00    +0.002 A 
ATOM      9  C   UNL     1      -0.294   4.189  -0.448  0.00  0.00    +0.025 A 
ATOM     10  C   UNL     1      -1.398   3.361  -0.318  0.00  0.00    +0.053 A 
ATOM     11  N   UNL     1      -2.674   3.894  -0.121  0.00  0.00    -0.316 N 
ATOM     12  C   UNL     1      -3.716   3.464  -0.880  0.00  0.00    +0.028 C 
ATOM     13  C   UNL     1      -4.992   3.927  -0.615  0.00  0.00    +0.116 C 
ATOM     14  C   UNL     1      -6.175   3.340  -1.268  0.00  0.00    +0.260 C 
ATOM     15  O   UNL     1      -6.060   2.426  -2.063  0.00  0.00    -0.269 OA
ATOM     16  N   UNL     1      -7.388   3.839  -0.957  0.00  0.00    -0.224 N 
ATOM     17  C   UNL     1      -7.529   4.849  -0.086  0.00  0.00    +0.317 C 
ATOM     18  O   UNL     1      -8.650   5.255   0.147  0.00  0.00    -0.252 OA
ATOM     19  N   UNL     1      -6.498   5.434   0.539  0.00  0.00    -0.224 N 
ATOM     20  C   UNL     1      -5.227   5.034   0.329  0.00  0.00    +0.260 C 
ATOM     21  O   UNL     1      -4.299   5.573   0.904  0.00  0.00    -0.269 OA
ATOM     22  C   UNL     1      -6.758   6.532   1.473  0.00  0.00    +0.143 C 
ATOM     23  C   UNL     1      -8.581   3.268  -1.589  0.00  0.00    +0.143 C 
ATOM     24  C   UNL     1      -3.494   2.483  -2.001  0.00  0.00    +0.079 C 
ATOM     25  C   UNL     1      -3.269   1.080  -1.436  0.00  0.00    +0.117 C 
ATOM     26  H   UNL     1      -2.837   4.663   0.648  0.00  0.00    +0.152 HD
ENDROOT
BRANCH  25  27
ATOM     27  C   UNL     1      -2.664   0.202  -2.500  0.00  0.00    -0.026 A 
ATOM     28  C   UNL     1      -1.394   0.470  -2.977  0.00  0.00    +0.005 A 
ATOM     29  C   UNL     1      -0.837  -0.339  -3.950  0.00  0.00    +0.000 A 
ATOM     30  C   UNL     1      -1.553  -1.408  -4.454  0.00  0.00    +0.000 A 
ATOM     31  C   UNL     1      -2.825  -1.673  -3.980  0.00  0.00    +0.000 A 
ATOM     32  C   UNL     1      -3.380  -0.868  -3.004  0.00  0.00    +0.005 A 
ENDBRANCH  25  27
TORSDOF 1
