REMARK  Name = ZINC60042694
REMARK  7 active torsions:
REMARK  status: ('A' for Active; 'I' for Inactive)
REMARK    1  A    between atoms: C_1  and  O_2
REMARK    2  A    between atoms: O_2  and  C_3
REMARK    3  A    between atoms: N_15  and  C_19
REMARK    4  A    between atoms: C_19  and  C_20
REMARK    5  A    between atoms: C_20  and  C_22
REMARK    6  A    between atoms: C_20  and  O_33
REMARK    7  A    between atoms: C_22  and  N_23
REMARK                            x       y       z     vdW  Elec       q    Type
REMARK                         _______ _______ _______ _____ _____    ______ ____
ROOT
ATOM      1  C   UNL     1       0.626  -0.618   1.042  0.00  0.00    +0.120 A 
ATOM      2  C   UNL     1       1.203   0.136   2.053  0.00  0.00    +0.046 A 
ATOM      3  C   UNL     1       1.836  -0.496   3.101  0.00  0.00    +0.010 A 
ATOM      4  C   UNL     1       1.901  -1.883   3.157  0.00  0.00    -0.012 A 
ATOM      5  C   UNL     1       1.323  -2.635   2.156  0.00  0.00    -0.038 A 
ATOM      6  C   UNL     1       0.684  -2.000   1.100  0.00  0.00    +0.049 A 
ATOM      7  C   UNL     1       1.342  -4.141   2.163  0.00  0.00    +0.036 C 
ATOM      8  C   UNL     1       2.426  -4.662   3.104  0.00  0.00    +0.008 C 
ATOM      9  C   UNL     1       2.255  -3.984   4.468  0.00  0.00    +0.040 C 
ATOM     10  C   UNL     1       2.613  -2.510   4.322  0.00  0.00    +0.138 C 
ATOM     11  C   UNL     1       2.288  -1.762   5.596  0.00  0.00    +0.251 C 
ATOM     12  O   UNL     1       1.198  -1.628   6.110  0.00  0.00    -0.272 OA
ATOM     13  N   UNL     1       3.465  -1.278   6.040  0.00  0.00    -0.222 N 
ATOM     14  C   UNL     1       4.475  -1.614   5.229  0.00  0.00    +0.310 C 
ATOM     15  O   UNL     1       5.632  -1.293   5.420  0.00  0.00    -0.252 OA
ATOM     16  N   UNL     1       4.066  -2.349   4.177  0.00  0.00    -0.281 N 
ATOM     17  H   UNL     1       4.622  -2.702   3.465  0.00  0.00    +0.152 HD
ENDROOT
BRANCH   1  19
ATOM     18  C   UNL     1      -0.017   1.425   0.010  0.00  0.00    +0.277 C 
ATOM     19  O   UNL     1       0.002  -0.004   0.002  0.00  0.00    -0.495 OA
ENDBRANCH   1  19
BRANCH  13  20
ATOM     20  C   UNL     1       3.620  -0.481   7.260  0.00  0.00    +0.147 C 
BRANCH  20  21
ATOM     21  C   UNL     1       3.883  -1.411   8.447  0.00  0.00    +0.116 C 
BRANCH  21  22
ATOM     22  O   UNL     1       2.783  -2.309   8.601  0.00  0.00    -0.392 OA
ATOM     23  H   UNL     1       1.936  -1.871   8.764  0.00  0.00    +0.210 HD
ENDBRANCH  21  22
BRANCH  21  24
ATOM     24  C   UNL     1       4.044  -0.579   9.720  0.00  0.00    -0.045 C 
BRANCH  24  25
ATOM     25  N   UNL     1       4.415  -1.459  10.837  0.00  0.00    +0.384 N 
ATOM     26  C   UNL     1       4.464  -0.679  12.083  0.00  0.00    -0.074 C 
ATOM     27  C   UNL     1       4.545  -1.649  13.262  0.00  0.00    +0.017 C 
ATOM     28  C   UNL     1       5.655  -2.642  13.031  0.00  0.00    -0.048 A 
ATOM     29  C   UNL     1       6.123  -3.379  14.107  0.00  0.00    +0.004 A 
ATOM     30  C   UNL     1       7.137  -4.300  13.933  0.00  0.00    +0.000 A 
ATOM     31  C   UNL     1       7.687  -4.488  12.679  0.00  0.00    +0.000 A 
ATOM     32  C   UNL     1       7.223  -3.753  11.607  0.00  0.00    +0.002 A 
ATOM     33  C   UNL     1       6.206  -2.826  11.780  0.00  0.00    -0.061 A 
ATOM     34  C   UNL     1       5.736  -2.041  10.585  0.00  0.00    -0.043 C 
ATOM     35  H   UNL     1       3.732  -2.197  10.925  0.00  0.00    -0.081 HD
ENDBRANCH  24  25
ENDBRANCH  21  24
ENDBRANCH  20  21
ENDBRANCH  13  20
TORSDOF 6
