REMARK  Name = ZINC03580914
REMARK  3 active torsions:
REMARK  status: ('A' for Active; 'I' for Inactive)
REMARK    1  A    between atoms: C_1  and  C_2
REMARK    2  A    between atoms: N_10  and  N_14
REMARK    3  A    between atoms: C_15  and  C_16
REMARK                            x       y       z     vdW  Elec       q    Type
REMARK                         _______ _______ _______ _____ _____    ______ ____
ROOT
ATOM      1  C   UNL     1     -10.803   7.260  -0.430  0.00  0.00    +0.007 C 
ATOM      2  C   UNL     1      -9.806   6.105  -0.314  0.00  0.00    -0.014 C 
ATOM      3  C   UNL     1      -8.884   6.103  -1.536  0.00  0.00    +0.006 C 
ATOM      4  C   UNL     1      -7.895   4.940  -1.425  0.00  0.00    +0.035 C 
ATOM      5  C   UNL     1      -7.074   5.087  -0.148  0.00  0.00    +0.114 C 
ATOM      6  C   UNL     1      -7.982   5.115   1.077  0.00  0.00    +0.035 C 
ATOM      7  C   UNL     1      -8.970   6.277   0.956  0.00  0.00    +0.006 C 
ATOM      8  C   UNL     1      -6.072   3.961  -0.035  0.00  0.00    +0.266 C 
ATOM      9  O   UNL     1      -6.306   2.774   0.040  0.00  0.00    -0.271 OA
ATOM     10  N   UNL     1      -4.861   4.556  -0.034  0.00  0.00    -0.109 N 
ATOM     11  C   UNL     1      -4.966   5.888  -0.126  0.00  0.00    +0.330 C 
ATOM     12  O   UNL     1      -4.013   6.642  -0.140  0.00  0.00    -0.250 OA
ATOM     13  N   UNL     1      -6.246   6.298  -0.204  0.00  0.00    -0.283 N 
ATOM     14  H   UNL     1      -6.722   7.286  -0.294  0.00  0.00    +0.151 HD
ENDROOT
BRANCH  10  15
ATOM     15  N   UNL     1      -3.645   3.867   0.057  0.00  0.00    -0.176 NA
ATOM     16  C   UNL     1      -3.632   2.570   0.042  0.00  0.00    +0.139 C 
BRANCH  16  17
ATOM     17  C   UNL     1      -2.347   1.845   0.025  0.00  0.00    -0.004 A 
ATOM     18  C   UNL     1      -2.330   0.448   0.008  0.00  0.00    +0.011 A 
ATOM     19  C   UNL     1      -1.126  -0.224  -0.007  0.00  0.00    +0.022 A 
ATOM     20  C   UNL     1       0.065   0.483  -0.007  0.00  0.00    +0.059 A 
ATOM     21  C   UNL     1       0.056   1.868   0.009  0.00  0.00    +0.060 A 
ATOM     22  C   UNL     1      -1.143   2.553   0.030  0.00  0.00    +0.031 A 
ATOM     23 CL   UNL     1       1.554   2.745   0.010  0.00  0.00    -0.082 Cl
ATOM     24 CL   UNL     1       1.577  -0.371  -0.025  0.00  0.00    -0.082 Cl
ENDBRANCH  16  17
ENDBRANCH  10  15
TORSDOF 2
