REMARK  Name = ZINC49201035
REMARK  3 active torsions:
REMARK  status: ('A' for Active; 'I' for Inactive)
REMARK    1  A    between atoms: C_1  and  C_2
REMARK    2  A    between atoms: C_5  and  C_21
REMARK    3  A    between atoms: C_15  and  C_18
REMARK                            x       y       z     vdW  Elec       q    Type
REMARK                         _______ _______ _______ _____ _____    ______ ____
ROOT
ATOM      1  C   UNL     1      -0.025   1.520   0.017  0.00  0.00    +0.009 C 
ATOM      2  C   UNL     1      -0.000  -0.010   0.006  0.00  0.00    +0.004 C 
ATOM      3  C   UNL     1       0.717  -0.501  -1.254  0.00  0.00    +0.009 C 
ATOM      4  C   UNL     1       2.140   0.061  -1.284  0.00  0.00    +0.004 C 
ATOM      5  C   UNL     1       2.911  -0.446  -0.061  0.00  0.00    +0.112 C 
ATOM      6  N   UNL     1       2.153  -0.103   1.150  0.00  0.00    -0.285 N 
ATOM      7  C   UNL     1       0.746  -0.517   1.245  0.00  0.00    +0.112 C 
ATOM      8  C   UNL     1       2.738   0.577   2.157  0.00  0.00    +0.308 C 
ATOM      9  O   UNL     1       2.077   0.936   3.111  0.00  0.00    -0.252 OA
ATOM     10  N   UNL     1       4.055   0.857   2.104  0.00  0.00    -0.248 N 
ATOM     11  C   UNL     1       4.679   1.465   3.187  0.00  0.00    +0.166 A 
ATOM     12  N   UNL     1       5.941   1.816   3.312  0.00  0.00    -0.229 NA
ATOM     13  C   UNL     1       6.383   2.390   4.416  0.00  0.00    +0.054 A 
ATOM     14  C   UNL     1       5.482   2.599   5.406  0.00  0.00    +0.072 A 
ATOM     15  S   UNL     1       4.003   1.939   4.654  0.00  0.00    -0.060 S 
ATOM     16  C   UNL     1       2.845  -0.403  -2.561  0.00  0.00    +0.009 C 
ATOM     17  H   UNL     1       4.567   0.635   1.311  0.00  0.00    +0.158 HD
ENDROOT
BRANCH  13  18
ATOM     18  C   UNL     1       7.827   2.794   4.569  0.00  0.00    +0.038 C 
ATOM     19  C   UNL     1       8.171   3.777   5.690  0.00  0.00    +0.010 C 
ATOM     20  C   UNL     1       8.195   4.240   4.232  0.00  0.00    +0.010 C 
ENDBRANCH  13  18
TORSDOF 1
