REMARK  Name = ZINC27028982
REMARK  3 active torsions:
REMARK  status: ('A' for Active; 'I' for Inactive)
REMARK    1  A    between atoms: C_8  and  S_10
REMARK    2  A    between atoms: S_10  and  C_11
REMARK    3  A    between atoms: C_11  and  C_12
REMARK                            x       y       z     vdW  Elec       q    Type
REMARK                         _______ _______ _______ _____ _____    ______ ____
ROOT
ATOM      1  S   UNL     1       5.843  -1.162  -1.769  0.00  0.00    -0.078 S 
ENDROOT
BRANCH   1   9
ATOM      2  C   UNL     1      11.471  -3.536  -0.446  0.00  0.00    +0.005 A 
ATOM      3  C   UNL     1      11.592  -3.585  -1.842  0.00  0.00    +0.020 A 
ATOM      4  C   UNL     1      10.578  -3.157  -2.628  0.00  0.00    +0.115 A 
ATOM      5  N   UNL     1       9.433  -2.675  -2.078  0.00  0.00    -0.219 N 
ATOM      6  C   UNL     1       9.285  -2.614  -0.722  0.00  0.00    +0.157 A 
ATOM      7  C   UNL     1      10.326  -3.054   0.114  0.00  0.00    +0.048 A 
ATOM      8  N   UNL     1       8.084  -2.101  -0.473  0.00  0.00    -0.201 NA
ATOM      9  C   UNL     1       7.461  -1.844  -1.620  0.00  0.00    +0.210 A 
ATOM     10  N   UNL     1       8.245  -2.173  -2.628  0.00  0.00    -0.138 NA
ENDBRANCH   1   9
BRANCH   1  11
ATOM     11  C   UNL     1       5.302  -0.935  -0.052  0.00  0.00    +0.134 C 
BRANCH  11  12
ATOM     12  C   UNL     1       3.914  -0.350  -0.036  0.00  0.00    +0.071 A 
ATOM     13  C   UNL     1       3.613   0.959  -0.027  0.00  0.00    +0.117 A 
ATOM     14  N   UNL     1       2.226   1.075  -0.013  0.00  0.00    -0.300 N 
ATOM     15  C   UNL     1       1.277   2.075   0.001  0.00  0.00    +0.100 A 
ATOM     16  C   UNL     1      -0.022   1.782   0.012  0.00  0.00    +0.067 A 
ATOM     17  S   UNL     1       0.002  -0.004   0.002  0.00  0.00    -0.058 S 
ATOM     18  C   UNL     1       1.767  -0.216  -0.016  0.00  0.00    +0.178 A 
ATOM     19  N   UNL     1       2.768  -1.048  -0.029  0.00  0.00    -0.225 NA
ENDBRANCH  11  12
ENDBRANCH   1  11
TORSDOF 3
