REMARK  Name = ZINC52905836
REMARK  10 active torsions:
REMARK  status: ('A' for Active; 'I' for Inactive)
REMARK    1  A    between atoms: C_1  and  C_2
REMARK    2  A    between atoms: C_2  and  C_3
REMARK    3  A    between atoms: C_3  and  C_4
REMARK    4  A    between atoms: C_6  and  C_9
REMARK    5  A    between atoms: C_9  and  C_11
REMARK    6  A    between atoms: C_9  and  N_12
REMARK    7  A    between atoms: N_15  and  C_18
REMARK    8  A    between atoms: C_18  and  C_20
REMARK    9  A    between atoms: C_18  and  C_21
REMARK   10  A    between atoms: N_23  and  C_24
REMARK                            x       y       z     vdW  Elec       q    Type
REMARK                         _______ _______ _______ _____ _____    ______ ____
ROOT
ATOM      1  N   UNL     1      -0.757  -6.270   1.016  0.00  0.00    +0.389 N 
ATOM      2  C   UNL     1      -1.387  -5.656  -0.161  0.00  0.00    -0.062 C 
ATOM      3  C   UNL     1      -1.452  -6.680  -1.297  0.00  0.00    +0.066 C 
ATOM      4  N   UNL     1      -2.228  -7.848  -0.857  0.00  0.00    -0.295 NA
ATOM      5  C   UNL     1      -1.623  -8.457   0.336  0.00  0.00    +0.066 C 
ATOM      6  C   UNL     1      -1.558  -7.419   1.458  0.00  0.00    -0.062 C 
ATOM      7  H   UNL     1       0.172  -6.580   0.776  0.00  0.00    -0.081 HD
ENDROOT
BRANCH   1   8
ATOM      8  C   UNL     1      -0.680  -5.282   2.100  0.00  0.00    +0.019 C 
ATOM      9  C   UNL     1      -0.022  -5.920   3.326  0.00  0.00    -0.003 C 
BRANCH   8  12
ATOM     10  C   UNL     1       0.786  -2.065   1.296  0.00  0.00    +0.172 A 
ATOM     11  N   UNL     1      -0.163  -2.846   1.824  0.00  0.00    -0.197 NA
ATOM     12  C   UNL     1       0.141  -4.102   1.647  0.00  0.00    +0.214 A 
ATOM     13  O   UNL     1       1.308  -4.163   0.993  0.00  0.00    -0.340 OA
ATOM     14  N   UNL     1       1.708  -2.819   0.769  0.00  0.00    -0.061 NA
BRANCH  10  15
ATOM     15  C   UNL     1       0.786  -0.558   1.305  0.00  0.00    +0.079 C 
BRANCH  15  17
ATOM     16  C   UNL     1       0.074   1.489   0.061  0.00  0.00    +0.004 C 
ATOM     17  C   UNL     1       0.075  -0.041   0.052  0.00  0.00    +0.004 C 
ENDBRANCH  15  17
ENDBRANCH  10  15
ENDBRANCH   8  12
ENDBRANCH   1   8
BRANCH   4  18
ATOM     18  C   UNL     1      -2.361  -8.830  -1.941  0.00  0.00    +0.140 C 
ATOM     19  C   UNL     1      -0.986  -9.101  -2.554  0.00  0.00    +0.034 C 
BRANCH  18  20
ATOM     20  C   UNL     1      -3.285  -8.287  -3.000  0.00  0.00    +0.234 C 
ATOM     21  O   UNL     1      -3.704  -7.152  -2.916  0.00  0.00    -0.274 OA
ATOM     22  N   UNL     1      -3.647  -9.064  -4.041  0.00  0.00    -0.284 N 
ATOM     23  H   UNL     1      -3.363  -9.991  -4.076  0.00  0.00    +0.155 HD
BRANCH  22  24
ATOM     24  C   UNL     1      -4.433  -8.533  -5.070  0.00  0.00    +0.036 A 
ATOM     25  C   UNL     1      -4.240  -8.953  -6.380  0.00  0.00    +0.023 A 
ATOM     26  C   UNL     1      -5.016  -8.429  -7.394  0.00  0.00    +0.005 A 
ATOM     27  C   UNL     1      -5.986  -7.485  -7.108  0.00  0.00    +0.038 A 
ATOM     28  C   UNL     1      -6.181  -7.063  -5.803  0.00  0.00    +0.125 A 
ATOM     29  C   UNL     1      -5.410  -7.590  -4.783  0.00  0.00    +0.061 A 
ATOM     30  F   UNL     1      -7.129  -6.141  -5.527  0.00  0.00    -0.205 F 
ENDBRANCH  22  24
ENDBRANCH  18  20
ENDBRANCH   4  18
TORSDOF 7
