REMARK  Name = ZINC66193685
REMARK  7 active torsions:
REMARK  status: ('A' for Active; 'I' for Inactive)
REMARK    1  A    between atoms: C_1  and  C_2
REMARK    2  A    between atoms: C_2  and  C_4
REMARK    3  A    between atoms: C_2  and  C_23
REMARK    4  A    between atoms: C_4  and  C_5
REMARK    5  A    between atoms: C_5  and  N_6
REMARK    6  A    between atoms: N_9  and  C_10
REMARK    7  A    between atoms: N_9  and  C_11
REMARK                            x       y       z     vdW  Elec       q    Type
REMARK                         _______ _______ _______ _____ _____    ______ ____
ROOT
ATOM      1  N   UNL     1       0.699  -0.553   3.688  0.00  0.00    -0.299 N 
ATOM      2  C   UNL     1       0.180  -0.346   4.914  0.00  0.00    +0.302 C 
ATOM      3  O   UNL     1      -0.879   0.239   5.035  0.00  0.00    -0.253 OA
ATOM      4  N   UNL     1       0.835  -0.787   6.006  0.00  0.00    -0.286 N 
ATOM      5  C   UNL     1       2.111  -1.492   5.860  0.00  0.00    +0.134 C 
ATOM      6  H   UNL     1       1.544  -1.020   3.591  0.00  0.00    +0.150 HD
ENDROOT
BRANCH   4   7
ATOM      7  C   UNL     1       0.271  -0.562   7.340  0.00  0.00    +0.080 C 
ATOM      8  C   UNL     1       0.028  -1.908   8.025  0.00  0.00    +0.041 C 
ATOM      9  C   UNL     1      -0.594  -1.670   9.405  0.00  0.00    +0.108 C 
ATOM     10  N   UNL     1       0.272  -0.755  10.161  0.00  0.00    -0.317 N 
ATOM     11  C   UNL     1       0.642   0.531   9.555  0.00  0.00    +0.108 C 
ATOM     12  C   UNL     1       1.250   0.268   8.173  0.00  0.00    +0.041 C 
ATOM     13  C   UNL     1       0.731  -1.099  11.427  0.00  0.00    +0.099 A 
ATOM     14  C   UNL     1       0.269  -2.262  12.036  0.00  0.00    +0.042 A 
ATOM     15  C   UNL     1       0.735  -2.592  13.295  0.00  0.00    +0.005 A 
ATOM     16  C   UNL     1       1.650  -1.745  13.907  0.00  0.00    +0.018 A 
ATOM     17  C   UNL     1       2.065  -0.607  13.246  0.00  0.00    +0.084 A 
ATOM     18  N   UNL     1       1.608  -0.320  12.041  0.00  0.00    -0.350 N 
ATOM     19  H   UNL     1       1.919   0.484  11.597  0.00  0.00    +0.166 HD
ENDBRANCH   4   7
BRANCH   1  20
ATOM     20  C   UNL     1      -0.013  -0.074   2.500  0.00  0.00    +0.106 C 
BRANCH  20  21
ATOM     21  C   UNL     1       0.785  -0.436   1.246  0.00  0.00    +0.026 C 
BRANCH  21  23
ATOM     22  C   UNL     1      -0.010   1.594   0.026  0.00  0.00    +0.012 C 
ATOM     23  C   UNL     1       0.042   0.065   0.006  0.00  0.00    +0.017 C 
BRANCH  23  24
ATOM     24  C   UNL     1       0.763  -0.398  -1.233  0.00  0.00    -0.044 A 
ATOM     25  C   UNL     1       2.076  -0.021  -1.450  0.00  0.00    +0.004 A 
ATOM     26  C   UNL     1       2.738  -0.446  -2.587  0.00  0.00    +0.000 A 
ATOM     27  C   UNL     1       2.087  -1.247  -3.507  0.00  0.00    +0.000 A 
ATOM     28  C   UNL     1       0.775  -1.624  -3.289  0.00  0.00    +0.000 A 
ATOM     29  C   UNL     1       0.115  -1.203  -2.150  0.00  0.00    +0.004 A 
ENDBRANCH  23  24
ENDBRANCH  21  23
ENDBRANCH  20  21
ENDBRANCH   1  20
TORSDOF 5
