REMARK  Name = ZINC17073871
REMARK  4 active torsions:
REMARK  status: ('A' for Active; 'I' for Inactive)
REMARK    1  A    between atoms: C_1  and  C_2
REMARK    2  A    between atoms: C_2  and  C_4
REMARK    3  A    between atoms: C_2  and  O_18
REMARK    4  A    between atoms: O_18  and  C_19
REMARK                            x       y       z     vdW  Elec       q    Type
REMARK                         _______ _______ _______ _____ _____    ______ ____
ROOT
ATOM      1  C   UNL     1       1.136  -1.898  -0.935  0.00  0.00    +0.142 A 
ATOM      2  N   UNL     1       1.635  -2.179  -2.098  0.00  0.00    -0.155 NA
ATOM      3  N   UNL     1       1.407  -3.406  -2.716  0.00  0.00    -0.170 N 
ATOM      4  C   UNL     1       1.883  -3.804  -3.935  0.00  0.00    +0.283 A 
ATOM      5  O   UNL     1       2.584  -3.062  -4.600  0.00  0.00    -0.265 OA
ATOM      6  C   UNL     1       1.536  -5.137  -4.426  0.00  0.00    +0.067 A 
ATOM      7  C   UNL     1       1.987  -5.607  -5.662  0.00  0.00    +0.015 A 
ATOM      8  C   UNL     1       1.635  -6.861  -6.076  0.00  0.00    +0.001 A 
ATOM      9  C   UNL     1       0.833  -7.675  -5.284  0.00  0.00    +0.002 A 
ATOM     10  C   UNL     1       0.377  -7.243  -4.071  0.00  0.00    +0.028 A 
ATOM     11  C   UNL     1       0.720  -5.965  -3.619  0.00  0.00    +0.079 A 
ATOM     12  N   UNL     1       0.297  -5.490  -2.434  0.00  0.00    -0.221 NA
ATOM     13  C   UNL     1       0.624  -4.296  -2.023  0.00  0.00    +0.199 A 
ATOM     14  S   UNL     1       0.243  -3.391  -0.536  0.00  0.00    -0.029 S 
ENDROOT
BRANCH   1  16
ATOM     15  C   UNL     1       1.817  -0.979   1.266  0.00  0.00    +0.059 C 
ATOM     16  C   UNL     1       1.278  -0.635  -0.124  0.00  0.00    +0.227 C 
BRANCH  16  17
ATOM     17  O   UNL     1       0.002  -0.004   0.002  0.00  0.00    -0.481 OA
BRANCH  17  18
ATOM     18  C   UNL     1      -0.004   1.337   0.222  0.00  0.00    +0.140 A 
ATOM     19  C   UNL     1       1.190   2.013   0.426  0.00  0.00    +0.047 A 
ATOM     20  C   UNL     1       1.181   3.377   0.649  0.00  0.00    +0.004 A 
ATOM     21  C   UNL     1      -0.016   4.068   0.669  0.00  0.00    +0.002 A 
ATOM     22  C   UNL     1      -1.208   3.397   0.466  0.00  0.00    +0.023 A 
ATOM     23  C   UNL     1      -1.205   2.034   0.237  0.00  0.00    +0.083 A 
ATOM     24 CL   UNL     1      -2.701   1.193  -0.025  0.00  0.00    -0.080 Cl
ENDBRANCH  17  18
ENDBRANCH  16  17
ENDBRANCH   1  16
TORSDOF 3
