REMARK  Name = ZINC64040447
REMARK  5 active torsions:
REMARK  status: ('A' for Active; 'I' for Inactive)
REMARK    1  A    between atoms: C_1  and  C_2
REMARK    2  A    between atoms: C_2  and  C_3
REMARK    3  A    between atoms: C_2  and  C_4
REMARK    4  A    between atoms: C_4  and  C_5
REMARK    5  A    between atoms: C_20  and  C_22
REMARK                            x       y       z     vdW  Elec       q    Type
REMARK                         _______ _______ _______ _____ _____    ______ ____
ROOT
ATOM      1  C   UNL     1      -2.581   0.086  -0.820  0.00  0.00    +0.103 C 
ATOM      2  C   UNL     1      -3.593  -0.524   0.155  0.00  0.00    +0.127 C 
ATOM      3  C   UNL     1      -4.861   0.315   0.047  0.00  0.00    -0.035 C 
ATOM      4  C   UNL     1      -5.842  -0.527  -0.256  0.00  0.00    -0.001 A 
ATOM      5  C   UNL     1      -7.290  -0.323  -0.421  0.00  0.00    +0.010 A 
ATOM      6  C   UNL     1      -8.017  -1.424  -0.751  0.00  0.00    +0.001 A 
ATOM      7  C   UNL     1      -7.453  -2.692  -0.931  0.00  0.00    +0.002 A 
ATOM      8  C   UNL     1      -6.133  -2.970  -0.795  0.00  0.00    +0.026 A 
ATOM      9  C   UNL     1      -5.267  -1.893  -0.445  0.00  0.00    +0.043 A 
ATOM     10  N   UNL     1      -3.964  -1.888  -0.227  0.00  0.00    -0.376 N 
ATOM     11  C   UNL     1      -4.855   1.816   0.198  0.00  0.00    +0.052 C 
ATOM     12  C   UNL     1      -3.757   2.350  -0.741  0.00  0.00    +0.113 C 
ATOM     13  N   UNL     1      -2.546   1.538  -0.586  0.00  0.00    -0.292 N 
ATOM     14  C   UNL     1      -1.389   2.128  -0.224  0.00  0.00    +0.250 C 
ATOM     15  O   UNL     1      -0.464   1.452   0.184  0.00  0.00    -0.270 OA
ATOM     16  H   UNL     1      -3.356  -2.639  -0.307  0.00  0.00    +0.160 HD
ENDROOT
BRANCH  14  17
ATOM     17  C   UNL     1      -1.245   3.591  -0.322  0.00  0.00    +0.075 A 
ATOM     18  C   UNL     1      -0.470   4.470   0.566  0.00  0.00    +0.054 A 
ATOM     19  C   UNL     1      -0.633   5.713   0.089  0.00  0.00    +0.195 A 
ATOM     20  O   UNL     1      -1.426   5.669  -0.992  0.00  0.00    -0.470 OA
ATOM     21  C   UNL     1      -1.799   4.413  -1.259  0.00  0.00    +0.207 A 
ENDBRANCH  14  17
BRANCH   1  22
ATOM     22  C   UNL     1      -1.196  -0.513  -0.571  0.00  0.00    +0.028 C 
BRANCH  22  24
ATOM     23  C   UNL     1      -1.548  -2.114  -2.456  0.00  0.00    +0.007 C 
ATOM     24  C   UNL     1      -1.198  -1.989  -0.972  0.00  0.00    -0.015 C 
ATOM     25  C   UNL     1       0.187  -2.588  -0.722  0.00  0.00    +0.007 C 
ENDBRANCH  22  24
ENDBRANCH   1  22
TORSDOF 3
