REMARK  Name = ZINC57933914
REMARK  4 active torsions:
REMARK  status: ('A' for Active; 'I' for Inactive)
REMARK    1  A    between atoms: C_1  and  C_2
REMARK    2  A    between atoms: C_2  and  C_3
REMARK    3  A    between atoms: C_2  and  C_4
REMARK    4  A    between atoms: N_8  and  C_18
REMARK                            x       y       z     vdW  Elec       q    Type
REMARK                         _______ _______ _______ _____ _____    ______ ____
ROOT
ATOM      1  C   UNL     1       0.742  -0.511   1.242  0.00  0.00    +0.160 C 
ATOM      2  C   UNL     1       0.767  -2.018   1.233  0.00  0.00    +0.240 C 
ATOM      3  O   UNL     1      -0.139  -2.636   1.752  0.00  0.00    -0.273 OA
ATOM      4  N   UNL     1       1.783  -2.687   0.655  0.00  0.00    -0.271 N 
ATOM      5  C   UNL     1       2.865  -1.997   0.093  0.00  0.00    +0.058 A 
ATOM      6  C   UNL     1       3.756  -2.643  -0.748  0.00  0.00    +0.046 A 
ATOM      7  C   UNL     1       4.822  -1.945  -1.289  0.00  0.00    +0.061 A 
ATOM      8  C   UNL     1       5.003  -0.605  -0.993  0.00  0.00    +0.061 A 
ATOM      9  C   UNL     1       4.115   0.048  -0.155  0.00  0.00    +0.046 A 
ATOM     10  C   UNL     1       3.046  -0.644   0.386  0.00  0.00    +0.051 A 
ATOM     11  N   UNL     1       2.123  -0.006   1.230  0.00  0.00    -0.331 N 
ATOM     12 CL   UNL     1       6.345   0.260  -1.675  0.00  0.00    -0.082 Cl
ATOM     13 CL   UNL     1       5.939  -2.755  -2.343  0.00  0.00    -0.082 Cl
ATOM     14  C   UNL     1       1.757  -4.151   0.614  0.00  0.00    +0.138 C 
ATOM     15  H   UNL     1       2.387   0.742   1.789  0.00  0.00    +0.147 HD
ENDROOT
BRANCH   1  17
ATOM     16  C   UNL     1      -0.019   1.526   0.010  0.00  0.00    +0.009 C 
ATOM     17  C   UNL     1       0.002  -0.004   0.002  0.00  0.00    +0.012 C 
ATOM     18  C   UNL     1       0.718  -0.497  -1.257  0.00  0.00    +0.009 C 
ENDBRANCH   1  17
TORSDOF 1
