REMARK  Name = ZINC65880772
REMARK  7 active torsions:
REMARK  status: ('A' for Active; 'I' for Inactive)
REMARK    1  A    between atoms: C_1  and  C_2
REMARK    2  A    between atoms: C_2  and  C_3
REMARK    3  A    between atoms: C_2  and  C_28
REMARK    4  A    between atoms: C_3  and  N_4
REMARK    5  A    between atoms: N_4  and  C_5
REMARK    6  A    between atoms: C_6  and  C_8
REMARK    7  A    between atoms: C_22  and  C_23
REMARK                            x       y       z     vdW  Elec       q    Type
REMARK                         _______ _______ _______ _____ _____    ______ ____
ROOT
ATOM      1  C   UNL     1      -0.723   1.107   4.192  0.00  0.00    +0.051 A 
ATOM      2  C   UNL     1      -0.073   1.019   5.500  0.00  0.00    +0.013 A 
ATOM      3  C   UNL     1       1.160   0.380   5.664  0.00  0.00    +0.011 A 
ATOM      4  C   UNL     1       1.730   0.322   6.901  0.00  0.00    +0.001 A 
ATOM      5  C   UNL     1       1.099   0.889   8.006  0.00  0.00    +0.002 A 
ATOM      6  C   UNL     1      -0.102   1.517   7.882  0.00  0.00    +0.028 A 
ATOM      7  C   UNL     1      -0.721   1.598   6.620  0.00  0.00    +0.072 A 
ATOM      8  N   UNL     1      -1.897   2.206   6.468  0.00  0.00    -0.247 NA
ATOM      9  C   UNL     1      -2.505   2.299   5.295  0.00  0.00    +0.072 A 
ATOM     10  C   UNL     1      -1.942   1.766   4.121  0.00  0.00    -0.009 A 
ATOM     11  C   UNL     1      -2.622   1.891   2.786  0.00  0.00    +0.038 C 
ATOM     12  C   UNL     1      -4.121   2.125   2.949  0.00  0.00    +0.009 C 
ATOM     13  C   UNL     1      -4.349   3.341   3.856  0.00  0.00    +0.038 C 
ATOM     14  C   UNL     1      -3.811   2.987   5.227  0.00  0.00    -0.018 C 
ATOM     15  C   UNL     1      -4.494   3.300   6.349  0.00  0.00    +0.052 C 
ENDROOT
BRANCH  15  16
ATOM     16  C   UNL     1      -5.699   4.125   6.265  0.00  0.00    +0.128 A 
ATOM     17  C   UNL     1      -6.549   4.412   7.296  0.00  0.00    +0.049 A 
ATOM     18  C   UNL     1      -7.563   5.230   6.768  0.00  0.00    +0.042 A 
ATOM     19  C   UNL     1      -7.291   5.403   5.457  0.00  0.00    +0.195 A 
ATOM     20  O   UNL     1      -6.163   4.740   5.158  0.00  0.00    -0.464 OA
ENDBRANCH  15  16
BRANCH   1  23
ATOM     21  N   UNL     1      -0.369  -0.753   2.639  0.00  0.00    -0.299 N 
ATOM     22  C   UNL     1      -1.283  -1.557   3.456  0.00  0.00    +0.132 C 
ATOM     23  C   UNL     1      -0.098   0.520   2.986  0.00  0.00    +0.247 C 
ATOM     24  O   UNL     1       0.659   1.187   2.309  0.00  0.00    -0.270 OA
BRANCH  21  25
ATOM     25  C   UNL     1       0.249  -1.335   1.445  0.00  0.00    +0.125 C 
BRANCH  25  27
ATOM     26  C   UNL     1      -0.725   0.420  -0.043  0.00  0.00    +0.025 C 
ATOM     27  C   UNL     1      -0.648  -1.083   0.232  0.00  0.00    +0.106 C 
BRANCH  27  28
ATOM     28  C   UNL     1      -0.088  -1.769  -0.944  0.00  0.00    +0.067 C 
ATOM     29  N   UNL     1       0.344  -2.298  -1.851  0.00  0.00    -0.196 NA
ENDBRANCH  27  28
ENDBRANCH  25  27
ENDBRANCH  21  25
ENDBRANCH   1  23
TORSDOF 5
