REMARK  Name = ZINC44230519
REMARK  4 active torsions:
REMARK  status: ('A' for Active; 'I' for Inactive)
REMARK    1  A    between atoms: C_1  and  C_2
REMARK    2  A    between atoms: C_7  and  O_10
REMARK    3  A    between atoms: O_10  and  C_11
REMARK    4  A    between atoms: C_21  and  O_23
REMARK                            x       y       z     vdW  Elec       q    Type
REMARK                         _______ _______ _______ _____ _____    ______ ____
ROOT
ATOM      1  C   UNL     1      -0.708  -3.849   1.789  0.00  0.00    +0.189 C 
ATOM      2  C   UNL     1      -0.447  -4.892   0.695  0.00  0.00    +0.263 C 
ATOM      3  O   UNL     1      -0.483  -6.190   1.291  0.00  0.00    -0.489 OA
ATOM      4  C   UNL     1      -1.539  -6.492   2.090  0.00  0.00    +0.126 A 
ATOM      5  C   UNL     1      -1.790  -7.829   2.381  0.00  0.00    +0.046 A 
ATOM      6  C   UNL     1      -2.851  -8.176   3.192  0.00  0.00    +0.004 A 
ATOM      7  C   UNL     1      -3.667  -7.192   3.720  0.00  0.00    +0.001 A 
ATOM      8  C   UNL     1      -3.422  -5.864   3.432  0.00  0.00    +0.010 A 
ATOM      9  C   UNL     1      -2.361  -5.510   2.615  0.00  0.00    +0.025 A 
ATOM     10  C   UNL     1      -2.131  -4.050   2.316  0.00  0.00    +0.180 C 
ENDROOT
BRANCH  10  11
ATOM     11  O   UNL     1      -3.069  -3.615   1.330  0.00  0.00    -0.384 OA
ATOM     12  H   UNL     1      -3.994  -3.713   1.596  0.00  0.00    +0.210 HD
ENDBRANCH  10  11
BRANCH   1  13
ATOM     13  O   UNL     1      -0.578  -2.535   1.243  0.00  0.00    -0.367 OA
BRANCH  13  19
ATOM     14  C   UNL     1       0.076   0.587   4.098  0.00  0.00    +0.007 C 
ATOM     15  C   UNL     1      -0.099  -0.138   2.762  0.00  0.00    -0.012 C 
ATOM     16  C   UNL     1       0.125   0.849   1.614  0.00  0.00    +0.003 C 
ATOM     17  C   UNL     1      -0.049   0.124   0.278  0.00  0.00    +0.003 C 
ATOM     18  C   UNL     1       0.969  -1.014   0.178  0.00  0.00    +0.031 C 
ATOM     19  C   UNL     1       0.745  -2.000   1.326  0.00  0.00    +0.119 C 
ATOM     20  C   UNL     1       0.919  -1.276   2.662  0.00  0.00    +0.035 C 
ENDBRANCH  13  19
ENDBRANCH   1  13
TORSDOF 3
