REMARK  Name = ZINC20406565
REMARK  4 active torsions:
REMARK  status: ('A' for Active; 'I' for Inactive)
REMARK    1  A    between atoms: C_8  and  C_10
REMARK    2  A    between atoms: N_13  and  C_16
REMARK    3  A    between atoms: N_21  and  C_24
REMARK    4  A    between atoms: C_28  and  C_30
REMARK                            x       y       z     vdW  Elec       q    Type
REMARK                         _______ _______ _______ _____ _____    ______ ____
ROOT
ATOM      1  C   UNL     1       7.090  -6.065  -0.082  0.00  0.00    +0.029 C 
ATOM      2  C   UNL     1       8.007  -5.737   1.114  0.00  0.00    +0.090 C 
ATOM      3  C   UNL     1       9.379  -5.622   0.487  0.00  0.00    +0.225 C 
ATOM      4  O   UNL     1      10.404  -5.371   1.083  0.00  0.00    -0.275 OA
ATOM      5  N   UNL     1       9.282  -5.840  -0.830  0.00  0.00    -0.212 N 
ATOM      6  C   UNL     1       8.038  -6.102  -1.261  0.00  0.00    +0.213 C 
ATOM      7  O   UNL     1       7.722  -6.331  -2.409  0.00  0.00    -0.277 OA
ENDROOT
BRANCH   1  11
ATOM      8  C   UNL     1       3.358  -4.039  -0.447  0.00  0.00    +0.072 C 
ATOM      9  C   UNL     1       4.257  -4.191  -1.678  0.00  0.00    -0.006 C 
ATOM     10  C   UNL     1       5.256  -5.324  -1.437  0.00  0.00    -0.077 C 
ATOM     11  N   UNL     1       6.081  -5.012  -0.263  0.00  0.00    +0.388 N 
ATOM     12  C   UNL     1       5.234  -4.937   0.934  0.00  0.00    -0.077 C 
ATOM     13  C   UNL     1       4.234  -3.789   0.784  0.00  0.00    -0.006 C 
ATOM     14  H   UNL     1       6.543  -4.127  -0.404  0.00  0.00    -0.081 HD
BRANCH   8  22
ATOM     15  C   UNL     1      -0.886   0.135  -1.166  0.00  0.00    +0.002 A 
ATOM     16  C   UNL     1       0.198   0.991  -1.300  0.00  0.00    +0.004 A 
ATOM     17  C   UNL     1       1.486   0.507  -1.212  0.00  0.00    +0.048 A 
ATOM     18  C   UNL     1       1.703  -0.844  -0.987  0.00  0.00    +0.155 A 
ATOM     19  C   UNL     1       0.610  -1.713  -0.850  0.00  0.00    +0.110 A 
ATOM     20  C   UNL     1      -0.689  -1.209  -0.942  0.00  0.00    +0.031 A 
ATOM     21  N   UNL     1       1.126  -2.954  -0.641  0.00  0.00    -0.213 NA
ATOM     22  C   UNL     1       2.423  -2.874  -0.646  0.00  0.00    +0.200 A 
ATOM     23  O   UNL     1       2.811  -1.606  -0.853  0.00  0.00    -0.439 OA
ENDBRANCH   8  22
ENDBRANCH   1  11
BRANCH   5  24
ATOM     24  C   UNL     1      10.389  -5.802  -1.690  0.00  0.00    +0.044 A 
ATOM     25  C   UNL     1      11.379  -6.770  -1.592  0.00  0.00    +0.025 A 
ATOM     26  C   UNL     1      12.469  -6.729  -2.439  0.00  0.00    +0.022 A 
ATOM     27  C   UNL     1      12.574  -5.725  -3.386  0.00  0.00    +0.053 A 
ATOM     28  C   UNL     1      11.588  -4.759  -3.485  0.00  0.00    +0.075 A 
ATOM     29  C   UNL     1      10.494  -4.799  -2.643  0.00  0.00    +0.037 A 
ATOM     30 CL   UNL     1      13.945  -5.677  -4.450  0.00  0.00    -0.083 Cl
BRANCH  28  31
ATOM     31  C   UNL     1      11.706  -3.666  -4.516  0.00  0.00    +0.419 C 
ATOM     32  F   UNL     1      10.599  -2.817  -4.424  0.00  0.00    -0.166 F 
ATOM     33  F   UNL     1      12.876  -2.934  -4.287  0.00  0.00    -0.166 F 
ATOM     34  F   UNL     1      11.754  -4.234  -5.794  0.00  0.00    -0.166 F 
ENDBRANCH  28  31
ENDBRANCH   5  24
TORSDOF 4
