REMARK  Name = ZINC33255395
REMARK  9 active torsions:
REMARK  status: ('A' for Active; 'I' for Inactive)
REMARK    1  A    between atoms: C_1  and  C_2
REMARK    2  A    between atoms: C_5  and  S_8
REMARK    3  A    between atoms: S_8  and  N_11
REMARK    4  A    between atoms: N_11  and  C_12
REMARK    5  A    between atoms: C_12  and  C_14
REMARK    6  A    between atoms: C_12  and  C_15
REMARK    7  A    between atoms: C_17  and  C_20
REMARK    8  A    between atoms: C_23  and  N_26
REMARK    9  A    between atoms: C_29  and  C_32
REMARK                            x       y       z     vdW  Elec       q    Type
REMARK                         _______ _______ _______ _____ _____    ______ ____
ROOT
ATOM      1  C   UNL     1       3.560  -0.468  -7.247  0.00  0.00    +0.246 A 
ATOM      2  N   UNL     1       3.281  -0.389  -5.970  0.00  0.00    -0.190 NA
ATOM      3  C   UNL     1       2.104   0.273  -5.896  0.00  0.00    +0.202 A 
ATOM      4  N   UNL     1       1.745   0.561  -7.121  0.00  0.00    -0.056 NA
ATOM      5  O   UNL     1       2.570   0.142  -7.906  0.00  0.00    -0.336 OA
ENDROOT
BRANCH   3   6
ATOM      6  C   UNL     1       1.362   0.615  -4.658  0.00  0.00    +0.023 A 
ATOM      7  C   UNL     1       0.156   1.310  -4.737  0.00  0.00    +0.013 A 
ATOM      8  C   UNL     1      -0.532   1.626  -3.585  0.00  0.00    +0.024 A 
ATOM      9  C   UNL     1      -0.025   1.252  -2.346  0.00  0.00    +0.030 A 
ATOM     10  C   UNL     1       1.181   0.564  -2.265  0.00  0.00    +0.024 A 
ATOM     11  C   UNL     1       1.870   0.241  -3.415  0.00  0.00    +0.013 A 
BRANCH   9  12
ATOM     12  N   UNL     1      -0.723   1.572  -1.182  0.00  0.00    -0.330 N 
ATOM     13  C   UNL     1      -0.013   1.086   0.008  0.00  0.00    +0.105 C 
ATOM     14  C   UNL     1      -0.729   1.579   1.267  0.00  0.00    +0.022 C 
ATOM     15  C   UNL     1      -2.170   1.064   1.264  0.00  0.00    -0.011 C 
ATOM     16  C   UNL     1      -2.873   1.544  -0.009  0.00  0.00    +0.022 C 
ATOM     17  C   UNL     1      -2.095   1.052  -1.231  0.00  0.00    +0.105 C 
ATOM     18  C   UNL     1      -2.909   1.604   2.491  0.00  0.00    +0.007 C 
ENDBRANCH   9  12
ENDBRANCH   3   6
BRANCH   1  19
ATOM     19  C   UNL     1       4.773  -1.120  -7.859  0.00  0.00    +0.162 C 
ATOM     20  C   UNL     1       5.752  -0.041  -8.326  0.00  0.00    +0.036 C 
BRANCH  19  21
ATOM     21  N   UNL     1       4.363  -1.936  -9.005  0.00  0.00    -0.178 NA
ATOM     22  H   UNL     1       3.435  -1.699  -9.545  0.00  0.00    +0.149 HD
BRANCH  21  23
ATOM     23  S   UNL     1       5.153  -3.353  -9.337  0.00  0.00    +0.059 S 
ATOM     24  O   UNL     1       4.514  -3.917 -10.474  0.00  0.00    -0.153 OA
ATOM     25  O   UNL     1       6.543  -3.059  -9.311  0.00  0.00    -0.153 OA
BRANCH  23  30
ATOM     26  C   UNL     1       4.098  -7.105  -4.731  0.00  0.00    +0.044 C 
ATOM     27  C   UNL     1       4.362  -6.168  -5.881  0.00  0.00    -0.050 A 
ATOM     28  C   UNL     1       3.507  -6.150  -6.967  0.00  0.00    +0.005 A 
ATOM     29  C   UNL     1       3.749  -5.291  -8.023  0.00  0.00    +0.029 A 
ATOM     30  C   UNL     1       4.845  -4.449  -7.992  0.00  0.00    +0.105 A 
ATOM     31  C   UNL     1       5.702  -4.470  -6.907  0.00  0.00    +0.029 A 
ATOM     32  C   UNL     1       5.458  -5.327  -5.850  0.00  0.00    +0.005 A 
ENDBRANCH  23  30
ENDBRANCH  21  23
ENDBRANCH  19  21
ENDBRANCH   1  19
TORSDOF 6
