REMARK  Name = ZINC40018416
REMARK  7 active torsions:
REMARK  status: ('A' for Active; 'I' for Inactive)
REMARK    1  A    between atoms: C_1  and  C_2
REMARK    2  A    between atoms: C_4  and  C_28
REMARK    3  A    between atoms: C_5  and  C_27
REMARK    4  A    between atoms: C_6  and  C_8
REMARK    5  A    between atoms: C_8  and  C_10
REMARK    6  A    between atoms: C_10  and  N_11
REMARK    7  A    between atoms: C_28  and  C_30
REMARK                            x       y       z     vdW  Elec       q    Type
REMARK                         _______ _______ _______ _____ _____    ______ ____
ROOT
ATOM      1  N   UNL     1       3.760  -2.513   3.692  0.00  0.00    -0.216 N 
ATOM      2  C   UNL     1       3.707  -3.821   4.017  0.00  0.00    +0.252 C 
ATOM      3  O   UNL     1       2.774  -4.579   3.860  0.00  0.00    -0.272 OA
ATOM      4  C   UNL     1       5.055  -4.142   4.619  0.00  0.00    +0.144 C 
ATOM      5  C   UNL     1       5.769  -5.204   3.788  0.00  0.00    +0.081 C 
ATOM      6  C   UNL     1       5.116  -6.562   4.080  0.00  0.00    +0.232 C 
ATOM      7  O   UNL     1       5.328  -6.881   5.455  0.00  0.00    -0.492 OA
ATOM      8  C   UNL     1       5.037  -5.934   6.385  0.00  0.00    +0.126 A 
ATOM      9  C   UNL     1       4.898  -4.599   6.042  0.00  0.00    +0.027 A 
ATOM     10  C   UNL     1       4.609  -3.664   7.022  0.00  0.00    +0.010 A 
ATOM     11  C   UNL     1       4.455  -4.057   8.338  0.00  0.00    +0.001 A 
ATOM     12  C   UNL     1       4.588  -5.390   8.681  0.00  0.00    +0.004 A 
ATOM     13  C   UNL     1       4.878  -6.326   7.709  0.00  0.00    +0.046 A 
ATOM     14  N   UNL     1       5.784  -2.869   4.563  0.00  0.00    -0.281 N 
ATOM     15  C   UNL     1       4.948  -1.976   4.001  0.00  0.00    +0.310 C 
ATOM     16  O   UNL     1       5.237  -0.813   3.799  0.00  0.00    -0.252 OA
ATOM     17  H   UNL     1       6.690  -2.705   4.868  0.00  0.00    +0.152 HD
ENDROOT
BRANCH   1  18
ATOM     18  C   UNL     1       2.659  -1.772   3.072  0.00  0.00    +0.199 C 
BRANCH  18  19
ATOM     19  C   UNL     1       2.772  -1.864   1.572  0.00  0.00    +0.199 C 
ATOM     20  O   UNL     1       3.680  -2.485   1.073  0.00  0.00    -0.289 OA
BRANCH  19  25
ATOM     21  C   UNL     1      -0.019   1.526   0.010  0.00  0.00    +0.038 C 
ATOM     22  C   UNL     1       0.002  -0.004   0.002  0.00  0.00    +0.137 C 
ATOM     23  C   UNL     1       0.731  -0.510  -1.223  0.00  0.00    +0.024 C 
ATOM     24  C   UNL     1       1.785  -1.218  -0.759  0.00  0.00    -0.014 C 
ATOM     25  C   UNL     1       1.770  -1.194   0.711  0.00  0.00    +0.106 C 
ATOM     26  N   UNL     1       0.760  -0.507   1.153  0.00  0.00    -0.272 NA
ATOM     27  C   UNL     1       2.810  -1.921  -1.611  0.00  0.00    +0.046 C 
BRANCH  23  28
ATOM     28  C   UNL     1       0.370  -0.280  -2.621  0.00  0.00    +0.159 C 
ATOM     29  O   UNL     1       1.052  -0.750  -3.508  0.00  0.00    -0.293 OA
ATOM     30  C   UNL     1      -0.847   0.540  -2.960  0.00  0.00    +0.091 C 
ENDBRANCH  23  28
ENDBRANCH  19  25
ENDBRANCH  18  19
ENDBRANCH   1  18
TORSDOF 4
