REMARK  Name = ZINC66278066
REMARK  2 active torsions:
REMARK  status: ('A' for Active; 'I' for Inactive)
REMARK    1  A    between atoms: N_9  and  N_12
REMARK    2  A    between atoms: C_13  and  C_15
REMARK                            x       y       z     vdW  Elec       q    Type
REMARK                         _______ _______ _______ _____ _____    ______ ____
ROOT
ATOM      1  N   UNL     1       3.676  -3.373  -0.052  0.00  0.00    -0.224 N 
ATOM      2  C   UNL     1       4.272  -3.787  -1.187  0.00  0.00    +0.236 C 
ATOM      3  O   UNL     1       4.180  -3.123  -2.197  0.00  0.00    -0.274 OA
ATOM      4  H   UNL     1       3.749  -3.905   0.756  0.00  0.00    +0.174 HD
ENDROOT
BRANCH   1  13
ATOM      5  C   UNL     1      -0.017   1.382   0.010  0.00  0.00    +0.001 A 
ATOM      6  C   UNL     1       1.165   2.099   0.002  0.00  0.00    +0.001 A 
ATOM      7  C   UNL     1       2.385   1.442  -0.013  0.00  0.00    +0.014 A 
ATOM      8  C   UNL     1       2.420   0.056  -0.021  0.00  0.00    +0.051 A 
ATOM      9  C   UNL     1       1.215  -0.675  -0.013  0.00  0.00    +0.051 A 
ATOM     10  C   UNL     1       0.002  -0.004   0.002  0.00  0.00    +0.014 A 
ATOM     11  C   UNL     1       1.606  -2.100  -0.025  0.00  0.00    +0.271 C 
ATOM     12  O   UNL     1       0.843  -3.045  -0.023  0.00  0.00    -0.268 OA
ATOM     13  N   UNL     1       2.949  -2.175  -0.039  0.00  0.00    -0.147 N 
ATOM     14  C   UNL     1       3.503  -0.949  -0.037  0.00  0.00    +0.271 C 
ATOM     15  O   UNL     1       4.693  -0.709  -0.048  0.00  0.00    -0.268 OA
ENDBRANCH   1  13
BRANCH   2  16
ATOM     16  C   UNL     1       5.054  -5.075  -1.201  0.00  0.00    +0.049 C 
ATOM     17  C   UNL     1       4.131  -6.236  -0.825  0.00  0.00    +0.019 C 
ATOM     18  C   UNL     1       4.924  -7.544  -0.839  0.00  0.00    -0.009 C 
ATOM     19  C   UNL     1       5.494  -7.780  -2.239  0.00  0.00    +0.007 C 
ATOM     20  C   UNL     1       6.417  -6.619  -2.616  0.00  0.00    -0.009 C 
ATOM     21  C   UNL     1       5.624  -5.311  -2.601  0.00  0.00    +0.019 C 
ATOM     22  C   UNL     1       7.564  -6.531  -1.607  0.00  0.00    +0.007 C 
ATOM     23  C   UNL     1       6.994  -6.296  -0.206  0.00  0.00    -0.009 C 
ATOM     24  C   UNL     1       6.071  -7.456   0.170  0.00  0.00    +0.007 C 
ATOM     25  C   UNL     1       6.200  -4.988  -0.192  0.00  0.00    +0.019 C 
ENDBRANCH   2  16
TORSDOF 2
