REMARK  Name = ZINC67569755
REMARK  6 active torsions:
REMARK  status: ('A' for Active; 'I' for Inactive)
REMARK    1  A    between atoms: C_4  and  C_7
REMARK    2  A    between atoms: C_7  and  N_8
REMARK    3  A    between atoms: C_13  and  C_15
REMARK    4  A    between atoms: C_15  and  N_16
REMARK    5  A    between atoms: N_19  and  C_20
REMARK    6  A    between atoms: C_26  and  C_28
REMARK                            x       y       z     vdW  Elec       q    Type
REMARK                         _______ _______ _______ _____ _____    ______ ____
ROOT
ATOM      1  N   UNL     1       5.953  -0.209  -0.509  0.00  0.00    -0.301 N 
ATOM      2  C   UNL     1       6.714   0.561  -1.312  0.00  0.00    +0.300 C 
ATOM      3  O   UNL     1       7.843   0.861  -0.974  0.00  0.00    -0.253 OA
ATOM      4  N   UNL     1       6.225   0.997  -2.489  0.00  0.00    -0.296 N 
ATOM      5  H   UNL     1       5.052  -0.448  -0.778  0.00  0.00    +0.150 HD
ATOM      6  H   UNL     1       5.324   0.757  -2.759  0.00  0.00    +0.151 HD
ENDROOT
BRANCH   4   7
ATOM      7  C   UNL     1       7.052   1.833  -3.362  0.00  0.00    +0.077 C 
ATOM      8  C   UNL     1       6.928   3.297  -2.933  0.00  0.00    +0.041 C 
ATOM      9  C   UNL     1       7.821   4.164  -3.826  0.00  0.00    +0.109 C 
ATOM     10  N   UNL     1       7.471   3.915  -5.231  0.00  0.00    -0.301 N 
ATOM     11  C   UNL     1       7.470   2.531  -5.724  0.00  0.00    +0.109 C 
ATOM     12  C   UNL     1       6.580   1.682  -4.810  0.00  0.00    +0.041 C 
ATOM     13  C   UNL     1       7.155   4.936  -6.051  0.00  0.00    +0.219 C 
ATOM     14  O   UNL     1       7.158   6.074  -5.632  0.00  0.00    -0.275 OA
BRANCH  13  15
ATOM     15  C   UNL     1       6.797   4.664  -7.490  0.00  0.00    +0.075 C 
ATOM     16  C   UNL     1       7.779   5.137  -8.563  0.00  0.00    +0.013 C 
ATOM     17  C   UNL     1       6.448   5.866  -8.370  0.00  0.00    +0.013 C 
ENDBRANCH  13  15
ENDBRANCH   4   7
BRANCH   1  18
ATOM     18  C   UNL     1       6.485  -0.683   0.771  0.00  0.00    +0.090 C 
BRANCH  18  24
ATOM     19  N   UNL     1       5.141  -2.708   0.485  0.00  0.00    +0.385 N 
ATOM     20  C   UNL     1       4.232  -3.664   1.129  0.00  0.00    -0.078 C 
ATOM     21  C   UNL     1       2.917  -2.965   1.482  0.00  0.00    -0.019 C 
ATOM     22  C   UNL     1       3.203  -1.805   2.441  0.00  0.00    -0.003 C 
ATOM     23  C   UNL     1       4.210  -0.853   1.788  0.00  0.00    -0.014 C 
ATOM     24  C   UNL     1       5.476  -1.630   1.424  0.00  0.00    -0.051 C 
ATOM     25  H   UNL     1       4.691  -2.316  -0.329  0.00  0.00    -0.081 HD
BRANCH  19  26
ATOM     26  C   UNL     1       6.370  -3.401   0.078  0.00  0.00    -0.043 C 
BRANCH  26  30
ATOM     27  C   UNL     1       5.448  -6.287  -2.934  0.00  0.00    +0.000 A 
ATOM     28  C   UNL     1       5.781  -4.994  -3.294  0.00  0.00    +0.000 A 
ATOM     29  C   UNL     1       6.079  -4.061  -2.319  0.00  0.00    +0.002 A 
ATOM     30  C   UNL     1       6.044  -4.419  -0.985  0.00  0.00    -0.064 A 
ATOM     31  C   UNL     1       5.710  -5.711  -0.625  0.00  0.00    +0.002 A 
ATOM     32  C   UNL     1       5.413  -6.646  -1.599  0.00  0.00    +0.000 A 
ENDBRANCH  26  30
ENDBRANCH  19  26
ENDBRANCH  18  24
ENDBRANCH   1  18
TORSDOF 6
