REMARK  Name = ZINC12769266
REMARK  4 active torsions:
REMARK  status: ('A' for Active; 'I' for Inactive)
REMARK    1  A    between atoms: C_1  and  C_2
REMARK    2  A    between atoms: C_8  and  C_10
REMARK    3  A    between atoms: N_15  and  S_17
REMARK    4  A    between atoms: S_17  and  C_20
REMARK                            x       y       z     vdW  Elec       q    Type
REMARK                         _______ _______ _______ _____ _____    ______ ____
ROOT
ATOM      1  C   UNL     1       3.343  -3.574  -0.051  0.00  0.00    +0.091 C 
ATOM      2  C   UNL     1       2.808  -4.272   1.202  0.00  0.00    +0.015 C 
ATOM      3  C   UNL     1       3.207  -5.750   1.174  0.00  0.00    +0.018 C 
ATOM      4  C   UNL     1       4.734  -5.862   1.172  0.00  0.00    +0.109 C 
ATOM      5  N   UNL     1       5.266  -5.073   0.053  0.00  0.00    -0.175 NA
ATOM      6  C   UNL     1       4.872  -3.663  -0.066  0.00  0.00    +0.122 C 
ENDROOT
BRANCH   1  14
ATOM      7  C   UNL     1       1.593   3.180   0.004  0.00  0.00    +0.089 C 
ATOM      8  C   UNL     1       1.224   1.719  -0.000  0.00  0.00    +0.136 A 
ATOM      9  C   UNL     1       2.078   0.670  -0.014  0.00  0.00    +0.091 A 
ATOM     10  C   UNL     1       1.225  -0.466  -0.012  0.00  0.00    +0.168 A 
ATOM     11  N   UNL     1       0.002  -0.004   0.002  0.00  0.00    -0.063 NA
ATOM     12  O   UNL     1      -0.014   1.205   0.009  0.00  0.00    -0.358 OA
ATOM     13  N   UNL     1       1.614  -1.806  -0.024  0.00  0.00    -0.267 N 
ATOM     14  C   UNL     1       2.923  -2.127  -0.038  0.00  0.00    +0.223 C 
ATOM     15  O   UNL     1       3.762  -1.252  -0.041  0.00  0.00    -0.275 OA
ATOM     16  H   UNL     1       0.943  -2.506  -0.021  0.00  0.00    +0.156 HD
ENDBRANCH   1  14
BRANCH   5  17
ATOM     17  S   UNL     1       6.289  -5.760  -1.053  0.00  0.00    +0.067 S 
ATOM     18  O   UNL     1       6.040  -7.158  -1.023  0.00  0.00    -0.152 OA
ATOM     19  O   UNL     1       6.176  -4.991  -2.243  0.00  0.00    -0.152 OA
BRANCH  17  20
ATOM     20  C   UNL     1       7.931  -5.528  -0.458  0.00  0.00    +0.144 A 
ATOM     21  C   UNL     1       8.667  -6.329   0.351  0.00  0.00    +0.037 A 
ATOM     22  C   UNL     1       9.951  -5.943   0.689  0.00  0.00    +0.025 A 
ATOM     23  C   UNL     1      10.432  -4.769   0.210  0.00  0.00    +0.057 A 
ATOM     24  S   UNL     1       9.055  -4.173  -0.756  0.00  0.00    -0.062 S 
ATOM     25 BR   UNL     1      12.123  -3.970   0.493  0.00  0.00    -0.043 Br
ENDBRANCH  17  20
ENDBRANCH   5  17
TORSDOF 3
