REMARK  Name = ZINC02773101
REMARK  7 active torsions:
REMARK  status: ('A' for Active; 'I' for Inactive)
REMARK    1  A    between atoms: C_8  and  C_9
REMARK    2  A    between atoms: C_12  and  O_18
REMARK    3  A    between atoms: C_13  and  O_15
REMARK    4  A    between atoms: O_15  and  C_16
REMARK    5  A    between atoms: C_16  and  C_17
REMARK    6  A    between atoms: O_18  and  S_19
REMARK    7  A    between atoms: S_19  and  C_22
REMARK                            x       y       z     vdW  Elec       q    Type
REMARK                         _______ _______ _______ _____ _____    ______ ____
ROOT
ATOM      1  C   UNL     1       5.867   2.229  -3.562  0.00  0.00    -0.020 A 
ATOM      2  C   UNL     1       6.813   1.513  -2.818  0.00  0.00    +0.012 A 
ATOM      3  C   UNL     1       6.510   0.254  -2.349  0.00  0.00    +0.053 A 
ATOM      4  C   UNL     1       5.267  -0.308  -2.612  0.00  0.00    +0.198 A 
ATOM      5  C   UNL     1       4.322   0.396  -3.356  0.00  0.00    +0.165 A 
ATOM      6  C   UNL     1       4.615   1.661  -3.826  0.00  0.00    +0.057 A 
ENDROOT
BRANCH   1  14
ATOM      7  H   UNL     1      10.550   5.009  -0.661  0.00  0.00    +0.189 HD
ATOM      8  N   UNL     1      10.318   5.598  -1.397  0.00  0.00    -0.279 NA
ATOM      9  C   UNL     1       9.327   5.293  -2.188  0.00  0.00    +0.158 C 
ATOM     10  N   UNL     1       8.851   5.995  -3.277  0.00  0.00    -0.261 N 
ATOM     11  C   UNL     1       7.826   5.538  -3.977  0.00  0.00    +0.256 C 
ATOM     12  O   UNL     1       7.392   6.144  -4.939  0.00  0.00    -0.269 OA
ATOM     13  C   UNL     1       7.232   4.261  -3.538  0.00  0.00    +0.078 C 
ATOM     14  C   UNL     1       6.188   3.572  -4.063  0.00  0.00    +0.028 C 
ATOM     15  S   UNL     1       8.252   3.869  -2.124  0.00  0.00    -0.049 S 
ATOM     16  H   UNL     1       9.271   6.832  -3.531  0.00  0.00    +0.157 HD
ENDBRANCH   1  14
BRANCH   5  17
ATOM     17  O   UNL     1       3.109  -0.161  -3.615  0.00  0.00    -0.488 OA
BRANCH  17  18
ATOM     18  C   UNL     1       2.189   0.617  -4.384  0.00  0.00    +0.226 C 
ATOM     19  C   UNL     1       0.889  -0.169  -4.571  0.00  0.00    +0.048 C 
ENDBRANCH  17  18
ENDBRANCH   5  17
BRANCH   4  20
ATOM     20  O   UNL     1       4.974  -1.551  -2.147  0.00  0.00    -0.339 OA
BRANCH  20  21
ATOM     21  S   UNL     1       4.341  -1.560  -0.763  0.00  0.00    +0.151 S 
ATOM     22  O   UNL     1       5.002  -0.555  -0.007  0.00  0.00    -0.131 OA
ATOM     23  O   UNL     1       4.294  -2.919  -0.347  0.00  0.00    -0.131 OA
BRANCH  21  24
ATOM     24  C   UNL     1       2.670  -1.033  -0.951  0.00  0.00    +0.128 A 
ATOM     25  C   UNL     1       1.675  -1.962  -1.188  0.00  0.00    +0.030 A 
ATOM     26  C   UNL     1       0.364  -1.548  -1.335  0.00  0.00    +0.002 A 
ATOM     27  C   UNL     1       0.049  -0.205  -1.245  0.00  0.00    +0.000 A 
ATOM     28  C   UNL     1       1.044   0.724  -1.007  0.00  0.00    +0.002 A 
ATOM     29  C   UNL     1       2.355   0.310  -0.860  0.00  0.00    +0.030 A 
ENDBRANCH  21  24
ENDBRANCH  20  21
ENDBRANCH   4  20
TORSDOF 6
