REMARK  Name = ZINC07613869
REMARK  6 active torsions:
REMARK  status: ('A' for Active; 'I' for Inactive)
REMARK    1  A    between atoms: C_1  and  C_2
REMARK    2  A    between atoms: C_3  and  C_23
REMARK    3  A    between atoms: C_5  and  N_11
REMARK    4  A    between atoms: C_6  and  C_7
REMARK    5  A    between atoms: N_9  and  C_10
REMARK    6  A    between atoms: C_12  and  C_14
REMARK                            x       y       z     vdW  Elec       q    Type
REMARK                         _______ _______ _______ _____ _____    ______ ____
ROOT
ATOM      1  N   UNL     1      -1.097  -2.429   2.485  0.00  0.00    -0.273 N 
ATOM      2  C   UNL     1      -1.070  -3.302   3.512  0.00  0.00    +0.284 C 
ATOM      3  O   UNL     1      -1.057  -4.499   3.293  0.00  0.00    -0.266 OA
ATOM      4  H   UNL     1      -1.107  -1.475   2.660  0.00  0.00    +0.156 HD
ENDROOT
BRANCH   2   5
ATOM      5  C   UNL     1      -1.057  -2.808   4.896  0.00  0.00    +0.191 A 
ATOM      6  C   UNL     1      -1.030  -3.591   6.005  0.00  0.00    +0.063 A 
ATOM      7  C   UNL     1      -1.026  -2.677   7.146  0.00  0.00    +0.021 A 
ATOM      8  C   UNL     1      -1.004  -2.850   8.533  0.00  0.00    +0.011 A 
ATOM      9  C   UNL     1      -1.007  -1.756   9.351  0.00  0.00    +0.001 A 
ATOM     10  C   UNL     1      -1.032  -0.476   8.815  0.00  0.00    +0.004 A 
ATOM     11  C   UNL     1      -1.054  -0.284   7.450  0.00  0.00    +0.047 A 
ATOM     12  C   UNL     1      -1.052  -1.382   6.597  0.00  0.00    +0.136 A 
ATOM     13  O   UNL     1      -1.063  -1.508   5.256  0.00  0.00    -0.450 OA
ENDBRANCH   2   5
BRANCH   1  18
ATOM     14  C   UNL     1      -1.160  -2.220  -2.571  0.00  0.00    +0.045 C 
ATOM     15  C   UNL     1      -1.137  -2.910  -1.232  0.00  0.00    -0.027 A 
ATOM     16  C   UNL     1      -1.118  -4.252  -1.134  0.00  0.00    -0.008 A 
ATOM     17  S   UNL     1      -1.098  -4.535   0.624  0.00  0.00    -0.078 S 
ATOM     18  C   UNL     1      -1.109  -2.895   1.181  0.00  0.00    +0.085 A 
ATOM     19  C   UNL     1      -1.136  -2.160   0.001  0.00  0.00    +0.068 A 
ATOM     20  C   UNL     1      -1.114  -5.270  -2.245  0.00  0.00    +0.052 C 
BRANCH  19  21
ATOM     21  C   UNL     1      -1.156  -0.694   0.009  0.00  0.00    +0.246 C 
ATOM     22  O   UNL     1      -2.218  -0.100   0.023  0.00  0.00    -0.270 OA
ATOM     23  N   UNL     1       0.002  -0.004   0.002  0.00  0.00    -0.314 N 
ATOM     24  C   UNL     1      -0.018   1.461   0.010  0.00  0.00    +0.128 C 
ATOM     25  H   UNL     1       0.849  -0.478  -0.009  0.00  0.00    +0.149 HD
ENDBRANCH  19  21
ENDBRANCH   1  18
TORSDOF 3
