REMARK  Name = ZINC13184691
REMARK  6 active torsions:
REMARK  status: ('A' for Active; 'I' for Inactive)
REMARK    1  A    between atoms: C_1  and  C_2
REMARK    2  A    between atoms: C_2  and  C_4
REMARK    3  A    between atoms: C_2  and  N_13
REMARK    4  A    between atoms: N_13  and  S_14
REMARK    5  A    between atoms: S_14  and  C_17
REMARK    6  A    between atoms: C_19  and  C_25
REMARK                            x       y       z     vdW  Elec       q    Type
REMARK                         _______ _______ _______ _____ _____    ______ ____
ROOT
ATOM      1  S   UNL     1      -1.435   6.203   0.011  0.00  0.00    +0.060 S 
ATOM      2  O   UNL     1      -1.462   7.298  -0.894  0.00  0.00    -0.153 OA
ATOM      3  O   UNL     1      -2.405   5.165  -0.020  0.00  0.00    -0.153 OA
ENDROOT
BRANCH   1   4
ATOM      4  C   UNL     1       0.137   5.429  -0.182  0.00  0.00    +0.124 A 
ATOM      5  C   UNL     1       1.028   5.908  -1.119  0.00  0.00    +0.046 A 
ATOM      6  C   UNL     1       2.272   5.292  -1.274  0.00  0.00    +0.083 A 
ATOM      7  C   UNL     1       2.608   4.198  -0.471  0.00  0.00    +0.057 A 
ATOM      8  C   UNL     1       1.708   3.731   0.465  0.00  0.00    +0.042 A 
ATOM      9  C   UNL     1       0.475   4.344   0.610  0.00  0.00    +0.069 A 
ATOM     10 CL   UNL     1      -0.652   3.752   1.790  0.00  0.00    -0.081 Cl
ATOM     11 CL   UNL     1       4.154   3.428  -0.651  0.00  0.00    -0.083 Cl
BRANCH   6  12
ATOM     12  C   UNL     1       3.230   5.797  -2.277  0.00  0.00    +0.388 C 
ATOM     13  O   UNL     1       4.313   5.262  -2.406  0.00  0.00    -0.241 OA
ATOM     14  O   UNL     1       2.903   6.852  -3.049  0.00  0.00    -0.241 OA
ENDBRANCH   6  12
ENDBRANCH   1   4
BRANCH   1  15
ATOM     15  N   UNL     1      -1.479   6.847   1.535  0.00  0.00    -0.180 NA
ATOM     16  H   UNL     1      -2.116   6.511   2.185  0.00  0.00    +0.149 HD
BRANCH  15  18
ATOM     17  C   UNL     1      -1.255   9.275   1.730  0.00  0.00    +0.034 C 
ATOM     18  C   UNL     1      -0.557   7.924   1.903  0.00  0.00    +0.139 C 
BRANCH  18  19
ATOM     19  C   UNL     1      -0.135   7.756   3.340  0.00  0.00    +0.124 A 
ATOM     20  C   UNL     1       1.105   7.958   3.804  0.00  0.00    +0.055 A 
ATOM     21  C   UNL     1       1.053   7.683   5.245  0.00  0.00    +0.020 A 
ATOM     22  C   UNL     1       1.989   7.712   6.278  0.00  0.00    +0.011 A 
ATOM     23  C   UNL     1       1.606   7.385   7.549  0.00  0.00    +0.001 A 
ATOM     24  C   UNL     1       0.293   7.024   7.816  0.00  0.00    +0.004 A 
ATOM     25  C   UNL     1      -0.646   6.990   6.808  0.00  0.00    +0.047 A 
ATOM     26  C   UNL     1      -0.278   7.319   5.509  0.00  0.00    +0.135 A 
ATOM     27  O   UNL     1      -0.949   7.377   4.341  0.00  0.00    -0.458 OA
ENDBRANCH  18  19
ENDBRANCH  15  18
ENDBRANCH   1  15
TORSDOF 5
