REMARK  Name = ZINC50441680
REMARK  5 active torsions:
REMARK  status: ('A' for Active; 'I' for Inactive)
REMARK    1  A    between atoms: C_5  and  O_7
REMARK    2  A    between atoms: O_7  and  C_8
REMARK    3  A    between atoms: C_11  and  C_17
REMARK    4  A    between atoms: C_13  and  N_14
REMARK    5  A    between atoms: N_18  and  O_19
REMARK                            x       y       z     vdW  Elec       q    Type
REMARK                         _______ _______ _______ _____ _____    ______ ____
ROOT
ATOM      1  C   UNL     1      -0.174  -2.325   0.728  0.00  0.00    +0.159 A 
ATOM      2  C   UNL     1      -1.422  -1.732   0.586  0.00  0.00    +0.049 A 
ATOM      3  C   UNL     1      -2.552  -2.514   0.493  0.00  0.00    +0.015 A 
ATOM      4  C   UNL     1      -2.442  -3.905   0.542  0.00  0.00    +0.020 A 
ATOM      5  C   UNL     1      -1.187  -4.498   0.685  0.00  0.00    +0.048 A 
ATOM      6  C   UNL     1      -0.060  -3.709   0.772  0.00  0.00    +0.169 A 
ENDROOT
BRANCH   4   7
ATOM      7  C   UNL     1      -3.653  -4.749   0.443  0.00  0.00    +0.162 C 
ATOM      8  N   UNL     1      -4.704  -4.307  -0.184  0.00  0.00    -0.072 NA
ATOM      9  N   UNL     1      -3.668  -6.008   1.018  0.00  0.00    -0.340 N 
ATOM     10  H   UNL     1      -2.885  -6.337   1.486  0.00  0.00    +0.144 HD
ATOM     11  H   UNL     1      -4.463  -6.561   0.954  0.00  0.00    +0.144 HD
BRANCH   8  12
ATOM     12  O   UNL     1      -4.642  -3.086  -0.898  0.00  0.00    -0.408 OA
ATOM     13  H   UNL     1      -5.471  -2.840  -1.331  0.00  0.00    +0.328 HD
ENDBRANCH   8  12
ENDBRANCH   4   7
BRANCH   6  14
ATOM     14  N   UNL     1       1.273  -4.337   0.918  0.00  0.00    +0.060 N 
ATOM     15  O   UNL     1       1.373  -5.541   0.956  0.00  0.00    -0.126 OA
ATOM     16  O   UNL     1       2.261  -3.645   0.998  0.00  0.00    -0.126 OA
ENDBRANCH   6  14
BRANCH   1  17
ATOM     17  O   UNL     1       0.938  -1.551   0.820  0.00  0.00    -0.453 OA
BRANCH  17  22
ATOM     18  C   UNL     1       0.634   1.940  -0.162  0.00  0.00    +0.004 A 
ATOM     19  C   UNL     1       0.437   2.537   1.069  0.00  0.00    +0.001 A 
ATOM     20  C   UNL     1       0.407   1.768   2.217  0.00  0.00    +0.019 A 
ATOM     21  C   UNL     1       0.574   0.398   2.137  0.00  0.00    +0.060 A 
ATOM     22  C   UNL     1       0.772  -0.204   0.902  0.00  0.00    +0.142 A 
ATOM     23  C   UNL     1       0.802   0.571  -0.248  0.00  0.00    +0.047 A 
ATOM     24 BR   UNL     1       0.534  -0.655   3.707  0.00  0.00    -0.046 Br
ENDBRANCH  17  22
ENDBRANCH   1  17
TORSDOF 5
