REMARK  Name = ZINC09465009
REMARK  6 active torsions:
REMARK  status: ('A' for Active; 'I' for Inactive)
REMARK    1  A    between atoms: C_1  and  C_2
REMARK    2  A    between atoms: C_2  and  C_25
REMARK    3  A    between atoms: N_3  and  N_4
REMARK    4  A    between atoms: C_5  and  C_7
REMARK    5  A    between atoms: N_16  and  C_18
REMARK    6  A    between atoms: C_18  and  C_19
REMARK                            x       y       z     vdW  Elec       q    Type
REMARK                         _______ _______ _______ _____ _____    ______ ____
ROOT
ATOM      1  C   UNL     1      -3.400   6.436   0.053  0.00  0.00    +0.155 A 
ATOM      2  C   UNL     1      -3.298   7.905   0.066  0.00  0.00    +0.020 A 
ATOM      3  C   UNL     1      -2.080   8.575   0.058  0.00  0.00    +0.011 A 
ATOM      4  C   UNL     1      -2.066   9.954   0.066  0.00  0.00    +0.001 A 
ATOM      5  C   UNL     1      -3.252  10.677   0.076  0.00  0.00    +0.001 A 
ATOM      6  C   UNL     1      -4.471  10.032   0.079  0.00  0.00    +0.014 A 
ATOM      7  C   UNL     1      -4.506   8.641   0.071  0.00  0.00    +0.050 A 
ATOM      8  C   UNL     1      -5.759   7.874   0.073  0.00  0.00    +0.275 A 
ATOM      9  O   UNL     1      -6.836   8.441   0.082  0.00  0.00    -0.266 OA
ATOM     10  N   UNL     1      -5.688   6.527   0.066  0.00  0.00    -0.224 N 
ATOM     11  N   UNL     1      -4.586   5.877   0.056  0.00  0.00    -0.163 NA
ENDROOT
BRANCH   1  13
ATOM     12  N   UNL     1      -2.284   4.260   0.036  0.00  0.00    -0.201 N 
ATOM     13  C   UNL     1      -2.182   5.604   0.042  0.00  0.00    +0.284 C 
ATOM     14  O   UNL     1      -1.085   6.130   0.039  0.00  0.00    -0.267 OA
ATOM     15  H   UNL     1      -3.159   3.840   0.038  0.00  0.00    +0.178 HD
BRANCH  12  18
ATOM     16  C   UNL     1      -2.585   1.520   0.024  0.00  0.00    +0.071 C 
ATOM     17  C   UNL     1      -1.227   2.172   0.020  0.00  0.00    +0.098 C 
ATOM     18  N   UNL     1      -1.128   3.469   0.026  0.00  0.00    -0.181 NA
BRANCH  17  19
ATOM     19  C   UNL     1      -0.016   1.345   0.009  0.00  0.00    +0.151 A 
ATOM     20  C   UNL     1       1.257   1.821  -0.000  0.00  0.00    +0.059 A 
ATOM     21  C   UNL     1       2.129   0.646  -0.015  0.00  0.00    +0.021 A 
ATOM     22  C   UNL     1       3.513   0.461  -0.029  0.00  0.00    +0.011 A 
ATOM     23  C   UNL     1       4.027  -0.806  -0.042  0.00  0.00    +0.001 A 
ATOM     24  C   UNL     1       3.183  -1.907  -0.039  0.00  0.00    +0.004 A 
ATOM     25  C   UNL     1       1.814  -1.745  -0.025  0.00  0.00    +0.047 A 
ATOM     26  C   UNL     1       1.268  -0.468  -0.013  0.00  0.00    +0.136 A 
ATOM     27  O   UNL     1       0.002  -0.004   0.002  0.00  0.00    -0.454 OA
ENDBRANCH  17  19
ENDBRANCH  12  18
ENDBRANCH   1  13
BRANCH  10  28
ATOM     28  C   UNL     1      -6.940   5.766   0.068  0.00  0.00    +0.182 C 
BRANCH  28  29
ATOM     29  C   UNL     1      -7.377   5.514  -1.352  0.00  0.00    -0.026 A 
ATOM     30  C   UNL     1      -8.203   6.419  -1.993  0.00  0.00    +0.005 A 
ATOM     31  C   UNL     1      -8.600   6.190  -3.297  0.00  0.00    +0.000 A 
ATOM     32  C   UNL     1      -8.179   5.051  -3.957  0.00  0.00    +0.000 A 
ATOM     33  C   UNL     1      -7.357   4.143  -3.315  0.00  0.00    +0.000 A 
ATOM     34  C   UNL     1      -6.956   4.375  -2.013  0.00  0.00    +0.005 A 
ENDBRANCH  28  29
ENDBRANCH  10  28
TORSDOF 5
