REMARK  Name = ZINC48564819
REMARK  4 active torsions:
REMARK  status: ('A' for Active; 'I' for Inactive)
REMARK    1  A    between atoms: C_1  and  C_2
REMARK    2  A    between atoms: N_4  and  C_5
REMARK    3  A    between atoms: N_10  and  C_12
REMARK    4  A    between atoms: C_15  and  N_19
REMARK                            x       y       z     vdW  Elec       q    Type
REMARK                         _______ _______ _______ _____ _____    ______ ____
ROOT
ATOM      1  C   UNL     1       0.014  -2.151  -1.159  0.00  0.00    +0.090 C 
ATOM      2  C   UNL     1      -1.417  -2.679  -1.041  0.00  0.00    +0.025 C 
ATOM      3  C   UNL     1      -1.398  -4.210  -1.033  0.00  0.00    +0.021 C 
ATOM      4  C   UNL     1      -0.803  -4.716  -2.351  0.00  0.00    +0.105 C 
ATOM      5  N   UNL     1       0.516  -4.097  -2.542  0.00  0.00    -0.328 N 
ATOM      6  C   UNL     1       0.626  -2.633  -2.478  0.00  0.00    +0.127 C 
ENDROOT
BRANCH   5   7
ATOM      7  C   UNL     1       1.644  -4.885  -2.781  0.00  0.00    +0.031 A 
ATOM      8  C   UNL     1       1.550  -6.270  -2.726  0.00  0.00    +0.025 A 
ATOM      9  C   UNL     1       2.667  -7.047  -2.962  0.00  0.00    +0.035 A 
ATOM     10  C   UNL     1       3.879  -6.448  -3.254  0.00  0.00    +0.139 A 
ATOM     11  C   UNL     1       3.976  -5.069  -3.309  0.00  0.00    +0.045 A 
ATOM     12  C   UNL     1       2.861  -4.286  -3.079  0.00  0.00    +0.039 A 
ATOM     13  I   UNL     1       5.815  -4.167  -3.750  0.00  0.00    -0.041 I 
BRANCH  10  14
ATOM     14  N   UNL     1       5.074  -7.283  -3.506  0.00  0.00    +0.057 N 
ATOM     15  O   UNL     1       4.990  -8.489  -3.458  0.00  0.00    -0.126 OA
ATOM     16  O   UNL     1       6.134  -6.761  -3.761  0.00  0.00    -0.126 OA
ENDBRANCH  10  14
ENDBRANCH   5   7
BRANCH   1  20
ATOM     17  C   UNL     1      -0.025   1.476   0.068  0.00  0.00    +0.109 C 
ATOM     18  C   UNL     1      -0.008  -0.031   0.043  0.00  0.00    +0.210 C 
ATOM     19  O   UNL     1       0.001  -0.655   1.083  0.00  0.00    -0.276 OA
ATOM     20  N   UNL     1      -0.003  -0.686  -1.135  0.00  0.00    -0.311 N 
ATOM     21  H   UNL     1      -0.010  -0.187  -1.967  0.00  0.00    +0.149 HD
ENDBRANCH   1  20
TORSDOF 3
