REMARK  Name = ZINC39940238
REMARK  4 active torsions:
REMARK  status: ('A' for Active; 'I' for Inactive)
REMARK    1  A    between atoms: C_1  and  C_2
REMARK    2  A    between atoms: C_9  and  N_14
REMARK    3  A    between atoms: C_10  and  C_11
REMARK    4  A    between atoms: C_15  and  C_17
REMARK                            x       y       z     vdW  Elec       q    Type
REMARK                         _______ _______ _______ _____ _____    ______ ____
ROOT
ATOM      1  N   UNL     1       1.952  -5.819   1.694  0.00  0.00    -0.276 N 
ATOM      2  C   UNL     1       2.247  -6.082   2.983  0.00  0.00    +0.246 C 
ATOM      3  O   UNL     1       2.212  -5.191   3.808  0.00  0.00    -0.270 OA
ATOM      4  H   UNL     1       1.980  -6.530   1.035  0.00  0.00    +0.156 HD
ENDROOT
BRANCH   2   5
ATOM      5  C   UNL     1       2.610  -7.452   3.391  0.00  0.00    +0.032 C 
ATOM      6  C   UNL     1       3.031  -7.734   4.676  0.00  0.00    +0.005 A 
ATOM      7  C   UNL     1       3.132  -6.680   5.684  0.00  0.00    +0.010 A 
ATOM      8  C   UNL     1       3.551  -7.006   6.932  0.00  0.00    +0.001 A 
ATOM      9  C   UNL     1       3.885  -8.323   7.269  0.00  0.00    +0.002 A 
ATOM     10  C   UNL     1       3.813  -9.347   6.384  0.00  0.00    +0.024 A 
ATOM     11  C   UNL     1       3.389  -9.116   5.057  0.00  0.00    +0.041 A 
ATOM     12  N   UNL     1       3.321 -10.122   4.196  0.00  0.00    -0.285 N 
ATOM     13  C   UNL     1       2.932  -9.979   2.936  0.00  0.00    +0.222 C 
ATOM     14  O   UNL     1       2.891 -10.944   2.199  0.00  0.00    -0.275 OA
ATOM     15  C   UNL     1       2.531  -8.615   2.420  0.00  0.00    +0.137 C 
ATOM     16  H   UNL     1       3.568 -11.008   4.504  0.00  0.00    +0.155 HD
ENDBRANCH   2   5
BRANCH   1  24
ATOM     17  C   UNL     1      -0.009   1.527   0.007  0.00  0.00    +0.008 C 
ATOM     18  C   UNL     1       0.018  -0.002  -0.006  0.00  0.00    -0.009 C 
ATOM     19  C   UNL     1       0.758  -0.491  -1.255  0.00  0.00    +0.008 C 
ATOM     20  C   UNL     1       0.578  -2.003  -1.409  0.00  0.00    +0.037 C 
ATOM     21  C   UNL     1       0.961  -2.675  -0.098  0.00  0.00    -0.023 A 
ATOM     22  C   UNL     1       1.028  -1.976   1.057  0.00  0.00    -0.004 A 
ATOM     23  S   UNL     1       1.504  -3.166   2.276  0.00  0.00    -0.077 S 
ATOM     24  C   UNL     1       1.612  -4.536   1.312  0.00  0.00    +0.085 A 
ATOM     25  C   UNL     1       1.282  -4.083   0.041  0.00  0.00    +0.068 A 
ATOM     26  C   UNL     1       0.751  -0.515   1.242  0.00  0.00    +0.046 C 
BRANCH  25  27
ATOM     27  C   UNL     1       1.258  -4.990  -1.111  0.00  0.00    +0.244 C 
ATOM     28  O   UNL     1       2.264  -5.154  -1.778  0.00  0.00    -0.270 OA
ATOM     29  N   UNL     1       0.123  -5.643  -1.432  0.00  0.00    -0.325 N 
ATOM     30  H   UNL     1      -0.678  -5.512  -0.901  0.00  0.00    +0.145 HD
ATOM     31  H   UNL     1       0.108  -6.242  -2.194  0.00  0.00    +0.145 HD
ENDBRANCH  25  27
ENDBRANCH   1  24
TORSDOF 3
