REMARK  Name = ZINC13391168
REMARK  8 active torsions:
REMARK  status: ('A' for Active; 'I' for Inactive)
REMARK    1  A    between atoms: C_1  and  C_2
REMARK    2  A    between atoms: C_4  and  C_22
REMARK    3  A    between atoms: C_7  and  N_8
REMARK    4  A    between atoms: C_9  and  C_11
REMARK    5  A    between atoms: C_11  and  C_12
REMARK    6  A    between atoms: C_11  and  C_13
REMARK    7  A    between atoms: C_11  and  O_14
REMARK    8  A    between atoms: O_14  and  C_15
REMARK                            x       y       z     vdW  Elec       q    Type
REMARK                         _______ _______ _______ _____ _____    ______ ____
ROOT
ATOM      1  N   UNL     1      -1.496   2.637   0.547  0.00  0.00    -0.282 N 
ATOM      2  C   UNL     1      -2.428   1.721   0.216  0.00  0.00    +0.261 C 
ATOM      3  O   UNL     1      -2.129   0.548   0.151  0.00  0.00    -0.271 OA
ATOM      4  H   UNL     1      -1.747   3.568   0.652  0.00  0.00    +0.155 HD
ENDROOT
BRANCH   1  11
ATOM      5  C   UNL     1       0.552   4.447  -0.227  0.00  0.00    +0.045 C 
ATOM      6  C   UNL     1       0.864   3.099   0.372  0.00  0.00    -0.028 A 
ATOM      7  C   UNL     1       2.173   2.714   0.555  0.00  0.00    +0.020 A 
ATOM      8  C   UNL     1       2.461   1.464   1.110  0.00  0.00    +0.064 A 
ATOM      9  C   UNL     1       1.417   0.609   1.478  0.00  0.00    +0.017 A 
ATOM     10  C   UNL     1       0.111   1.001   1.292  0.00  0.00    +0.024 A 
ATOM     11  C   UNL     1      -0.172   2.246   0.739  0.00  0.00    +0.036 A 
BRANCH   8  12
ATOM     12  C   UNL     1       3.862   1.048   1.308  0.00  0.00    +0.387 C 
ATOM     13  O   UNL     1       4.767   1.792   0.988  0.00  0.00    -0.241 OA
ATOM     14  O   UNL     1       4.137  -0.157   1.844  0.00  0.00    -0.241 OA
ENDBRANCH   8  12
ENDBRANCH   1  11
BRANCH   2  15
ATOM     15  C   UNL     1      -3.842   2.155  -0.073  0.00  0.00    +0.180 C 
ATOM     16  C   UNL     1      -4.425   2.847   1.161  0.00  0.00    +0.065 C 
ATOM     17  C   UNL     1      -3.845   3.129  -1.253  0.00  0.00    +0.065 C 
BRANCH  15  18
ATOM     18  O   UNL     1      -4.635   1.012  -0.397  0.00  0.00    -0.477 OA
BRANCH  18  19
ATOM     19  C   UNL     1      -4.724   0.036   0.545  0.00  0.00    +0.122 A 
ATOM     20  C   UNL     1      -4.016   0.150   1.732  0.00  0.00    +0.047 A 
ATOM     21  C   UNL     1      -4.113  -0.841   2.691  0.00  0.00    +0.023 A 
ATOM     22  C   UNL     1      -4.906  -1.951   2.462  0.00  0.00    +0.041 A 
ATOM     23  C   UNL     1      -5.609  -2.069   1.276  0.00  0.00    +0.023 A 
ATOM     24  C   UNL     1      -5.519  -1.078   0.318  0.00  0.00    +0.047 A 
ATOM     25 CL   UNL     1      -5.021  -3.197   3.665  0.00  0.00    -0.084 Cl
ENDBRANCH  18  19
ENDBRANCH  15  18
ENDBRANCH   2  15
TORSDOF 5
