REMARK  Name = ZINC20113838
REMARK  6 active torsions:
REMARK  status: ('A' for Active; 'I' for Inactive)
REMARK    1  A    between atoms: C_1  and  O_2
REMARK    2  A    between atoms: O_2  and  C_3
REMARK    3  A    between atoms: C_8  and  O_9
REMARK    4  A    between atoms: O_9  and  C_10
REMARK    5  A    between atoms: C_11  and  C_16
REMARK    6  A    between atoms: C_23  and  C_26
REMARK                            x       y       z     vdW  Elec       q    Type
REMARK                         _______ _______ _______ _____ _____    ______ ____
ROOT
ATOM      1  C   UNL     1       0.618   4.272   0.887  0.00  0.00    +0.074 A 
ATOM      2  C   UNL     1      -0.706   3.860   0.859  0.00  0.00    +0.280 A 
ATOM      3  N   UNL     1      -0.975   2.587   0.558  0.00  0.00    -0.184 NA
ATOM      4  C   UNL     1      -0.013   1.741   0.286  0.00  0.00    +0.184 A 
ATOM      5  N   UNL     1       1.317   2.067   0.292  0.00  0.00    -0.254 N 
ATOM      6  C   UNL     1       1.629   3.362   0.600  0.00  0.00    +0.265 A 
ATOM      7  O   UNL     1       2.796   3.719   0.622  0.00  0.00    -0.267 OA
ATOM      8  C   UNL     1       2.208   1.056  -0.013  0.00  0.00    +0.066 A 
ATOM      9  C   UNL     1       1.765  -0.183  -0.300  0.00  0.00    +0.075 A 
ATOM     10  S   UNL     1      -0.003   0.015  -0.149  0.00  0.00    -0.057 S 
ATOM     11  O   UNL     1      -1.707   4.730   1.134  0.00  0.00    -0.265 OA
ENDROOT
BRANCH   1  18
ATOM     12  C   UNL     1       3.051   5.740   4.963  0.00  0.00    +0.162 A 
ATOM     13  C   UNL     1       3.483   6.548   3.926  0.00  0.00    +0.053 A 
ATOM     14  C   UNL     1       2.818   6.544   2.709  0.00  0.00    -0.044 A 
ATOM     15  C   UNL     1       1.718   5.734   2.528  0.00  0.00    -0.050 A 
ATOM     16  C   UNL     1       1.280   4.921   3.565  0.00  0.00    +0.052 A 
ATOM     17  C   UNL     1       1.942   4.920   4.780  0.00  0.00    +0.162 A 
ATOM     18  C   UNL     1       0.960   5.700   1.227  0.00  0.00    +0.001 C 
ATOM     19  N   UNL     1       1.769   6.274   0.147  0.00  0.00    +0.387 N 
ATOM     20  C   UNL     1       2.258   7.608   0.532  0.00  0.00    -0.077 C 
ATOM     21  C   UNL     1       3.329   7.439   1.610  0.00  0.00    +0.016 C 
ATOM     22  H   UNL     1       2.630   5.620  -0.053  0.00  0.00    -0.085 HD
ATOM     23  H   UNL     1       1.157   6.364  -0.762  0.00  0.00    -0.085 HD
BRANCH  12  25
ATOM     24  C   UNL     1       4.838   6.613   6.267  0.00  0.00    +0.277 C 
ATOM     25  O   UNL     1       3.707   5.746   6.154  0.00  0.00    -0.491 OA
ENDBRANCH  12  25
BRANCH  17  26
ATOM     26  O   UNL     1       1.509   4.121   5.792  0.00  0.00    -0.491 OA
ATOM     27  C   UNL     1       0.364   3.307   5.532  0.00  0.00    +0.277 C 
ENDBRANCH  17  26
ENDBRANCH   1  18
BRANCH   8  28
ATOM     28  C   UNL     1       3.660   1.337  -0.026  0.00  0.00    -0.001 A 
ATOM     29  C   UNL     1       4.178   2.309  -0.883  0.00  0.00    +0.010 A 
ATOM     30  C   UNL     1       5.533   2.570  -0.885  0.00  0.00    +0.001 A 
ATOM     31  C   UNL     1       6.379   1.864  -0.049  0.00  0.00    +0.000 A 
ATOM     32  C   UNL     1       5.872   0.895   0.799  0.00  0.00    +0.001 A 
ATOM     33  C   UNL     1       4.518   0.628   0.816  0.00  0.00    +0.010 A 
ENDBRANCH   8  28
TORSDOF 4
