REMARK  Name = ZINC01803229
REMARK  8 active torsions:
REMARK  status: ('A' for Active; 'I' for Inactive)
REMARK    1  A    between atoms: C_1  and  C_2
REMARK    2  A    between atoms: C_2  and  O_3
REMARK    3  A    between atoms: O_3  and  C_4
REMARK    4  A    between atoms: C_13  and  C_25
REMARK    5  A    between atoms: C_15  and  C_21
REMARK    6  A    between atoms: C_15  and  C_23
REMARK    7  A    between atoms: C_16  and  N_20
REMARK    8  A    between atoms: C_17  and  C_18
REMARK                            x       y       z     vdW  Elec       q    Type
REMARK                         _______ _______ _______ _____ _____    ______ ____
ROOT
ATOM      1  C   UNL     1      -1.204   0.745  -2.119  0.00  0.00    +0.403 C 
ATOM      2  O   UNL     1      -1.806   1.184  -3.079  0.00  0.00    -0.226 OA
ATOM      3  N   UNL     1      -0.747   1.585  -1.169  0.00  0.00    -0.263 N 
ATOM      4  C   UNL     1      -0.013   1.086   0.008  0.00  0.00    +0.138 C 
ATOM      5  C   UNL     1      -0.740   1.583   1.231  0.00  0.00    -0.003 C 
ATOM      6  C   UNL     1      -1.461   2.688   1.197  0.00  0.00    -0.026 C 
ATOM      7  C   UNL     1      -1.596   3.575  -0.004  0.00  0.00    +0.048 C 
ATOM      8  C   UNL     1      -0.958   3.033  -1.263  0.00  0.00    +0.120 C 
ATOM      9  C   UNL     1      -3.080   3.889  -0.207  0.00  0.00    +0.068 C 
ATOM     10  C   UNL     1      -3.590   4.670   1.004  0.00  0.00    +0.188 C 
ATOM     11  C   UNL     1      -3.232   3.990   2.292  0.00  0.00    +0.054 C 
ATOM     12  C   UNL     1      -2.238   3.074   2.405  0.00  0.00    +0.074 C 
ENDROOT
BRANCH   9  13
ATOM     13  C   UNL     1      -3.255   4.718  -1.453  0.00  0.00    -0.034 A 
ATOM     14  C   UNL     1      -4.026   4.254  -2.502  0.00  0.00    +0.011 A 
ATOM     15  C   UNL     1      -4.167   5.027  -3.606  0.00  0.00    +0.045 A 
ATOM     16  S   UNL     1      -3.181   6.455  -3.186  0.00  0.00    -0.105 S 
ATOM     17  C   UNL     1      -2.654   5.928  -1.564  0.00  0.00    +0.049 A 
ENDBRANCH   9  13
BRANCH  11  18
ATOM     18  N   UNL     1      -3.946   4.311   3.412  0.00  0.00    -0.358 N 
ATOM     19  H   UNL     1      -3.709   3.830   4.372  0.00  0.00    +0.142 HD
ATOM     20  H   UNL     1      -4.759   5.050   3.353  0.00  0.00    +0.142 HD
ENDBRANCH  11  18
BRANCH  12  21
ATOM     21  C   UNL     1      -1.940   2.485   3.676  0.00  0.00    +0.101 C 
ATOM     22  N   UNL     1      -1.704   2.018   4.684  0.00  0.00    -0.191 NA
ENDBRANCH  12  21
BRANCH  10  23
ATOM     23  C   UNL     1      -2.998   6.017   0.992  0.00  0.00    +0.091 C 
ATOM     24  N   UNL     1      -2.540   7.057   0.982  0.00  0.00    -0.194 NA
ENDBRANCH  10  23
BRANCH  10  25
ATOM     25  C   UNL     1      -5.055   4.790   0.916  0.00  0.00    +0.091 C 
ATOM     26  N   UNL     1      -6.185   4.883   0.848  0.00  0.00    -0.194 NA
ENDBRANCH  10  25
BRANCH   1  27
ATOM     27  O   UNL     1      -0.994  -0.580  -2.005  0.00  0.00    -0.451 OA
BRANCH  27  29
ATOM     28  C   UNL     1      -1.182  -2.886  -2.764  0.00  0.00    +0.048 C 
ATOM     29  C   UNL     1      -1.515  -1.424  -3.065  0.00  0.00    +0.230 C 
ENDBRANCH  27  29
ENDBRANCH   1  27
TORSDOF 7
