REMARK  Name = ZINC61509557
REMARK  10 active torsions:
REMARK  status: ('A' for Active; 'I' for Inactive)
REMARK    1  A    between atoms: C_1  and  C_2
REMARK    2  A    between atoms: C_4  and  S_21
REMARK    3  A    between atoms: C_6  and  N_9
REMARK    4  A    between atoms: C_7  and  C_8
REMARK    5  A    between atoms: C_10  and  C_12
REMARK    6  A    between atoms: C_12  and  C_13
REMARK    7  A    between atoms: C_13  and  C_14
REMARK    8  A    between atoms: C_14  and  C_15
REMARK    9  A    between atoms: C_15  and  C_16
REMARK   10  A    between atoms: S_21  and  N_24
REMARK                            x       y       z     vdW  Elec       q    Type
REMARK                         _______ _______ _______ _____ _____    ______ ____
ROOT
ATOM      1  C   UNL     1       1.206   1.236  -0.172  0.00  0.00    +0.044 C 
ATOM      2  C   UNL     1       0.577  -0.131  -0.084  0.00  0.00    -0.044 A 
ATOM      3  C   UNL     1      -0.027  -0.686  -1.198  0.00  0.00    +0.032 A 
ATOM      4  C   UNL     1      -0.605  -1.940  -1.122  0.00  0.00    +0.107 A 
ATOM      5  C   UNL     1      -0.580  -2.642   0.067  0.00  0.00    +0.052 A 
ATOM      6  C   UNL     1       0.026  -2.088   1.187  0.00  0.00    +0.038 A 
ATOM      7  C   UNL     1       0.610  -0.831   1.106  0.00  0.00    -0.026 A 
ATOM      8  C   UNL     1       1.274  -0.228   2.317  0.00  0.00    +0.046 C 
ENDROOT
BRANCH   6   9
ATOM      9  N   UNL     1       0.052  -2.797   2.393  0.00  0.00    -0.285 N 
ATOM     10  C   UNL     1      -0.031  -4.143   2.385  0.00  0.00    +0.217 C 
ATOM     11  O   UNL     1      -0.028  -4.745   1.333  0.00  0.00    -0.275 OA
ATOM     12  H   UNL     1       0.130  -2.321   3.234  0.00  0.00    +0.155 HD
BRANCH  10  13
ATOM     13  C   UNL     1      -0.129  -4.898   3.686  0.00  0.00    +0.096 C 
BRANCH  13  14
ATOM     14  C   UNL     1      -0.211  -6.399   3.398  0.00  0.00    +0.009 C 
BRANCH  14  15
ATOM     15  C   UNL     1      -0.310  -7.166   4.718  0.00  0.00    +0.002 C 
BRANCH  15  16
ATOM     16  C   UNL     1      -0.392  -8.667   4.431  0.00  0.00    +0.015 C 
BRANCH  16  17
ATOM     17  C   UNL     1      -0.491  -9.434   5.751  0.00  0.00    +0.058 C 
ATOM     18  C   UNL     1      -0.617 -10.951   5.484  0.00  0.00    +0.026 C 
ATOM     19  C   UNL     1      -0.414 -11.828   6.740  0.00  0.00    +0.082 C 
ATOM     20  S   UNL     1       1.137 -11.185   7.513  0.00  0.00    -0.093 S 
ATOM     21  S   UNL     1       1.075  -9.259   6.717  0.00  0.00    -0.090 S 
ENDBRANCH  16  17
ENDBRANCH  15  16
ENDBRANCH  14  15
ENDBRANCH  13  14
ENDBRANCH  10  13
ENDBRANCH   6   9
BRANCH   4  22
ATOM     22  S   UNL     1      -1.374  -2.642  -2.544  0.00  0.00    +0.056 S 
ATOM     23  O   UNL     1      -2.317  -3.591  -2.067  0.00  0.00    -0.153 OA
ATOM     24  O   UNL     1      -1.743  -1.556  -3.383  0.00  0.00    -0.153 OA
BRANCH  22  25
ATOM     25  N   UNL     1      -0.212  -3.496  -3.357  0.00  0.00    -0.204 NA
ATOM     26  H   UNL     1       0.695  -3.530  -3.014  0.00  0.00    +0.144 HD
ATOM     27  H   UNL     1      -0.438  -3.962  -4.177  0.00  0.00    +0.144 HD
ENDBRANCH  22  25
ENDBRANCH   4  22
TORSDOF 8
