REMARK  Name = ZINC04750366
REMARK  3 active torsions:
REMARK  status: ('A' for Active; 'I' for Inactive)
REMARK    1  A    between atoms: C_3  and  N_19
REMARK    2  A    between atoms: C_6  and  N_7
REMARK    3  A    between atoms: C_13  and  C_15
REMARK                            x       y       z     vdW  Elec       q    Type
REMARK                         _______ _______ _______ _____ _____    ______ ____
ROOT
ATOM      1  N   UNL     1      -3.468   3.143  -0.957  0.00  0.00    -0.327 N 
ATOM      2  C   UNL     1      -3.347   1.687  -1.105  0.00  0.00    +0.124 C 
ATOM      3  C   UNL     1      -2.466   1.133   0.020  0.00  0.00    +0.126 C 
ATOM      4  N   UNL     1      -1.191   1.867   0.018  0.00  0.00    -0.298 N 
ATOM      5  C   UNL     1      -1.233   3.337   0.032  0.00  0.00    +0.126 C 
ATOM      6  C   UNL     1      -2.163   3.803  -1.099  0.00  0.00    +0.124 C 
ATOM      7  C   UNL     1      -0.014   1.209   0.009  0.00  0.00    +0.219 C 
ATOM      8  O   UNL     1       0.002  -0.004   0.002  0.00  0.00    -0.275 OA
ENDROOT
BRANCH   1  14
ATOM      9  C   UNL     1      -5.050   2.818  -2.750  0.00  0.00    +0.025 A 
ATOM     10  C   UNL     1      -5.969   3.336  -3.643  0.00  0.00    +0.034 A 
ATOM     11  C   UNL     1      -6.227   4.694  -3.663  0.00  0.00    +0.126 A 
ATOM     12  C   UNL     1      -5.570   5.538  -2.786  0.00  0.00    +0.034 A 
ATOM     13  C   UNL     1      -4.655   5.027  -1.887  0.00  0.00    +0.025 A 
ATOM     14  C   UNL     1      -4.393   3.663  -1.865  0.00  0.00    +0.030 A 
BRANCH  11  15
ATOM     15  N   UNL     1      -7.207   5.245  -4.624  0.00  0.00    +0.056 N 
ATOM     16  O   UNL     1      -7.436   6.442  -4.643  0.00  0.00    -0.126 OA
ATOM     17  O   UNL     1      -7.786   4.503  -5.397  0.00  0.00    -0.126 OA
ENDBRANCH  11  15
ENDBRANCH   1  14
BRANCH   7  18
ATOM     18  C   UNL     1       1.280   1.980   0.001  0.00  0.00    +0.075 C 
ATOM     19  C   UNL     1       1.702   2.461  -1.398  0.00  0.00    +0.013 C 
ATOM     20  C   UNL     1       3.142   2.092  -1.004  0.00  0.00    +0.001 C 
ATOM     21  C   UNL     1       2.530   1.085  -0.016  0.00  0.00    +0.013 C 
ENDBRANCH   7  18
TORSDOF 3
