REMARK  Name = ZINC09700027
REMARK  8 active torsions:
REMARK  status: ('A' for Active; 'I' for Inactive)
REMARK    1  A    between atoms: C_1  and  C_2
REMARK    2  A    between atoms: C_7  and  N_12
REMARK    3  A    between atoms: C_9  and  C_11
REMARK    4  A    between atoms: C_13  and  C_15
REMARK    5  A    between atoms: C_15  and  O_16
REMARK    6  A    between atoms: O_16  and  C_17
REMARK    7  A    between atoms: C_17  and  C_19
REMARK    8  A    between atoms: N_27  and  C_30
REMARK                            x       y       z     vdW  Elec       q    Type
REMARK                         _______ _______ _______ _____ _____    ______ ____
ROOT
ATOM      1  C   UNL     1       1.186   1.795   0.000  0.00  0.00    +0.060 A 
ATOM      2  C   UNL     1       1.166   3.190   0.008  0.00  0.00    +0.016 A 
ATOM      3  C   UNL     1      -0.039   3.872   0.023  0.00  0.00    +0.014 A 
ATOM      4  C   UNL     1      -1.232   3.166   0.030  0.00  0.00    +0.050 A 
ATOM      5  C   UNL     1      -1.218   1.756   0.017  0.00  0.00    +0.051 A 
ATOM      6  C   UNL     1      -0.013   1.076   0.008  0.00  0.00    +0.028 A 
ATOM      7  C   UNL     1      -2.636   1.337   0.022  0.00  0.00    +0.258 C 
ATOM      8  O   UNL     1      -3.037   0.191   0.018  0.00  0.00    -0.269 OA
ATOM      9  N   UNL     1      -3.409   2.438   0.032  0.00  0.00    -0.202 N 
ATOM     10  C   UNL     1      -2.660   3.556   0.045  0.00  0.00    +0.258 C 
ATOM     11  O   UNL     1      -3.084   4.694   0.056  0.00  0.00    -0.269 OA
ENDROOT
BRANCH   9  12
ATOM     12  C   UNL     1      -4.811   2.424   0.038  0.00  0.00    +0.045 A 
ATOM     13  C   UNL     1      -5.493   1.214   0.029  0.00  0.00    +0.027 A 
ATOM     14  C   UNL     1      -6.874   1.202   0.040  0.00  0.00    +0.040 A 
ATOM     15  C   UNL     1      -7.578   2.394   0.049  0.00  0.00    +0.124 A 
ATOM     16  C   UNL     1      -6.900   3.601   0.053  0.00  0.00    +0.040 A 
ATOM     17  C   UNL     1      -5.519   3.618   0.048  0.00  0.00    +0.027 A 
ATOM     18  F   UNL     1      -8.929   2.380   0.056  0.00  0.00    -0.205 F 
ENDBRANCH   9  12
BRANCH   1  19
ATOM     19  C   UNL     1       2.478   1.076  -0.015  0.00  0.00    +0.340 C 
ATOM     20  O   UNL     1       2.498  -0.138  -0.022  0.00  0.00    -0.245 OA
BRANCH  19  21
ATOM     21  O   UNL     1       3.634   1.768  -0.023  0.00  0.00    -0.452 OA
BRANCH  21  22
ATOM     22  C   UNL     1       4.864   0.996  -0.038  0.00  0.00    +0.328 C 
BRANCH  22  24
ATOM     23  N   UNL     1       7.298   1.437  -0.059  0.00  0.00    -0.309 N 
ATOM     24  C   UNL     1       6.045   1.933  -0.044  0.00  0.00    +0.251 C 
ATOM     25  O   UNL     1       5.867   3.132  -0.037  0.00  0.00    -0.272 OA
ATOM     26  H   UNL     1       7.440   0.478  -0.065  0.00  0.00    +0.149 HD
BRANCH  23  32
ATOM     27  C   UNL     1      11.201  -0.307  -0.496  0.00  0.00    +0.008 C 
ATOM     28  C   UNL     1       9.995   0.397   0.129  0.00  0.00    -0.009 C 
ATOM     29  C   UNL     1      10.329   0.805   1.565  0.00  0.00    +0.003 C 
ATOM     30  C   UNL     1       9.123   1.509   2.189  0.00  0.00    +0.002 C 
ATOM     31  C   UNL     1       8.780   2.756   1.371  0.00  0.00    +0.022 C 
ATOM     32  C   UNL     1       8.446   2.348  -0.065  0.00  0.00    +0.076 C 
ATOM     33  C   UNL     1       9.652   1.644  -0.689  0.00  0.00    +0.009 C 
ATOM     34  C   UNL     1       9.317   1.236  -2.125  0.00  0.00    +0.009 C 
ENDBRANCH  23  32
ENDBRANCH  22  24
ENDBRANCH  21  22
ENDBRANCH  19  21
ENDBRANCH   1  19
TORSDOF 6
