REMARK  Name = ZINC21691342
REMARK  7 active torsions:
REMARK  status: ('A' for Active; 'I' for Inactive)
REMARK    1  A    between atoms: C_1  and  O_2
REMARK    2  A    between atoms: O_2  and  C_3
REMARK    3  A    between atoms: C_6  and  C_9
REMARK    4  A    between atoms: C_9  and  C_14
REMARK    5  A    between atoms: C_14  and  N_15
REMARK    6  A    between atoms: C_16  and  C_18
REMARK    7  A    between atoms: C_23  and  N_24
REMARK                            x       y       z     vdW  Elec       q    Type
REMARK                         _______ _______ _______ _____ _____    ______ ____
ROOT
ATOM      1  C   UNL     1      -4.803   0.344   0.407  0.00  0.00    +0.116 C 
ENDROOT
BRANCH   1   2
ATOM      2  C   UNL     1      -5.980  -0.572   0.750  0.00  0.00    +0.011 C 
ATOM      3  C   UNL     1      -6.263  -1.528  -0.422  0.00  0.00    +0.013 C 
ATOM      4  C   UNL     1      -7.705  -1.238  -0.888  0.00  0.00    +0.001 C 
ATOM      5  C   UNL     1      -7.971   0.214  -0.420  0.00  0.00    +0.001 C 
ATOM      6  C   UNL     1      -7.259   0.266   0.955  0.00  0.00    +0.013 C 
BRANCH   2  10
ATOM      7  C   UNL     1      -5.112  -2.805   4.289  0.00  0.00    +0.120 A 
ATOM      8  C   UNL     1      -4.227  -1.833   3.846  0.00  0.00    +0.046 A 
ATOM      9  C   UNL     1      -4.510  -1.112   2.702  0.00  0.00    +0.008 A 
ATOM     10  C   UNL     1      -5.674  -1.360   1.998  0.00  0.00    -0.039 A 
ATOM     11  C   UNL     1      -6.561  -2.324   2.440  0.00  0.00    +0.008 A 
ATOM     12  C   UNL     1      -6.280  -3.051   3.580  0.00  0.00    +0.046 A 
BRANCH   7  14
ATOM     13  C   UNL     1      -5.793  -4.501   5.810  0.00  0.00    +0.277 C 
ATOM     14  O   UNL     1      -4.836  -3.516   5.414  0.00  0.00    -0.495 OA
ENDBRANCH   7  14
ENDBRANCH   2  10
ENDBRANCH   1   2
BRANCH   1  15
ATOM     15  N   UNL     1      -3.627  -0.471   0.092  0.00  0.00    -0.310 N 
ATOM     16  C   UNL     1      -2.439   0.122  -0.141  0.00  0.00    +0.246 C 
ATOM     17  O   UNL     1      -2.345   1.333  -0.091  0.00  0.00    -0.270 OA
ATOM     18  H   UNL     1      -3.713  -1.567   0.046  0.00  0.00    +0.149 HD
BRANCH  16  19
ATOM     19  C   UNL     1      -1.252  -0.699  -0.459  0.00  0.00    +0.068 A 
ATOM     20  C   UNL     1      -0.857  -1.723   0.404  0.00  0.00    +0.035 A 
ATOM     21  C   UNL     1       0.256  -2.483   0.104  0.00  0.00    +0.042 A 
ATOM     22  C   UNL     1       0.976  -2.235  -1.053  0.00  0.00    +0.022 A 
ATOM     23  C   UNL     1       0.585  -1.225  -1.914  0.00  0.00    +0.035 A 
ATOM     24  C   UNL     1      -0.525  -0.458  -1.625  0.00  0.00    +0.138 A 
ATOM     25 CL   UNL     1       0.754  -3.752   1.179  0.00  0.00    -0.084 Cl
BRANCH  24  26
ATOM     26  N   UNL     1      -0.940   0.622  -2.548  0.00  0.00    +0.057 N 
ATOM     27  O   UNL     1      -0.240   0.911  -3.502  0.00  0.00    -0.126 OA
ATOM     28  O   UNL     1      -1.985   1.218  -2.357  0.00  0.00    -0.126 OA
ENDBRANCH  24  26
ENDBRANCH  16  19
ENDBRANCH   1  15
TORSDOF 6
