REMARK  Name = ZINC05701654
REMARK  8 active torsions:
REMARK  status: ('A' for Active; 'I' for Inactive)
REMARK    1  A    between atoms: C_1  and  C_2
REMARK    2  A    between atoms: C_2  and  C_30
REMARK    3  A    between atoms: C_8  and  O_11
REMARK    4  A    between atoms: O_11  and  C_12
REMARK    5  A    between atoms: C_12  and  C_13
REMARK    6  A    between atoms: N_15  and  N_16
REMARK    7  A    between atoms: C_17  and  C_19
REMARK    8  A    between atoms: C_24  and  N_25
REMARK                            x       y       z     vdW  Elec       q    Type
REMARK                         _______ _______ _______ _____ _____    ______ ____
ROOT
ATOM      1  C   UNL     1      -2.005   8.184  -0.552  0.00  0.00    +0.267 C 
ATOM      2  O   UNL     1      -3.091   7.655  -0.445  0.00  0.00    -0.271 OA
ATOM      3  N   UNL     1      -0.884   7.437  -0.515  0.00  0.00    -0.231 N 
ATOM      4  H   UNL     1      -0.015   7.860  -0.601  0.00  0.00    +0.173 HD
ENDROOT
BRANCH   3   5
ATOM      5  N   UNL     1      -0.973   6.048  -0.353  0.00  0.00    -0.230 N 
ATOM      6  C   UNL     1       0.148   5.300  -0.317  0.00  0.00    +0.262 C 
ATOM      7  O   UNL     1       1.236   5.831  -0.424  0.00  0.00    -0.269 OA
ATOM      8  H   UNL     1      -1.842   5.625  -0.268  0.00  0.00    +0.173 HD
BRANCH   6   9
ATOM      9  C   UNL     1       0.053   3.837  -0.146  0.00  0.00    +0.062 A 
ATOM     10  C   UNL     1      -1.193   3.208  -0.158  0.00  0.00    +0.015 A 
ATOM     11  C   UNL     1      -1.274   1.840  -0.003  0.00  0.00    +0.001 A 
ATOM     12  C   UNL     1      -0.125   1.088   0.175  0.00  0.00    +0.002 A 
ATOM     13  C   UNL     1       1.114   1.697   0.189  0.00  0.00    +0.027 A 
ATOM     14  C   UNL     1       1.215   3.072   0.029  0.00  0.00    +0.058 A 
BRANCH  14  15
ATOM     15  N   UNL     1       2.467   3.690   0.042  0.00  0.00    -0.322 N 
ATOM     16  C   UNL     1       3.507   3.401  -0.796  0.00  0.00    +0.091 A 
ATOM     17  C   UNL     1       4.540   4.206  -0.478  0.00  0.00    +0.019 A 
ATOM     18  C   UNL     1       4.130   5.016   0.600  0.00  0.00    +0.019 A 
ATOM     19  C   UNL     1       2.859   4.680   0.898  0.00  0.00    +0.091 A 
ENDBRANCH  14  15
ENDBRANCH   6   9
ENDBRANCH   3   5
BRANCH   1  20
ATOM     20  C   UNL     1      -1.908   9.678  -0.726  0.00  0.00    +0.326 C 
BRANCH  20  21
ATOM     21  O   UNL     1      -3.221  10.242  -0.734  0.00  0.00    -0.479 OA
BRANCH  21  29
ATOM     22  C   UNL     1      -6.882  12.777   1.087  0.00  0.00    +0.056 C 
ATOM     23  C   UNL     1      -6.750  12.683  -0.434  0.00  0.00    +0.109 C 
ATOM     24  C   UNL     1      -6.102  13.964  -1.009  0.00  0.00    +0.086 C 
ATOM     25  C   UNL     1      -4.634  13.584  -1.045  0.00  0.00    +0.002 A 
ATOM     26  C   UNL     1      -3.487  14.337  -1.183  0.00  0.00    +0.007 A 
ATOM     27  C   UNL     1      -2.249  13.722  -1.171  0.00  0.00    +0.004 A 
ATOM     28  C   UNL     1      -2.164  12.350  -1.019  0.00  0.00    +0.049 A 
ATOM     29  C   UNL     1      -3.313  11.591  -0.883  0.00  0.00    +0.163 A 
ATOM     30  C   UNL     1      -4.567  12.206  -0.905  0.00  0.00    +0.166 A 
ATOM     31  O   UNL     1      -5.810  11.659  -0.802  0.00  0.00    -0.482 OA
ATOM     32  C   UNL     1      -8.113  12.427  -1.082  0.00  0.00    +0.056 C 
ENDBRANCH  21  29
ENDBRANCH  20  21
ENDBRANCH   1  20
TORSDOF 6
