REMARK  Name = ZINC04024722
REMARK  6 active torsions:
REMARK  status: ('A' for Active; 'I' for Inactive)
REMARK    1  A    between atoms: C_1  and  O_2
REMARK    2  A    between atoms: O_2  and  C_3
REMARK    3  A    between atoms: C_6  and  C_9
REMARK    4  A    between atoms: C_14  and  C_24
REMARK    5  A    between atoms: C_15  and  O_23
REMARK    6  A    between atoms: C_16  and  N_18
REMARK                            x       y       z     vdW  Elec       q    Type
REMARK                         _______ _______ _______ _____ _____    ______ ____
ROOT
ATOM      1  C   UNL     1       3.733  -0.940  -0.022  0.00  0.00    +0.058 C 
ATOM      2  C   UNL     1       4.487  -0.384   1.191  0.00  0.00    +0.090 C 
ATOM      3  C   UNL     1       5.920  -0.846   1.133  0.00  0.00    +0.162 C 
ATOM      4  O   UNL     1       6.548  -0.991   2.163  0.00  0.00    -0.292 OA
ATOM      5  C   UNL     1       6.535  -1.108  -0.100  0.00  0.00    +0.025 C 
ATOM      6  C   UNL     1       5.879  -0.956  -1.264  0.00  0.00    +0.124 C 
ATOM      7  C   UNL     1       4.449  -0.489  -1.298  0.00  0.00    +0.182 C 
ENDROOT
BRANCH   5   8
ATOM      8  C   UNL     1       7.969  -1.573  -0.121  0.00  0.00    -0.003 C 
ATOM      9  C   UNL     1       8.055  -2.947   0.491  0.00  0.00    -0.054 A 
ATOM     10  C   UNL     1       7.081  -3.878   0.163  0.00  0.00    +0.002 A 
ATOM     11  C   UNL     1       7.123  -5.150   0.698  0.00  0.00    +0.000 A 
ATOM     12  C   UNL     1       8.142  -5.499   1.565  0.00  0.00    +0.000 A 
ATOM     13  C   UNL     1       9.111  -4.573   1.893  0.00  0.00    +0.004 A 
ATOM     14  C   UNL     1       9.069  -3.294   1.358  0.00  0.00    -0.047 A 
ATOM     15  C   UNL     1      10.143  -2.314   1.753  0.00  0.00    +0.016 C 
ATOM     16  C   UNL     1      10.166  -1.142   0.771  0.00  0.00    -0.077 C 
ATOM     17  N   UNL     1       8.795  -0.619   0.632  0.00  0.00    +0.387 N 
ATOM     18  H   UNL     1       8.388  -0.478   1.565  0.00  0.00    -0.085 HD
ATOM     19  H   UNL     1       8.821   0.278   0.132  0.00  0.00    -0.085 HD
ENDBRANCH   5   8
BRANCH   1  23
ATOM     20  C   UNL     1      -0.273   0.548  -0.023  0.00  0.00    +0.120 A 
ATOM     21  C   UNL     1       0.796   1.431  -0.070  0.00  0.00    +0.046 A 
ATOM     22  C   UNL     1       2.091   0.948  -0.069  0.00  0.00    +0.007 A 
ATOM     23  C   UNL     1       2.321  -0.415  -0.022  0.00  0.00    -0.041 A 
ATOM     24  C   UNL     1       1.257  -1.297   0.024  0.00  0.00    +0.007 A 
ATOM     25  C   UNL     1      -0.039  -0.819   0.024  0.00  0.00    +0.046 A 
BRANCH  20  27
ATOM     26  C   UNL     1      -1.712   2.440  -0.079  0.00  0.00    +0.277 C 
ATOM     27  O   UNL     1      -1.547   1.021  -0.029  0.00  0.00    -0.495 OA
ENDBRANCH  20  27
ENDBRANCH   1  23
BRANCH   7  28
ATOM     28  N   UNL     1       3.775  -1.064  -2.465  0.00  0.00    -0.241 N 
ATOM     29  C   UNL     1       3.986  -2.280  -2.999  0.00  0.00    +0.219 A 
ATOM     30  N   UNL     1       3.187  -2.416  -4.026  0.00  0.00    -0.223 NA
ATOM     31  C   UNL     1       2.461  -1.310  -4.184  0.00  0.00    +0.245 A 
ATOM     32  N   UNL     1       2.785  -0.453  -3.252  0.00  0.00    -0.158 NA
ENDBRANCH   7  28
BRANCH   6  33
ATOM     33  O   UNL     1       6.514  -1.226  -2.421  0.00  0.00    -0.509 OA
ATOM     34  H   UNL     1       5.893  -1.064  -3.187  0.00  0.00    +0.292 HD
ENDBRANCH   6  33
TORSDOF 5
