REMARK  Name = ZINC01393629
REMARK  3 active torsions:
REMARK  status: ('A' for Active; 'I' for Inactive)
REMARK    1  A    between atoms: C_3  and  N_9
REMARK    2  A    between atoms: C_6  and  C_7
REMARK    3  A    between atoms: C_10  and  C_14
REMARK                            x       y       z     vdW  Elec       q    Type
REMARK                         _______ _______ _______ _____ _____    ______ ____
ROOT
ATOM      1  N   UNL     1       3.610   2.091  -0.085  0.00  0.00    -0.232 N 
ATOM      2  C   UNL     1       4.715   1.815   0.670  0.00  0.00    +0.081 A 
ATOM      3  C   UNL     1       5.624   2.825   0.441  0.00  0.00    +0.050 A 
ATOM      4  C   UNL     1       5.048   3.716  -0.466  0.00  0.00    +0.135 A 
ATOM      5  N   UNL     1       3.855   3.279  -0.783  0.00  0.00    -0.174 NA
ENDROOT
BRANCH   2   6
ATOM      6  C   UNL     1       4.901   0.655   1.564  0.00  0.00    +0.083 A 
ATOM      7  C   UNL     1       4.860  -0.639   1.058  0.00  0.00    +0.129 A 
ATOM      8  N   UNL     1       5.022  -1.658   1.893  0.00  0.00    -0.231 NA
ATOM      9  C   UNL     1       5.228  -1.476   3.179  0.00  0.00    +0.172 A 
ATOM     10  N   UNL     1       5.317  -0.241   3.758  0.00  0.00    -0.286 N 
ATOM     11  C   UNL     1       5.127   0.843   2.945  0.00  0.00    +0.264 A 
ATOM     12  O   UNL     1       5.149   1.968   3.412  0.00  0.00    -0.267 OA
ATOM     13  C   UNL     1       5.629  -0.180   5.191  0.00  0.00    +0.138 C 
ATOM     14  C   UNL     1       5.278  -1.500   5.918  0.00  0.00    +0.099 C 
ATOM     15  S   UNL     1       5.441  -2.659   4.496  0.00  0.00    -0.086 S 
ENDBRANCH   2   6
BRANCH   1  18
ATOM     16  C   UNL     1       0.758   0.017   0.944  0.00  0.00    +0.021 A 
ATOM     17  C   UNL     1       1.906   0.775   1.007  0.00  0.00    +0.029 A 
ATOM     18  C   UNL     1       2.445   1.321  -0.153  0.00  0.00    +0.066 A 
ATOM     19  C   UNL     1       1.829   1.101  -1.380  0.00  0.00    +0.029 A 
ATOM     20  C   UNL     1       0.681   0.344  -1.451  0.00  0.00    +0.021 A 
ATOM     21  C   UNL     1       0.136  -0.205  -0.287  0.00  0.00    +0.052 A 
BRANCH  21  22
ATOM     22  C   UNL     1      -1.057  -0.994  -0.357  0.00  0.00    +0.099 C 
ATOM     23  N   UNL     1      -2.004  -1.619  -0.412  0.00  0.00    -0.191 NA
ENDBRANCH  21  22
ENDBRANCH   1  18
TORSDOF 3
