REMARK  Name = ZINC29498392
REMARK  4 active torsions:
REMARK  status: ('A' for Active; 'I' for Inactive)
REMARK    1  A    between atoms: C_1  and  C_2
REMARK    2  A    between atoms: N_5  and  C_11
REMARK    3  A    between atoms: C_7  and  C_10
REMARK    4  A    between atoms: C_11  and  N_12
REMARK                            x       y       z     vdW  Elec       q    Type
REMARK                         _______ _______ _______ _____ _____    ______ ____
ROOT
ATOM      1  N   UNL     1       2.519   1.407  -0.015  0.00  0.00    -0.261 N 
ATOM      2  C   UNL     1       1.177   1.787   0.000  0.00  0.00    +0.092 A 
ATOM      3  C   UNL     1      -0.013   1.076   0.008  0.00  0.00    +0.031 A 
ATOM      4  C   UNL     1      -1.217   1.752   0.017  0.00  0.00    +0.017 A 
ATOM      5  C   UNL     1      -1.238   3.136   0.029  0.00  0.00    +0.021 A 
ATOM      6  C   UNL     1      -0.056   3.852   0.023  0.00  0.00    +0.063 A 
ATOM      7  C   UNL     1       1.158   3.181   0.008  0.00  0.00    +0.158 A 
ATOM      8  O   UNL     1       2.446   3.602  -0.002  0.00  0.00    -0.407 OA
ATOM      9  C   UNL     1       3.259   2.534  -0.015  0.00  0.00    +0.422 A 
ATOM     10  O   UNL     1       4.474   2.576  -0.026  0.00  0.00    -0.223 OA
ATOM     11 BR   UNL     1      -2.892   4.053   0.049  0.00  0.00    -0.050 Br
ENDROOT
BRANCH   1  12
ATOM     12  C   UNL     1       3.032   0.035  -0.027  0.00  0.00    +0.216 C 
BRANCH  12  16
ATOM     13  C   UNL     1       5.375  -3.031  -3.082  0.00  0.00    +0.039 C 
ATOM     14  C   UNL     1       4.379  -1.874  -2.981  0.00  0.00    +0.130 C 
ATOM     15  C   UNL     1       4.204  -1.476  -1.513  0.00  0.00    +0.117 C 
ATOM     16  N   UNL     1       3.190  -0.416  -1.416  0.00  0.00    -0.280 NA
ATOM     17  C   UNL     1       1.907  -0.871  -1.971  0.00  0.00    +0.117 C 
ATOM     18  C   UNL     1       2.105  -1.274  -3.435  0.00  0.00    +0.130 C 
ATOM     19  O   UNL     1       3.116  -2.283  -3.513  0.00  0.00    -0.371 OA
ATOM     20  C   UNL     1       2.537  -0.053  -4.249  0.00  0.00    +0.039 C 
ENDBRANCH  12  16
ENDBRANCH   1  12
TORSDOF 2
