REMARK  Name = ZINC43420718
REMARK  6 active torsions:
REMARK  status: ('A' for Active; 'I' for Inactive)
REMARK    1  A    between atoms: C_1  and  C_2
REMARK    2  A    between atoms: C_7  and  N_8
REMARK    3  A    between atoms: N_11  and  C_12
REMARK    4  A    between atoms: N_11  and  C_13
REMARK    5  A    between atoms: C_13  and  C_14
REMARK    6  A    between atoms: C_16  and  C_19
REMARK                            x       y       z     vdW  Elec       q    Type
REMARK                         _______ _______ _______ _____ _____    ______ ____
ROOT
ATOM      1  N   UNL     1       0.025  -0.013   2.418  0.00  0.00    -0.269 N 
ATOM      2  C   UNL     1      -0.056  -0.692   3.579  0.00  0.00    +0.307 C 
ATOM      3  O   UNL     1      -0.040  -1.907   3.575  0.00  0.00    -0.252 OA
ATOM      4  N   UNL     1      -0.156  -0.023   4.745  0.00  0.00    -0.283 N 
ATOM      5  C   UNL     1      -0.175   1.442   4.750  0.00  0.00    +0.134 C 
ATOM      6  H   UNL     1       0.078   0.956   2.425  0.00  0.00    +0.156 HD
ENDROOT
BRANCH   1  13
ATOM      7  C   UNL     1      -1.266   1.182   0.182  0.00  0.00    +0.046 C 
ATOM      8  C   UNL     1      -0.584  -0.159   0.085  0.00  0.00    -0.026 A 
ATOM      9  C   UNL     1      -0.570  -0.841  -1.116  0.00  0.00    +0.043 A 
ATOM     10  C   UNL     1       0.057  -2.072  -1.206  0.00  0.00    +0.124 A 
ATOM     11  C   UNL     1       0.669  -2.623  -0.093  0.00  0.00    +0.040 A 
ATOM     12  C   UNL     1       0.656  -1.944   1.110  0.00  0.00    +0.026 A 
ATOM     13  C   UNL     1       0.034  -0.706   1.200  0.00  0.00    +0.038 A 
ATOM     14  F   UNL     1       0.070  -2.738  -2.382  0.00  0.00    -0.205 F 
ENDBRANCH   1  13
BRANCH   4  15
ATOM     15  C   UNL     1      -0.244  -0.761   6.007  0.00  0.00    +0.167 C 
BRANCH  15  16
ATOM     16  C   UNL     1       1.142  -0.996   6.551  0.00  0.00    +0.101 A 
ATOM     17  C   UNL     1       1.803  -0.195   7.499  0.00  0.00    +0.072 A 
ATOM     18  C   UNL     1       3.018  -0.731   7.725  0.00  0.00    +0.135 A 
ATOM     19  O   UNL     1       3.137  -1.827   6.959  0.00  0.00    -0.360 OA
ATOM     20  N   UNL     1       1.934  -1.978   6.228  0.00  0.00    -0.081 NA
ATOM     21  C   UNL     1       4.061  -0.195   8.672  0.00  0.00    +0.089 C 
ENDBRANCH  15  16
ENDBRANCH   4  15
TORSDOF 3
