REMARK  Name = ZINC63014012
REMARK  3 active torsions:
REMARK  status: ('A' for Active; 'I' for Inactive)
REMARK    1  A    between atoms: C_1  and  C_2
REMARK    2  A    between atoms: C_6  and  C_22
REMARK    3  A    between atoms: C_8  and  N_11
REMARK                            x       y       z     vdW  Elec       q    Type
REMARK                         _______ _______ _______ _____ _____    ______ ____
ROOT
ATOM      1  N   UNL     1       1.473  -2.527   2.423  0.00  0.00    +0.387 N 
ATOM      2  C   UNL     1       2.862  -2.083   2.366  0.00  0.00    -0.036 C 
ATOM      3  C   UNL     1       3.635  -2.314   3.645  0.00  0.00    +0.210 C 
ATOM      4  O   UNL     1       3.789  -3.716   3.901  0.00  0.00    -0.494 OA
ATOM      5  C   UNL     1       2.745  -4.304   4.550  0.00  0.00    +0.122 A 
ATOM      6  C   UNL     1       2.901  -4.762   5.851  0.00  0.00    +0.046 A 
ATOM      7  C   UNL     1       1.830  -5.339   6.505  0.00  0.00    +0.004 A 
ATOM      8  C   UNL     1       0.608  -5.459   5.868  0.00  0.00    +0.000 A 
ATOM      9  C   UNL     1       0.456  -5.009   4.568  0.00  0.00    +0.005 A 
ATOM     10  C   UNL     1       1.529  -4.442   3.911  0.00  0.00    -0.022 A 
ATOM     11  C   UNL     1       1.386  -3.991   2.471  0.00  0.00    -0.039 C 
ATOM     12  H   UNL     1       1.038  -2.143   3.248  0.00  0.00    -0.081 HD
ENDROOT
BRANCH   1  18
ATOM     13  C   UNL     1       0.338   1.503  -0.212  0.00  0.00    +0.007 C 
ATOM     14  C   UNL     1       0.180  -0.015  -0.109  0.00  0.00    -0.016 C 
ATOM     15  C   UNL     1      -1.304  -0.368   0.004  0.00  0.00    +0.004 C 
ATOM     16  C   UNL     1      -1.462  -1.886   0.106  0.00  0.00    +0.013 C 
ATOM     17  C   UNL     1      -0.722  -2.393   1.346  0.00  0.00    +0.089 C 
ATOM     18  C   UNL     1       0.763  -2.041   1.233  0.00  0.00    -0.054 C 
ATOM     19  C   UNL     1       0.920  -0.522   1.130  0.00  0.00    -0.011 C 
BRANCH  17  20
ATOM     20  C   UNL     1      -1.300  -1.743   2.577  0.00  0.00    +0.357 C 
ATOM     21  O   UNL     1      -2.477  -1.899   2.852  0.00  0.00    -0.246 OA
ATOM     22  O   UNL     1      -0.590  -1.062   3.297  0.00  0.00    -0.246 OA
ENDBRANCH  17  20
ENDBRANCH   1  18
TORSDOF 2
