REMARK  Name = ZINC20086742
REMARK  8 active torsions:
REMARK  status: ('A' for Active; 'I' for Inactive)
REMARK    1  A    between atoms: C_1  and  C_2
REMARK    2  A    between atoms: N_8  and  C_9
REMARK    3  A    between atoms: C_10  and  C_18
REMARK    4  A    between atoms: C_12  and  C_16
REMARK    5  A    between atoms: C_13  and  N_15
REMARK    6  A    between atoms: C_21  and  O_26
REMARK    7  A    between atoms: C_22  and  O_24
REMARK    8  A    between atoms: O_24  and  C_25
REMARK                            x       y       z     vdW  Elec       q    Type
REMARK                         _______ _______ _______ _____ _____    ______ ____
ROOT
ATOM      1  C   UNL     1       2.054  -4.114  -1.582  0.00  0.00    +0.064 C 
ATOM      2  C   UNL     1       2.147  -2.668  -1.169  0.00  0.00    +0.022 A 
ATOM      3  C   UNL     1       1.033  -2.014  -0.778  0.00  0.00    +0.068 A 
ATOM      4  C   UNL     1       1.115  -0.660  -0.390  0.00  0.00    +0.141 A 
ATOM      5  C   UNL     1       2.341  -0.030  -0.419  0.00  0.00    +0.072 A 
ATOM      6  C   UNL     1       3.470  -0.749  -0.833  0.00  0.00    +0.259 A 
ATOM      7  O   UNL     1       4.562  -0.204  -0.864  0.00  0.00    -0.267 OA
ATOM      8  N   UNL     1       3.352  -2.039  -1.196  0.00  0.00    -0.315 N 
ATOM      9  C   UNL     1       4.542  -2.779  -1.626  0.00  0.00    +0.152 C 
ATOM     10  C   UNL     1       2.474   1.412  -0.013  0.00  0.00    +0.103 C 
ATOM     11  C   UNL     1       1.123   2.072   0.003  0.00  0.00    +0.098 C 
ATOM     12  C   UNL     1      -0.016   1.340   0.009  0.00  0.00    +0.199 C 
ATOM     13  O   UNL     1       0.002  -0.004   0.002  0.00  0.00    -0.441 OA
ENDROOT
BRANCH  10  14
ATOM     14  C   UNL     1       3.080   1.489   1.365  0.00  0.00    -0.031 A 
ATOM     15  C   UNL     1       2.437   0.895   2.435  0.00  0.00    +0.008 A 
ATOM     16  C   UNL     1       2.989   0.963   3.701  0.00  0.00    +0.049 A 
ATOM     17  C   UNL     1       4.189   1.626   3.898  0.00  0.00    +0.158 A 
ATOM     18  C   UNL     1       4.837   2.223   2.821  0.00  0.00    +0.162 A 
ATOM     19  C   UNL     1       4.280   2.147   1.554  0.00  0.00    +0.054 A 
BRANCH  18  20
ATOM     20  O   UNL     1       6.015   2.876   3.010  0.00  0.00    -0.491 OA
ATOM     21  C   UNL     1       6.623   3.464   1.858  0.00  0.00    +0.277 C 
ENDBRANCH  18  20
BRANCH  17  22
ATOM     22  O   UNL     1       4.734   1.694   5.143  0.00  0.00    -0.503 OA
ATOM     23  H   UNL     1       5.687   2.221   5.298  0.00  0.00    +0.292 HD
ENDBRANCH  17  22
ENDBRANCH  10  14
BRANCH  12  24
ATOM     24  N   UNL     1      -1.225   1.990   0.019  0.00  0.00    -0.328 N 
ATOM     25  H   UNL     1      -2.161   1.411   0.024  0.00  0.00    +0.145 HD
ATOM     26  H   UNL     1      -1.259   3.090   0.020  0.00  0.00    +0.145 HD
ENDBRANCH  12  24
BRANCH  11  27
ATOM     27  C   UNL     1       1.040   3.502   0.010  0.00  0.00    +0.101 C 
ATOM     28  N   UNL     1       0.974   4.636   0.015  0.00  0.00    -0.191 NA
ENDBRANCH  11  27
TORSDOF 5
