REMARK  Name = ZINC37267193
REMARK  5 active torsions:
REMARK  status: ('A' for Active; 'I' for Inactive)
REMARK    1  A    between atoms: C_1  and  N_2
REMARK    2  A    between atoms: C_5  and  N_8
REMARK    3  A    between atoms: N_8  and  S_9
REMARK    4  A    between atoms: S_9  and  C_12
REMARK    5  A    between atoms: C_15  and  N_19
REMARK                            x       y       z     vdW  Elec       q    Type
REMARK                         _______ _______ _______ _____ _____    ______ ____
ROOT
ATOM      1  S   UNL     1       2.472  -4.961   0.546  0.00  0.00    +0.061 S 
ATOM      2  O   UNL     1       2.060  -6.316   0.430  0.00  0.00    -0.153 OA
ATOM      3  O   UNL     1       3.660  -4.472  -0.062  0.00  0.00    -0.153 OA
ENDROOT
BRANCH   1   4
ATOM      4  C   UNL     1       2.613  -4.623   2.269  0.00  0.00    +0.142 A 
ATOM      5  C   UNL     1       3.434  -3.599   2.707  0.00  0.00    +0.070 A 
ATOM      6  C   UNL     1       3.546  -3.331   4.058  0.00  0.00    +0.044 A 
ATOM      7  C   UNL     1       2.833  -4.090   4.977  0.00  0.00    +0.027 A 
ATOM      8  C   UNL     1       2.010  -5.118   4.535  0.00  0.00    +0.044 A 
ATOM      9  C   UNL     1       1.898  -5.378   3.182  0.00  0.00    +0.070 A 
ATOM     10 CL   UNL     1       0.863  -6.657   2.628  0.00  0.00    -0.081 Cl
ATOM     11 CL   UNL     1       4.325  -2.650   1.558  0.00  0.00    -0.081 Cl
BRANCH   7  12
ATOM     12  N   UNL     1       2.945  -3.822   6.343  0.00  0.00    -0.358 N 
ATOM     13  H   UNL     1       3.521  -3.105   6.651  0.00  0.00    +0.142 HD
ATOM     14  H   UNL     1       2.447  -4.354   6.984  0.00  0.00    +0.142 HD
ENDBRANCH   7  12
ENDBRANCH   1   4
BRANCH   1  15
ATOM     15  N   UNL     1       1.228  -4.036  -0.035  0.00  0.00    -0.187 NA
ATOM     16  H   UNL     1       0.427  -4.462  -0.380  0.00  0.00    +0.148 HD
BRANCH  15  21
ATOM     17  C   UNL     1      -0.018   1.465   0.010  0.00  0.00    -0.096 C 
ATOM     18  N   UNL     1       0.002  -0.004   0.002  0.00  0.00    +0.378 N 
ATOM     19  C   UNL     1       0.681  -0.476  -1.210  0.00  0.00    -0.078 C 
ATOM     20  C   UNL     1       0.634  -2.005  -1.264  0.00  0.00    +0.002 C 
ATOM     21  C   UNL     1       1.336  -2.575  -0.029  0.00  0.00    +0.073 C 
ATOM     22  C   UNL     1       0.666  -2.018   1.230  0.00  0.00    +0.002 C 
ATOM     23  C   UNL     1       0.712  -0.489   1.192  0.00  0.00    -0.078 C 
ATOM     24  H   UNL     1      -0.945  -0.352   0.012  0.00  0.00    -0.082 HD
ENDBRANCH  15  21
ENDBRANCH   1  15
TORSDOF 4
