REMARK  Name = ZINC14326289
REMARK  7 active torsions:
REMARK  status: ('A' for Active; 'I' for Inactive)
REMARK    1  A    between atoms: C_1  and  C_2
REMARK    2  A    between atoms: C_4  and  C_14
REMARK    3  A    between atoms: N_16  and  N_17
REMARK    4  A    between atoms: C_18  and  C_20
REMARK    5  A    between atoms: C_20  and  C_22
REMARK    6  A    between atoms: C_20  and  O_23
REMARK    7  A    between atoms: O_23  and  C_24
REMARK                            x       y       z     vdW  Elec       q    Type
REMARK                         _______ _______ _______ _____ _____    ______ ____
ROOT
ATOM      1  C   UNL     1      -1.438   4.425  -1.211  0.00  0.00    +0.274 C 
ATOM      2  O   UNL     1      -2.200   3.847  -1.955  0.00  0.00    -0.270 OA
ATOM      3  N   UNL     1      -0.635   3.721  -0.389  0.00  0.00    -0.231 N 
ATOM      4  H   UNL     1      -0.071   4.183   0.252  0.00  0.00    +0.173 HD
ENDROOT
BRANCH   1   7
ATOM      5  C   UNL     1      -1.322   5.927   1.301  0.00  0.00    +0.056 C 
ATOM      6  C   UNL     1      -2.054   6.466   0.070  0.00  0.00    +0.220 C 
ATOM      7  C   UNL     1      -1.388   5.931  -1.204  0.00  0.00    +0.300 C 
ATOM      8  O   UNL     1      -2.104   6.443  -2.333  0.00  0.00    -0.472 OA
ATOM      9  C   UNL     1      -3.462   6.368  -2.281  0.00  0.00    +0.163 A 
ATOM     10  C   UNL     1      -4.197   6.501  -3.449  0.00  0.00    +0.049 A 
ATOM     11  C   UNL     1      -5.577   6.430  -3.412  0.00  0.00    +0.004 A 
ATOM     12  C   UNL     1      -6.228   6.228  -2.209  0.00  0.00    +0.004 A 
ATOM     13  C   UNL     1      -5.502   6.094  -1.041  0.00  0.00    +0.049 A 
ATOM     14  C   UNL     1      -4.117   6.162  -1.072  0.00  0.00    +0.163 A 
ATOM     15  O   UNL     1      -3.415   6.022   0.085  0.00  0.00    -0.481 OA
ENDBRANCH   1   7
BRANCH   3  16
ATOM     16  N   UNL     1      -0.614   2.322  -0.459  0.00  0.00    -0.231 N 
ATOM     17  C   UNL     1       0.189   1.617   0.363  0.00  0.00    +0.270 C 
ATOM     18  O   UNL     1       0.894   2.195   1.163  0.00  0.00    -0.270 OA
ATOM     19  H   UNL     1      -1.178   1.860  -1.099  0.00  0.00    +0.173 HD
BRANCH  17  20
ATOM     20  C   UNL     1       0.211   0.113   0.287  0.00  0.00    +0.257 C 
ATOM     21  C   UNL     1       0.763  -0.322  -1.072  0.00  0.00    +0.062 C 
BRANCH  20  22
ATOM     22  O   UNL     1       1.044  -0.405   1.327  0.00  0.00    -0.480 OA
BRANCH  22  23
ATOM     23  C   UNL     1       0.803  -1.679   1.734  0.00  0.00    +0.123 A 
ATOM     24  C   UNL     1       1.516  -2.215   2.797  0.00  0.00    +0.046 A 
ATOM     25  C   UNL     1       1.270  -3.510   3.209  0.00  0.00    +0.005 A 
ATOM     26  C   UNL     1       0.315  -4.273   2.563  0.00  0.00    +0.015 A 
ATOM     27  C   UNL     1      -0.397  -3.741   1.503  0.00  0.00    +0.021 A 
ATOM     28  C   UNL     1      -0.158  -2.444   1.090  0.00  0.00    +0.061 A 
ATOM     29 BR   UNL     1      -1.703  -4.787   0.622  0.00  0.00    -0.050 Br
ENDBRANCH  22  23
ENDBRANCH  20  22
ENDBRANCH  17  20
ENDBRANCH   3  16
TORSDOF 5
