REMARK  Name = ZINC30947213
REMARK  5 active torsions:
REMARK  status: ('A' for Active; 'I' for Inactive)
REMARK    1  A    between atoms: C_4  and  S_7
REMARK    2  A    between atoms: S_7  and  N_10
REMARK    3  A    between atoms: C_16  and  C_18
REMARK    4  A    between atoms: N_23  and  C_25
REMARK    5  A    between atoms: C_25  and  C_26
REMARK                            x       y       z     vdW  Elec       q    Type
REMARK                         _______ _______ _______ _____ _____    ______ ____
ROOT
ATOM      1  N   UNL     1      -2.133  10.942  -6.205  0.00  0.00    -0.174 NA
ATOM      2  C   UNL     1      -2.183  11.693  -4.943  0.00  0.00    +0.128 C 
ATOM      3  C   UNL     1      -0.944  11.337  -4.112  0.00  0.00    +0.125 C 
ATOM      4  N   UNL     1      -0.818   9.873  -4.061  0.00  0.00    -0.299 N 
ATOM      5  C   UNL     1      -0.762   9.123  -5.323  0.00  0.00    +0.125 C 
ATOM      6  C   UNL     1      -2.007   9.478  -6.154  0.00  0.00    +0.128 C 
ATOM      7  C   UNL     1      -0.748   9.232  -2.878  0.00  0.00    +0.217 C 
ATOM      8  O   UNL     1      -0.888   9.850  -1.844  0.00  0.00    -0.275 OA
ENDROOT
BRANCH   7   9
ATOM      9  C   UNL     1      -0.495   7.747  -2.840  0.00  0.00    +0.059 C 
ATOM     10  C   UNL     1       0.351   7.403  -1.611  0.00  0.00    +0.009 C 
ATOM     11  C   UNL     1       0.552   5.887  -1.547  0.00  0.00    -0.018 C 
ATOM     12  C   UNL     1      -0.814   5.197  -1.502  0.00  0.00    -0.078 C 
ATOM     13  N   UNL     1      -1.584   5.557  -2.699  0.00  0.00    +0.383 N 
ATOM     14  C   UNL     1      -1.831   7.003  -2.757  0.00  0.00    -0.066 C 
ATOM     15  H   UNL     1      -0.984   5.283  -3.579  0.00  0.00    -0.081 HD
BRANCH  13  16
ATOM     16  C   UNL     1      -2.845   4.805  -2.759  0.00  0.00    -0.043 C 
BRANCH  16  17
ATOM     17  C   UNL     1      -2.548   3.340  -2.944  0.00  0.00    -0.063 A 
ATOM     18  C   UNL     1      -2.382   2.523  -1.840  0.00  0.00    +0.002 A 
ATOM     19  C   UNL     1      -2.110   1.179  -2.009  0.00  0.00    +0.002 A 
ATOM     20  C   UNL     1      -2.002   0.650  -3.282  0.00  0.00    +0.020 A 
ATOM     21  C   UNL     1      -2.161   1.467  -4.386  0.00  0.00    +0.041 A 
ATOM     22  C   UNL     1      -2.441   2.812  -4.216  0.00  0.00    +0.021 A 
ATOM     23 CL   UNL     1      -2.018   0.805  -5.985  0.00  0.00    -0.084 Cl
ENDBRANCH  16  17
ENDBRANCH  13  16
ENDBRANCH   7   9
BRANCH   1  24
ATOM     24  S   UNL     1      -2.218  11.730  -7.659  0.00  0.00    +0.061 S 
ATOM     25  O   UNL     1      -2.701  10.786  -8.605  0.00  0.00    -0.153 OA
ATOM     26  O   UNL     1      -2.874  12.966  -7.413  0.00  0.00    -0.153 OA
BRANCH  24  30
ATOM     27  C   UNL     1       2.022  12.736  -8.886  0.00  0.00    +0.000 A 
ATOM     28  C   UNL     1       1.457  11.534  -9.271  0.00  0.00    +0.002 A 
ATOM     29  C   UNL     1       0.163  11.227  -8.897  0.00  0.00    +0.028 A 
ATOM     30  C   UNL     1      -0.568  12.121  -8.136  0.00  0.00    +0.105 A 
ATOM     31  C   UNL     1      -0.005  13.325  -7.755  0.00  0.00    +0.028 A 
ATOM     32  C   UNL     1       1.291  13.630  -8.126  0.00  0.00    +0.002 A 
ENDBRANCH  24  30
ENDBRANCH   1  24
TORSDOF 5
