REMARK  Name = ZINC43427867
REMARK  3 active torsions:
REMARK  status: ('A' for Active; 'I' for Inactive)
REMARK    1  A    between atoms: C_1  and  C_2
REMARK    2  A    between atoms: C_5  and  O_21
REMARK    3  A    between atoms: C_6  and  C_8
REMARK                            x       y       z     vdW  Elec       q    Type
REMARK                         _______ _______ _______ _____ _____    ______ ____
ROOT
ATOM      1  C   UNL     1       0.053  -2.841   2.459  0.00  0.00    +0.251 C 
ATOM      2  O   UNL     1      -0.029  -4.054   2.452  0.00  0.00    -0.270 OA
ATOM      3  N   UNL     1       0.152  -2.178   3.628  0.00  0.00    -0.290 N 
ATOM      4  C   UNL     1       0.132  -0.700   3.713  0.00  0.00    +0.136 C 
ATOM      5  C   UNL     1      -0.856  -0.232   4.780  0.00  0.00    +0.179 C 
ATOM      6  O   UNL     1      -0.728  -0.990   5.998  0.00  0.00    -0.373 OA
ATOM      7  C   UNL     1      -0.916  -2.366   5.763  0.00  0.00    +0.139 C 
ATOM      8  C   UNL     1       0.281  -2.862   4.911  0.00  0.00    +0.105 C 
ATOM      9  C   UNL     1       0.038  -4.373   4.911  0.00  0.00    +0.025 C 
ATOM     10  C   UNL     1      -0.381  -4.656   6.381  0.00  0.00    +0.004 C 
ATOM     11  C   UNL     1      -0.908  -3.331   6.937  0.00  0.00    +0.033 C 
ENDROOT
BRANCH   1  17
ATOM     12  C   UNL     1       1.888   0.796  -0.418  0.00  0.00    +0.044 C 
ATOM     13  C   UNL     1       0.925  -0.344  -0.204  0.00  0.00    -0.050 A 
ATOM     14  C   UNL     1       0.032  -0.689  -1.205  0.00  0.00    +0.007 A 
ATOM     15  C   UNL     1      -0.855  -1.731  -1.020  0.00  0.00    +0.046 A 
ATOM     16  C   UNL     1      -0.857  -2.440   0.172  0.00  0.00    +0.129 A 
ATOM     17  C   UNL     1       0.046  -2.094   1.187  0.00  0.00    +0.078 A 
ATOM     18  C   UNL     1       0.941  -1.040   0.985  0.00  0.00    +0.020 A 
BRANCH  16  19
ATOM     19  O   UNL     1      -1.728  -3.463   0.354  0.00  0.00    -0.506 OA
ATOM     20  H   UNL     1      -1.388  -4.324   0.073  0.00  0.00    +0.292 HD
ENDBRANCH  16  19
ENDBRANCH   1  17
TORSDOF 2
