REMARK  Name = ZINC36642615
REMARK  7 active torsions:
REMARK  status: ('A' for Active; 'I' for Inactive)
REMARK    1  A    between atoms: C_1  and  C_2
REMARK    2  A    between atoms: C_4  and  C_14
REMARK    3  A    between atoms: N_16  and  C_17
REMARK    4  A    between atoms: C_17  and  C_18
REMARK    5  A    between atoms: C_18  and  N_19
REMARK    6  A    between atoms: N_19  and  C_20
REMARK    7  A    between atoms: N_19  and  C_21
REMARK                            x       y       z     vdW  Elec       q    Type
REMARK                         _______ _______ _______ _____ _____    ______ ____
ROOT
ATOM      1  C   UNL     1      -2.124  -0.231   1.383  0.00  0.00    +0.266 C 
ATOM      2  O   UNL     1      -2.331  -1.036   2.266  0.00  0.00    -0.271 OA
ATOM      3  N   UNL     1      -2.382   1.076   1.588  0.00  0.00    -0.249 N 
ATOM      4  C   UNL     1      -2.777   1.516   2.842  0.00  0.00    +0.168 A 
ATOM      5  N   UNL     1      -3.074   2.733   3.231  0.00  0.00    -0.221 NA
ATOM      6  C   UNL     1      -3.447   3.020   4.498  0.00  0.00    +0.116 A 
ATOM      7  C   UNL     1      -3.792   4.280   5.043  0.00  0.00    +0.152 A 
ATOM      8  C   UNL     1      -4.150   4.399   6.363  0.00  0.00    +0.079 A 
ATOM      9  C   UNL     1      -4.187   3.296   7.206  0.00  0.00    +0.127 A 
ATOM     10  C   UNL     1      -3.857   2.049   6.704  0.00  0.00    +0.055 A 
ATOM     11  C   UNL     1      -3.497   1.921   5.385  0.00  0.00    +0.046 A 
ATOM     12  S   UNL     1      -3.016   0.569   4.338  0.00  0.00    -0.052 S 
ATOM     13  F   UNL     1      -4.543   3.438   8.502  0.00  0.00    -0.205 F 
ATOM     14  F   UNL     1      -3.768   5.378   4.256  0.00  0.00    -0.203 F 
ENDROOT
BRANCH   1  17
ATOM     15  C   UNL     1       0.507   0.644   0.442  0.00  0.00    +0.056 C 
ATOM     16  C   UNL     1      -0.046  -0.746   0.117  0.00  0.00    +0.220 C 
ATOM     17  C   UNL     1      -1.578  -0.692   0.056  0.00  0.00    +0.299 C 
ATOM     18  O   UNL     1      -2.062  -2.007  -0.236  0.00  0.00    -0.472 OA
ATOM     19  C   UNL     1      -1.519  -3.030   0.479  0.00  0.00    +0.163 A 
ATOM     20  C   UNL     1      -2.171  -4.254   0.519  0.00  0.00    +0.049 A 
ATOM     21  C   UNL     1      -1.630  -5.303   1.238  0.00  0.00    +0.004 A 
ATOM     22  C   UNL     1      -0.438  -5.137   1.917  0.00  0.00    +0.004 A 
ATOM     23  C   UNL     1       0.216  -3.920   1.882  0.00  0.00    +0.049 A 
ATOM     24  C   UNL     1      -0.322  -2.862   1.165  0.00  0.00    +0.163 A 
ATOM     25  O   UNL     1       0.330  -1.667   1.146  0.00  0.00    -0.481 OA
ENDBRANCH   1  17
BRANCH   3  26
ATOM     26  C   UNL     1      -2.247   2.032   0.485  0.00  0.00    +0.097 C 
BRANCH  26  27
ATOM     27  C   UNL     1      -3.543   2.061  -0.326  0.00  0.00    -0.060 C 
BRANCH  27  28
ATOM     28  N   UNL     1      -3.369   2.933  -1.496  0.00  0.00    +0.377 N 
ATOM     29  C   UNL     1      -2.378   2.341  -2.405  0.00  0.00    -0.097 C 
ATOM     30  C   UNL     1      -4.652   3.076  -2.196  0.00  0.00    -0.097 C 
ATOM     31  H   UNL     1      -3.047   3.841  -1.194  0.00  0.00    -0.083 HD
ENDBRANCH  27  28
ENDBRANCH  26  27
ENDBRANCH   3  26
TORSDOF 4
