REMARK  Name = ZINC20579890
REMARK  3 active torsions:
REMARK  status: ('A' for Active; 'I' for Inactive)
REMARK    1  A    between atoms: C_1  and  C_2
REMARK    2  A    between atoms: C_2  and  C_4
REMARK    3  A    between atoms: C_2  and  N_14
REMARK                            x       y       z     vdW  Elec       q    Type
REMARK                         _______ _______ _______ _____ _____    ______ ____
ROOT
ATOM      1  N   UNL     1      -2.556   5.260   0.055  0.00  0.00    -0.324 N 
ATOM      2  C   UNL     1      -2.521   3.874   0.048  0.00  0.00    +0.149 A 
ATOM      3  C   UNL     1      -1.232   3.174   0.031  0.00  0.00    +0.027 A 
ATOM      4  C   UNL     1      -0.020   3.866   0.023  0.00  0.00    +0.012 A 
ATOM      5  C   UNL     1       1.155   3.169   0.008  0.00  0.00    +0.001 A 
ATOM      6  C   UNL     1       1.159   1.780   0.001  0.00  0.00    +0.001 A 
ATOM      7  C   UNL     1      -0.013   1.076   0.008  0.00  0.00    +0.012 A 
ATOM      8  C   UNL     1      -1.227   1.761   0.017  0.00  0.00    +0.033 A 
ATOM      9  C   UNL     1      -2.516   1.065   0.032  0.00  0.00    +0.207 A 
ATOM     10  N   UNL     1      -2.872  -0.206   0.029  0.00  0.00    -0.106 NA
ATOM     11  N   UNL     1      -4.153  -0.309   0.042  0.00  0.00    -0.021 NA
ATOM     12  N   UNL     1      -4.704   0.857   0.054  0.00  0.00    -0.021 NA
ATOM     13  N   UNL     1      -3.665   1.801   0.048  0.00  0.00    -0.108 N 
ATOM     14  N   UNL     1      -3.639   3.193   0.055  0.00  0.00    -0.130 NA
ATOM     15  H   UNL     1      -1.617   5.834   0.049  0.00  0.00    +0.148 HD
ENDROOT
BRANCH   1  17
ATOM     16  C   UNL     1      -4.364   6.102  -1.359  0.00  0.00    +0.028 C 
ATOM     17  C   UNL     1      -3.842   5.961   0.072  0.00  0.00    +0.075 C 
BRANCH  17  18
ATOM     18  C   UNL     1      -3.659   7.349   0.687  0.00  0.00    -0.010 C 
ATOM     19  C   UNL     1      -2.654   8.148  -0.146  0.00  0.00    +0.012 C 
ATOM     20  C   UNL     1      -2.470   9.537   0.469  0.00  0.00    -0.010 C 
ATOM     21  C   UNL     1      -3.814  10.268   0.486  0.00  0.00    +0.007 C 
ATOM     22  C   UNL     1      -4.819   9.470   1.320  0.00  0.00    -0.010 C 
ATOM     23  C   UNL     1      -5.002   8.081   0.704  0.00  0.00    +0.012 C 
ATOM     24  C   UNL     1      -4.296   9.329   2.751  0.00  0.00    +0.007 C 
ATOM     25  C   UNL     1      -2.953   8.597   2.734  0.00  0.00    -0.010 C 
ATOM     26  C   UNL     1      -1.948   9.395   1.900  0.00  0.00    +0.007 C 
ATOM     27  C   UNL     1      -3.136   7.208   2.118  0.00  0.00    +0.012 C 
ENDBRANCH  17  18
ENDBRANCH   1  17
TORSDOF 2
