REMARK  Name = ZINC09202468
REMARK  8 active torsions:
REMARK  status: ('A' for Active; 'I' for Inactive)
REMARK    1  A    between atoms: C_1  and  C_2
REMARK    2  A    between atoms: C_7  and  C_8
REMARK    3  A    between atoms: N_10  and  N_11
REMARK    4  A    between atoms: C_12  and  C_13
REMARK    5  A    between atoms: C_22  and  O_23
REMARK    6  A    between atoms: O_23  and  C_24
REMARK    7  A    between atoms: C_24  and  C_25
REMARK    8  A    between atoms: C_30  and  C_31
REMARK                            x       y       z     vdW  Elec       q    Type
REMARK                         _______ _______ _______ _____ _____    ______ ____
ROOT
ATOM      1  C   UNL     1      -1.292   3.233  -0.954  0.00  0.00    +0.044 A 
ATOM      2  C   UNL     1      -0.100   4.058  -1.139  0.00  0.00    -0.006 A 
ATOM      3  C   UNL     1      -0.164   5.455  -1.095  0.00  0.00    +0.009 A 
ATOM      4  C   UNL     1       0.971   6.188  -1.273  0.00  0.00    +0.001 A 
ATOM      5  C   UNL     1       2.197   5.565  -1.497  0.00  0.00    +0.001 A 
ATOM      6  C   UNL     1       2.295   4.208  -1.545  0.00  0.00    +0.008 A 
ATOM      7  C   UNL     1       1.145   3.421  -1.367  0.00  0.00    -0.017 A 
ATOM      8  C   UNL     1       1.207   2.017  -1.410  0.00  0.00    +0.012 A 
ATOM      9  C   UNL     1       0.088   1.265  -1.237  0.00  0.00    +0.047 A 
ATOM     10  C   UNL     1      -1.159   1.846  -1.015  0.00  0.00    +0.130 A 
ENDROOT
BRANCH   1  12
ATOM     11  N   UNL     1      -2.695   5.138  -0.555  0.00  0.00    -0.187 NA
ATOM     12  C   UNL     1      -2.603   3.852  -0.715  0.00  0.00    +0.142 C 
BRANCH  11  15
ATOM     13  C   UNL     1      -4.046   7.058  -0.155  0.00  0.00    +0.264 C 
ATOM     14  O   UNL     1      -3.067   7.763  -0.301  0.00  0.00    -0.268 OA
ATOM     15  N   UNL     1      -3.927   5.717  -0.221  0.00  0.00    -0.203 N 
ATOM     16  H   UNL     1      -4.694   5.152  -0.038  0.00  0.00    +0.178 HD
BRANCH  13  23
ATOM     17  C   UNL     1      -4.244   9.916   0.245  0.00  0.00    +0.044 C 
ATOM     18  C   UNL     1      -5.476   9.049   0.289  0.00  0.00    -0.038 A 
ATOM     19  C   UNL     1      -6.712   9.615   0.521  0.00  0.00    +0.004 A 
ATOM     20  C   UNL     1      -7.844   8.819   0.561  0.00  0.00    +0.000 A 
ATOM     21  C   UNL     1      -7.744   7.453   0.368  0.00  0.00    +0.001 A 
ATOM     22  C   UNL     1      -6.514   6.875   0.131  0.00  0.00    +0.013 A 
ATOM     23  C   UNL     1      -5.368   7.671   0.094  0.00  0.00    +0.041 A 
ENDBRANCH  13  23
ENDBRANCH  11  15
ENDBRANCH   1  12
BRANCH  10  24
ATOM     24  O   UNL     1      -2.252   1.056  -0.852  0.00  0.00    -0.487 OA
BRANCH  24  25
ATOM     25  C   UNL     1      -2.031  -0.356  -0.810  0.00  0.00    +0.265 C 
BRANCH  25  26
ATOM     26  C   UNL     1      -3.353  -1.067  -0.674  0.00  0.00    +0.007 A 
ATOM     27  C   UNL     1      -4.531  -0.351  -0.721  0.00  0.00    +0.008 A 
ATOM     28  C   UNL     1      -5.745  -1.003  -0.601  0.00  0.00    +0.000 A 
ATOM     29  C   UNL     1      -5.787  -2.374  -0.423  0.00  0.00    +0.001 A 
ATOM     30  C   UNL     1      -4.616  -3.102  -0.369  0.00  0.00    +0.019 A 
ATOM     31  C   UNL     1      -3.387  -2.451  -0.495  0.00  0.00    +0.058 A 
BRANCH  31  32
ATOM     32  C   UNL     1      -2.168  -3.200  -0.439  0.00  0.00    +0.100 C 
ATOM     33  N   UNL     1      -1.200  -3.794  -0.395  0.00  0.00    -0.191 NA
ENDBRANCH  31  32
ENDBRANCH  25  26
ENDBRANCH  24  25
ENDBRANCH  10  24
TORSDOF 7
