REMARK  Name = ZINC62825932
REMARK  7 active torsions:
REMARK  status: ('A' for Active; 'I' for Inactive)
REMARK    1  A    between atoms: C_1  and  C_2
REMARK    2  A    between atoms: C_4  and  C_21
REMARK    3  A    between atoms: C_5  and  N_20
REMARK    4  A    between atoms: C_6  and  C_8
REMARK    5  A    between atoms: C_10  and  C_13
REMARK    6  A    between atoms: C_13  and  C_14
REMARK    7  A    between atoms: C_17  and  C_19
REMARK                            x       y       z     vdW  Elec       q    Type
REMARK                         _______ _______ _______ _____ _____    ______ ____
ROOT
ATOM      1  C   UNL     1       0.568  -2.835   2.402  0.00  0.00    +0.260 A 
ATOM      2  N   UNL     1      -0.018  -2.649   3.565  0.00  0.00    -0.191 NA
ATOM      3  C   UNL     1       0.481  -3.497   4.468  0.00  0.00    +0.178 A 
ATOM      4  N   UNL     1       1.391  -4.237   3.901  0.00  0.00    -0.060 NA
ATOM      5  O   UNL     1       1.465  -3.828   2.543  0.00  0.00    -0.333 OA
ENDROOT
BRANCH   1  11
ATOM      6  C   UNL     1      -0.158   1.497   0.043  0.00  0.00    +0.044 C 
ATOM      7  C   UNL     1      -0.064  -0.007   0.018  0.00  0.00    -0.049 A 
ATOM      8  C   UNL     1      -0.242  -0.689  -1.175  0.00  0.00    +0.008 A 
ATOM      9  C   UNL     1      -0.158  -2.066  -1.212  0.00  0.00    -0.029 A 
ATOM     10  C   UNL     1       0.106  -2.778  -0.049  0.00  0.00    +0.040 A 
ATOM     11  C   UNL     1       0.287  -2.091   1.160  0.00  0.00    +0.061 A 
ATOM     12  C   UNL     1       0.205  -0.697   1.180  0.00  0.00    +0.018 A 
ATOM     13  C   UNL     1      -0.353  -2.798  -2.515  0.00  0.00    +0.045 C 
BRANCH  10  14
ATOM     14  N   UNL     1       0.191  -4.166  -0.084  0.00  0.00    -0.357 N 
ATOM     15  H   UNL     1       0.165  -4.633  -0.934  0.00  0.00    +0.142 HD
ATOM     16  H   UNL     1       0.275  -4.668   0.743  0.00  0.00    +0.142 HD
ENDBRANCH  10  14
ENDBRANCH   1  11
BRANCH   3  17
ATOM     17  C   UNL     1       0.059  -3.583   5.912  0.00  0.00    +0.135 C 
BRANCH  17  18
ATOM     18  C   UNL     1      -1.075  -4.567   6.045  0.00  0.00    +0.056 A 
ATOM     19  C   UNL     1      -1.008  -5.614   6.907  0.00  0.00    +0.070 A 
ATOM     20  S   UNL     1      -2.595  -6.381   6.616  0.00  0.00    -0.081 S 
ATOM     21  C   UNL     1      -3.161  -5.306   5.451  0.00  0.00    +0.076 A 
ATOM     22  N   UNL     1      -2.179  -4.446   5.336  0.00  0.00    -0.249 NA
ATOM     23  C   UNL     1      -4.480  -5.324   4.723  0.00  0.00    +0.073 C 
ENDBRANCH  17  18
ENDBRANCH   3  17
TORSDOF 4
