REMARK  Name = ZINC15314059
REMARK  4 active torsions:
REMARK  status: ('A' for Active; 'I' for Inactive)
REMARK    1  A    between atoms: C_1  and  C_2
REMARK    2  A    between atoms: C_5  and  N_9
REMARK    3  A    between atoms: C_10  and  C_12
REMARK    4  A    between atoms: C_17  and  N_18
REMARK                            x       y       z     vdW  Elec       q    Type
REMARK                         _______ _______ _______ _____ _____    ______ ____
ROOT
ATOM      1  N   UNL     1      -0.908   1.192  -0.568  0.00  0.00    -0.279 N 
ATOM      2  C   UNL     1       0.317   0.673  -0.356  0.00  0.00    +0.251 C 
ATOM      3  O   UNL     1       0.455  -0.528  -0.224  0.00  0.00    -0.270 OA
ATOM      4  H   UNL     1      -1.012   2.143  -0.728  0.00  0.00    +0.155 HD
ENDROOT
BRANCH   1   9
ATOM      5  C   UNL     1      -5.465  -2.191  -0.524  0.00  0.00    +0.044 C 
ATOM      6  C   UNL     1      -4.255  -1.292  -0.536  0.00  0.00    -0.048 A 
ATOM      7  C   UNL     1      -3.014  -1.810  -0.857  0.00  0.00    +0.005 A 
ATOM      8  C   UNL     1      -1.903  -0.989  -0.869  0.00  0.00    +0.026 A 
ATOM      9  C   UNL     1      -2.033   0.358  -0.558  0.00  0.00    +0.069 A 
ATOM     10  C   UNL     1      -3.281   0.875  -0.230  0.00  0.00    +0.145 A 
ATOM     11  C   UNL     1      -4.390   0.049  -0.226  0.00  0.00    +0.043 A 
ATOM     12  F   UNL     1      -3.411   2.184   0.079  0.00  0.00    -0.204 F 
ENDBRANCH   1   9
BRANCH   2  13
ATOM     13  C   UNL     1       1.496   1.563  -0.291  0.00  0.00    +0.069 A 
ATOM     14  C   UNL     1       1.751   2.464  -1.326  0.00  0.00    +0.035 A 
ATOM     15  C   UNL     1       2.853   3.293  -1.259  0.00  0.00    +0.042 A 
ATOM     16  C   UNL     1       3.703   3.232  -0.167  0.00  0.00    +0.022 A 
ATOM     17  C   UNL     1       3.454   2.341   0.861  0.00  0.00    +0.035 A 
ATOM     18  C   UNL     1       2.354   1.511   0.808  0.00  0.00    +0.138 A 
ATOM     19 CL   UNL     1       3.173   4.415  -2.544  0.00  0.00    -0.084 Cl
BRANCH  18  20
ATOM     20  N   UNL     1       2.087   0.562   1.913  0.00  0.00    +0.057 N 
ATOM     21  O   UNL     1       2.900   0.426   2.809  0.00  0.00    -0.126 OA
ATOM     22  O   UNL     1       1.053  -0.082   1.925  0.00  0.00    -0.126 OA
ENDBRANCH  18  20
ENDBRANCH   2  13
TORSDOF 3
