REMARK  Name = ZINC18088193
REMARK  7 active torsions:
REMARK  status: ('A' for Active; 'I' for Inactive)
REMARK    1  A    between atoms: C_1  and  O_2
REMARK    2  A    between atoms: O_2  and  C_3
REMARK    3  A    between atoms: C_9  and  C_13
REMARK    4  A    between atoms: C_13  and  C_14
REMARK    5  A    between atoms: C_14  and  N_47
REMARK    6  A    between atoms: C_15  and  N_47
REMARK    7  A    between atoms: N_20  and  C_23
REMARK                            x       y       z     vdW  Elec       q    Type
REMARK                         _______ _______ _______ _____ _____    ______ ____
ROOT
ATOM      1  N   UNL     1      -0.818   1.664  -1.119  0.00  0.00    +0.387 N 
ATOM      2  H   UNL     1      -1.808   1.686  -0.850  0.00  0.00    -0.085 HD
ATOM      3  H   UNL     1      -0.497   2.618  -1.323  0.00  0.00    -0.085 HD
ENDROOT
BRANCH   1   4
ATOM      4  C   UNL     1      -0.023   1.111  -0.006  0.00  0.00    +0.026 C 
ATOM      5  C   UNL     1      -0.588   1.588   1.348  0.00  0.00    +0.090 C 
ATOM      6  C   UNL     1       0.557   2.371   1.953  0.00  0.00    +0.225 C 
ATOM      7  O   UNL     1       0.535   2.926   3.031  0.00  0.00    -0.275 OA
ATOM      8  N   UNL     1       1.597   2.354   1.110  0.00  0.00    -0.212 N 
ATOM      9  C   UNL     1       1.381   1.674  -0.023  0.00  0.00    +0.213 C 
ATOM     10  O   UNL     1       2.184   1.532  -0.920  0.00  0.00    -0.277 OA
BRANCH   8  11
ATOM     11  C   UNL     1       2.812   2.996   1.391  0.00  0.00    +0.045 A 
ATOM     12  C   UNL     1       3.960   2.246   1.611  0.00  0.00    +0.027 A 
ATOM     13  C   UNL     1       5.157   2.879   1.882  0.00  0.00    +0.041 A 
ATOM     14  C   UNL     1       5.211   4.261   1.946  0.00  0.00    +0.142 A 
ATOM     15  C   UNL     1       4.066   5.012   1.732  0.00  0.00    +0.078 A 
ATOM     16  C   UNL     1       2.868   4.381   1.455  0.00  0.00    +0.046 A 
ATOM     17 CL   UNL     1       4.137   6.745   1.812  0.00  0.00    -0.081 Cl
ATOM     18  F   UNL     1       6.382   4.879   2.217  0.00  0.00    -0.204 F 
ENDBRANCH   8  11
ENDBRANCH   1   4
BRANCH   1  19
ATOM     19  C   UNL     1      -0.659   0.829  -2.325  0.00  0.00    -0.077 C 
BRANCH  19  20
ATOM     20  C   UNL     1      -1.493   1.426  -3.460  0.00  0.00    +0.018 C 
BRANCH  20  27
ATOM     21  C   UNL     1      -3.645  -2.463  -4.987  0.00  0.00    +0.121 A 
ATOM     22  C   UNL     1      -3.155  -2.899  -6.216  0.00  0.00    +0.047 A 
ATOM     23  C   UNL     1      -2.147  -2.211  -6.853  0.00  0.00    +0.030 A 
ATOM     24  C   UNL     1      -1.608  -1.069  -6.270  0.00  0.00    +0.047 A 
ATOM     25  C   UNL     1      -2.097  -0.629  -5.027  0.00  0.00    +0.006 A 
ATOM     26  C   UNL     1      -3.124  -1.332  -4.392  0.00  0.00    +0.056 A 
ATOM     27  C   UNL     1      -1.337   0.579  -4.697  0.00  0.00    -0.024 A 
ATOM     28  C   UNL     1      -0.472   0.786  -5.702  0.00  0.00    +0.087 A 
ATOM     29  N   UNL     1      -0.618  -0.188  -6.651  0.00  0.00    -0.360 N 
ATOM     30  H   UNL     1      -0.103  -0.250  -7.471  0.00  0.00    +0.165 HD
BRANCH  21  32
ATOM     31  C   UNL     1      -5.136  -4.315  -5.042  0.00  0.00    +0.277 C 
ATOM     32  O   UNL     1      -4.642  -3.154  -4.372  0.00  0.00    -0.495 OA
ENDBRANCH  21  32
ENDBRANCH  20  27
ENDBRANCH  19  20
ENDBRANCH   1  19
TORSDOF 6
