REMARK  Name = ZINC08533061
REMARK  8 active torsions:
REMARK  status: ('A' for Active; 'I' for Inactive)
REMARK    1  A    between atoms: C_1  and  C_2
REMARK    2  A    between atoms: C_2  and  C_4
REMARK    3  A    between atoms: C_2  and  N_55
REMARK    4  A    between atoms: N_9  and  C_10
REMARK    5  A    between atoms: C_10  and  C_11
REMARK    6  A    between atoms: C_10  and  C_12
REMARK    7  A    between atoms: C_10  and  C_13
REMARK    8  A    between atoms: C_16  and  C_19
REMARK                            x       y       z     vdW  Elec       q    Type
REMARK                         _______ _______ _______ _____ _____    ______ ____
ROOT
ATOM      1  C   UNL     1       1.796  -4.834  -1.530  0.00  0.00    -0.077 C 
ATOM      2  C   UNL     1       1.134  -3.497  -1.869  0.00  0.00    -0.009 C 
ATOM      3  C   UNL     1       0.283  -3.039  -0.681  0.00  0.00    +0.041 C 
ATOM      4  C   UNL     1       1.170  -2.931   0.562  0.00  0.00    -0.009 C 
ATOM      5  C   UNL     1       1.832  -4.284   0.830  0.00  0.00    -0.077 C 
ATOM      6  N   UNL     1       2.656  -4.656  -0.341  0.00  0.00    +0.387 N 
ATOM      7  H   UNL     1       3.330  -3.904  -0.526  0.00  0.00    -0.081 HD
ENDROOT
BRANCH   3   8
ATOM      8  C   UNL     1      -0.324  -1.694  -0.986  0.00  0.00    +0.082 A 
ATOM      9  N   UNL     1      -1.585  -1.370  -1.042  0.00  0.00    -0.244 NA
ATOM     10  C   UNL     1      -2.000  -0.118  -1.327  0.00  0.00    +0.078 A 
ATOM     11  C   UNL     1      -3.317   0.384  -1.419  0.00  0.00    +0.029 A 
ATOM     12  C   UNL     1      -3.543   1.691  -1.724  0.00  0.00    +0.002 A 
ATOM     13  C   UNL     1      -2.498   2.578  -1.945  0.00  0.00    +0.001 A 
ATOM     14  C   UNL     1      -1.195   2.126  -1.859  0.00  0.00    +0.017 A 
ATOM     15  C   UNL     1      -0.957   0.807  -1.557  0.00  0.00    +0.039 A 
ATOM     16  S   UNL     1       0.488  -0.202  -1.344  0.00  0.00    -0.072 S 
ENDBRANCH   3   8
BRANCH   6  18
ATOM     17  C   UNL     1       4.199  -5.729   1.229  0.00  0.00    -0.004 C 
ATOM     18  C   UNL     1       3.395  -5.904  -0.061  0.00  0.00    +0.017 C 
BRANCH  18  19
ATOM     19  C   UNL     1       4.337  -6.179  -1.205  0.00  0.00    +0.207 C 
ATOM     20  O   UNL     1       4.749  -5.263  -1.884  0.00  0.00    -0.277 OA
ATOM     21  N   UNL     1       4.720  -7.442  -1.474  0.00  0.00    -0.242 N 
ATOM     22  C   UNL     1       5.562  -7.688  -2.498  0.00  0.00    +0.306 C 
ATOM     23  O   UNL     1       5.976  -6.769  -3.178  0.00  0.00    -0.252 OA
ATOM     24  N   UNL     1       5.945  -8.952  -2.767  0.00  0.00    -0.294 N 
ATOM     25  H   UNL     1       4.390  -8.175  -0.931  0.00  0.00    +0.159 HD
ATOM     26  H   UNL     1       5.615  -9.684  -2.224  0.00  0.00    +0.151 HD
BRANCH  24  27
ATOM     27  C   UNL     1       6.861  -9.218  -3.879  0.00  0.00    +0.028 C 
ATOM     28  C   UNL     1       8.177  -8.474  -3.646  0.00  0.00    +0.031 C 
ATOM     29  C   UNL     1       7.133 -10.721  -3.966  0.00  0.00    +0.031 C 
ATOM     30  C   UNL     1       6.228  -8.738  -5.187  0.00  0.00    +0.031 C 
ENDBRANCH  24  27
ENDBRANCH  18  19
ENDBRANCH   6  18
TORSDOF 4
