REMARK  Name = ZINC65569092
REMARK  6 active torsions:
REMARK  status: ('A' for Active; 'I' for Inactive)
REMARK    1  A    between atoms: C_1  and  C_2
REMARK    2  A    between atoms: N_4  and  C_5
REMARK    3  A    between atoms: C_7  and  N_13
REMARK    4  A    between atoms: C_14  and  C_16
REMARK    5  A    between atoms: C_21  and  C_24
REMARK    6  A    between atoms: C_24  and  O_25
REMARK                            x       y       z     vdW  Elec       q    Type
REMARK                         _______ _______ _______ _____ _____    ______ ____
ROOT
ATOM      1  N   UNL     1       1.489  -4.687  -0.108  0.00  0.00    -0.275 N 
ATOM      2  C   UNL     1       2.626  -3.984   0.064  0.00  0.00    +0.303 C 
ATOM      3  O   UNL     1       2.595  -2.771   0.071  0.00  0.00    -0.265 OA
ATOM      4  H   UNL     1       1.523  -5.652  -0.194  0.00  0.00    +0.155 HD
ENDROOT
BRANCH   1   7
ATOM      5  C   UNL     1      -1.111  -2.129   0.387  0.00  0.00    +0.071 A 
ATOM      6  C   UNL     1       0.110  -2.785   0.444  0.00  0.00    +0.052 A 
ATOM      7  C   UNL     1       0.259  -4.023  -0.164  0.00  0.00    +0.071 A 
ATOM      8  C   UNL     1      -0.817  -4.604  -0.828  0.00  0.00    +0.147 A 
ATOM      9  C   UNL     1      -2.033  -3.949  -0.884  0.00  0.00    +0.080 A 
ATOM     10  C   UNL     1      -2.185  -2.716  -0.274  0.00  0.00    +0.147 A 
ATOM     11  F   UNL     1      -3.376  -2.080  -0.324  0.00  0.00    -0.203 F 
ATOM     12  F   UNL     1      -0.673  -5.810  -1.421  0.00  0.00    -0.203 F 
BRANCH   5  16
ATOM     13  C   UNL     1      -0.545   0.860   2.606  0.00  0.00    +0.109 C 
ATOM     14  C   UNL     1      -0.465  -0.529   2.028  0.00  0.00    +0.214 C 
ATOM     15  O   UNL     1       0.319  -1.332   2.486  0.00  0.00    -0.276 OA
ATOM     16  N   UNL     1      -1.265  -0.878   1.000  0.00  0.00    -0.283 N 
ATOM     17  H   UNL     1      -1.946  -0.264   0.686  0.00  0.00    +0.155 HD
ENDBRANCH   5  16
ENDBRANCH   1   7
BRANCH   2  18
ATOM     18  C   UNL     1       3.925  -4.699   0.246  0.00  0.00    +0.302 C 
ATOM     19  O   UNL     1       3.977  -5.905   0.118  0.00  0.00    -0.265 OA
ATOM     20  N   UNL     1       5.039  -4.005   0.552  0.00  0.00    -0.294 N 
ATOM     21  C   UNL     1       6.351  -4.666   0.574  0.00  0.00    +0.108 C 
ATOM     22  C   UNL     1       7.013  -4.402   1.929  0.00  0.00    +0.025 C 
ATOM     23  C   UNL     1       7.066  -2.893   2.181  0.00  0.00    +0.017 C 
ATOM     24  C   UNL     1       5.643  -2.331   2.222  0.00  0.00    +0.025 C 
ATOM     25  C   UNL     1       4.965  -2.571   0.864  0.00  0.00    +0.108 C 
BRANCH  23  26
ATOM     26  C   UNL     1       7.758  -2.623   3.519  0.00  0.00    +0.159 C 
BRANCH  26  27
ATOM     27  O   UNL     1       7.912  -1.214   3.700  0.00  0.00    -0.395 OA
ATOM     28  H   UNL     1       8.345  -0.969   4.529  0.00  0.00    +0.209 HD
ENDBRANCH  26  27
ENDBRANCH  23  26
ENDBRANCH   2  18
TORSDOF 5
