REMARK  Name = ZINC05733992
REMARK  4 active torsions:
REMARK  status: ('A' for Active; 'I' for Inactive)
REMARK    1  A    between atoms: C_1  and  C_2
REMARK    2  A    between atoms: C_14  and  C_16
REMARK    3  A    between atoms: C_17  and  C_18
REMARK    4  A    between atoms: C_17  and  C_19
REMARK                            x       y       z     vdW  Elec       q    Type
REMARK                         _______ _______ _______ _____ _____    ______ ____
ROOT
ATOM      1  C   UNL     1       3.606   4.239   2.218  0.00  0.00    +0.011 C 
ATOM      2  C   UNL     1       3.408   2.906   1.493  0.00  0.00    +0.023 C 
ATOM      3  C   UNL     1       2.139   2.993   0.630  0.00  0.00    +0.129 C 
ATOM      4  N   UNL     1       1.674   1.622   0.348  0.00  0.00    -0.318 N 
ATOM      5  C   UNL     1       2.476   0.545   0.031  0.00  0.00    +0.089 A 
ATOM      6  C   UNL     1       1.715  -0.612   0.098  0.00  0.00    +0.067 A 
ATOM      7  C   UNL     1       2.340  -1.833  -0.109  0.00  0.00    +0.028 A 
ATOM      8  C   UNL     1       3.689  -1.877  -0.417  0.00  0.00    +0.004 A 
ATOM      9  C   UNL     1       4.436  -0.713  -0.533  0.00  0.00    +0.026 A 
ATOM     10  C   UNL     1       3.829   0.504  -0.322  0.00  0.00    +0.062 A 
ATOM     11  N   UNL     1       4.454   1.751  -0.482  0.00  0.00    -0.266 N 
ATOM     12  C   UNL     1       4.656   2.602   0.671  0.00  0.00    +0.119 C 
ATOM     13  C   UNL     1       4.863   2.153  -1.702  0.00  0.00    +0.244 C 
ATOM     14  O   UNL     1       5.404   3.234  -1.836  0.00  0.00    -0.270 OA
ATOM     15  N   UNL     1       0.419  -0.191   0.383  0.00  0.00    -0.334 N 
ATOM     16  H   UNL     1      -0.350  -0.769   0.507  0.00  0.00    +0.168 HD
ATOM     17  C   UNL     1       0.413   1.160   0.459  0.00  0.00    +0.159 A 
ATOM     18  S   UNL     1      -0.982   2.132   0.659  0.00  0.00    -0.013 S 
ENDROOT
BRANCH  13  19
ATOM     19  C   UNL     1       4.654   1.285  -2.871  0.00  0.00    +0.066 C 
ATOM     20  C   UNL     1       4.963   1.724  -4.088  0.00  0.00    -0.071 C 
ATOM     21  C   UNL     1       5.643   3.058  -4.259  0.00  0.00    +0.039 C 
ATOM     22  C   UNL     1       4.632   0.886  -5.297  0.00  0.00    +0.039 C 
ENDBRANCH  13  19
TORSDOF 1
