REMARK  Name = ZINC05486430
REMARK  5 active torsions:
REMARK  status: ('A' for Active; 'I' for Inactive)
REMARK    1  A    between atoms: C_4  and  C_7
REMARK    2  A    between atoms: C_7  and  C_8
REMARK    3  A    between atoms: C_8  and  N_9
REMARK    4  A    between atoms: C_21  and  C_22
REMARK    5  A    between atoms: C_21  and  N_49
REMARK                            x       y       z     vdW  Elec       q    Type
REMARK                         _______ _______ _______ _____ _____    ______ ____
ROOT
ATOM      1  N   UNL     1      -2.623   2.521  -2.291  0.00  0.00    -0.281 N 
ATOM      2  C   UNL     1      -2.004   2.090  -1.137  0.00  0.00    +0.108 A 
ATOM      3  C   UNL     1      -0.742   1.585  -1.212  0.00  0.00    +0.039 A 
ATOM      4  C   UNL     1      -0.098   1.527  -2.462  0.00  0.00    +0.257 A 
ATOM      5  O   UNL     1       1.033   1.081  -2.547  0.00  0.00    -0.267 OA
ATOM      6  N   UNL     1      -0.737   1.966  -3.563  0.00  0.00    -0.275 N 
ATOM      7  H   UNL     1      -0.280   1.929  -4.451  0.00  0.00    +0.173 HD
ATOM      8  C   UNL     1      -1.988   2.455  -3.474  0.00  0.00    +0.331 A 
ATOM      9  O   UNL     1      -2.552   2.844  -4.479  0.00  0.00    -0.246 OA
ATOM     10  C   UNL     1      -0.013   1.086   0.008  0.00  0.00    -0.031 C 
ATOM     11  C   UNL     1      -2.148   1.316   1.088  0.00  0.00    +0.028 C 
ATOM     12  N   UNL     1      -2.684   2.195   0.046  0.00  0.00    -0.347 N 
ATOM     13  H   UNL     1      -2.716   3.152   0.361  0.00  0.00    +0.145 HD
ATOM     14  N   UNL     1      -0.702   1.580   1.213  0.00  0.00    +0.395 N 
ATOM     15  H   UNL     1      -0.550   2.592   1.297  0.00  0.00    -0.079 HD
ENDROOT
BRANCH   1  16
ATOM     16  C   UNL     1      -3.985   3.056  -2.228  0.00  0.00    +0.133 C 
BRANCH  16  17
ATOM     17  C   UNL     1      -4.989   1.917  -2.417  0.00  0.00    +0.057 C 
BRANCH  17  21
ATOM     18  C   UNL     1      -8.962   3.477  -2.232  0.00  0.00    +0.000 A 
ATOM     19  C   UNL     1      -8.303   3.406  -3.445  0.00  0.00    +0.000 A 
ATOM     20  C   UNL     1      -7.017   2.902  -3.505  0.00  0.00    +0.004 A 
ATOM     21  C   UNL     1      -6.391   2.467  -2.352  0.00  0.00    -0.046 A 
ATOM     22  C   UNL     1      -7.052   2.533  -1.139  0.00  0.00    +0.004 A 
ATOM     23  C   UNL     1      -8.335   3.042  -1.079  0.00  0.00    +0.000 A 
ENDBRANCH  17  21
ENDBRANCH  16  17
ENDBRANCH   1  16
BRANCH  14  24
ATOM     24  C   UNL     1      -0.162   0.909   2.419  0.00  0.00    -0.039 C 
BRANCH  24  25
ATOM     25  C   UNL     1      -0.711   1.589   3.647  0.00  0.00    -0.046 A 
ATOM     26  C   UNL     1      -1.697   0.974   4.395  0.00  0.00    +0.003 A 
ATOM     27  C   UNL     1      -2.200   1.597   5.522  0.00  0.00    +0.000 A 
ATOM     28  C   UNL     1      -1.717   2.836   5.902  0.00  0.00    +0.001 A 
ATOM     29  C   UNL     1      -0.731   3.452   5.154  0.00  0.00    +0.020 A 
ATOM     30  C   UNL     1      -0.223   2.826   4.029  0.00  0.00    +0.042 A 
ATOM     31 CL   UNL     1       1.022   3.595   3.095  0.00  0.00    -0.083 Cl
ENDBRANCH  24  25
ENDBRANCH  14  24
TORSDOF 5
