REMARK  Name = ZINC33767028
REMARK  11 active torsions:
REMARK  status: ('A' for Active; 'I' for Inactive)
REMARK    1  A    between atoms: C_1  and  C_2
REMARK    2  A    between atoms: C_2  and  C_3
REMARK    3  A    between atoms: C_3  and  C_5
REMARK    4  A    between atoms: C_3  and  C_6
REMARK    5  A    between atoms: C_9  and  O_12
REMARK    6  A    between atoms: O_12  and  C_13
REMARK    7  A    between atoms: C_15  and  N_31
REMARK    8  A    between atoms: C_17  and  O_30
REMARK    9  A    between atoms: C_26  and  C_28
REMARK   10  A    between atoms: C_26  and  C_29
REMARK   11  A    between atoms: C_32  and  C_34
REMARK                            x       y       z     vdW  Elec       q    Type
REMARK                         _______ _______ _______ _____ _____    ______ ____
ROOT
ATOM      1  C   UNL     1      -1.352  -1.969   0.066  0.00  0.00    +0.331 C 
ATOM      2  C   UNL     1      -0.536  -2.554   1.220  0.00  0.00    +0.173 C 
ATOM      3  C   UNL     1       0.897  -2.012   1.166  0.00  0.00    +0.172 C 
ATOM      4  C   UNL     1       0.839  -0.485   1.195  0.00  0.00    +0.183 C 
ATOM      5  C   UNL     1       0.002  -0.004   0.002  0.00  0.00    +0.179 C 
ATOM      6  O   UNL     1      -1.315  -0.539   0.116  0.00  0.00    -0.332 OA
ATOM      7  C   UNL     1      -0.019   1.525   0.010  0.00  0.00    +0.197 C 
ATOM      8  O   UNL     1       1.335   1.994   0.000  0.00  0.00    -0.347 OA
ATOM      9  C   UNL     1       2.134   1.516   1.084  0.00  0.00    +0.165 C 
ATOM     10  O   UNL     1       2.144   0.084   1.093  0.00  0.00    -0.341 OA
ATOM     11  C   UNL     1       1.554   2.027   2.405  0.00  0.00    +0.074 C 
ATOM     12  C   UNL     1       3.565   2.032   0.927  0.00  0.00    +0.074 C 
ENDROOT
BRANCH   2  13
ATOM     13  N   UNL     1      -1.153  -2.176   2.494  0.00  0.00    -0.304 N 
ATOM     14  C   UNL     1      -2.163  -2.912   2.999  0.00  0.00    +0.210 C 
ATOM     15  O   UNL     1      -2.561  -3.888   2.399  0.00  0.00    -0.276 OA
ATOM     16  C   UNL     1      -2.797  -2.523   4.310  0.00  0.00    +0.109 C 
ATOM     17  H   UNL     1      -0.792  -1.291   3.039  0.00  0.00    +0.149 HD
ENDBRANCH   2  13
BRANCH   3  18
ATOM     18  O   UNL     1       1.633  -2.486   2.296  0.00  0.00    -0.387 OA
ATOM     19  H   UNL     1       2.687  -2.198   2.427  0.00  0.00    +0.210 HD
ENDBRANCH   3  18
BRANCH   1  20
ATOM     20  O   UNL     1      -0.804  -2.415  -1.176  0.00  0.00    -0.462 OA
BRANCH  20  24
ATOM     21  C   UNL     1      -2.844  -1.368  -4.606  0.00  0.00    -0.044 A 
ATOM     22  C   UNL     1      -1.685  -2.118  -4.693  0.00  0.00    +0.007 A 
ATOM     23  C   UNL     1      -1.000  -2.470  -3.546  0.00  0.00    +0.046 A 
ATOM     24  C   UNL     1      -1.476  -2.070  -2.306  0.00  0.00    +0.124 A 
ATOM     25  C   UNL     1      -2.642  -1.323  -2.220  0.00  0.00    +0.046 A 
ATOM     26  C   UNL     1      -3.319  -0.968  -3.371  0.00  0.00    +0.007 A 
BRANCH  21  27
ATOM     27  C   UNL     1      -3.588  -0.986  -5.859  0.00  0.00    +0.016 C 
ATOM     28  C   UNL     1      -3.659   0.539  -5.965  0.00  0.00    +0.012 C 
BRANCH  27  30
ATOM     29  C   UNL     1      -5.720  -1.279  -7.128  0.00  0.00    +0.004 C 
ATOM     30  C   UNL     1      -5.005  -1.560  -5.805  0.00  0.00    +0.004 C 
ENDBRANCH  27  30
ENDBRANCH  21  27
ENDBRANCH  20  24
ENDBRANCH   1  20
TORSDOF 6
