REMARK  Name = ZINC45344814
REMARK  3 active torsions:
REMARK  status: ('A' for Active; 'I' for Inactive)
REMARK    1  A    between atoms: C_1  and  C_2
REMARK    2  A    between atoms: C_4  and  C_7
REMARK    3  A    between atoms: C_7  and  N_8
REMARK                            x       y       z     vdW  Elec       q    Type
REMARK                         _______ _______ _______ _____ _____    ______ ____
ROOT
ATOM      1  N   UNL     1      -2.444  -3.320   1.371  0.00  0.00    -0.294 N 
ATOM      2  C   UNL     1      -3.484  -4.141   1.617  0.00  0.00    +0.303 C 
ATOM      3  O   UNL     1      -4.108  -4.625   0.693  0.00  0.00    -0.253 OA
ATOM      4  N   UNL     1      -3.832  -4.426   2.888  0.00  0.00    -0.285 N 
ATOM      5  C   UNL     1      -3.167  -3.757   4.014  0.00  0.00    +0.109 C 
ATOM      6  C   UNL     1      -4.236  -3.126   4.912  0.00  0.00    +0.023 C 
ATOM      7  C   UNL     1      -5.246  -4.198   5.329  0.00  0.00    -0.005 C 
ATOM      8  C   UNL     1      -6.301  -3.567   6.242  0.00  0.00    +0.004 C 
ATOM      9  C   UNL     1      -7.009  -2.436   5.494  0.00  0.00    +0.000 C 
ATOM     10  C   UNL     1      -7.688  -2.996   4.242  0.00  0.00    +0.000 C 
ATOM     11  C   UNL     1      -6.636  -3.634   3.332  0.00  0.00    +0.005 C 
ATOM     12  C   UNL     1      -5.926  -4.771   4.083  0.00  0.00    +0.010 C 
ATOM     13  C   UNL     1      -4.888  -5.407   3.173  0.00  0.00    +0.113 C 
ATOM     14  H   UNL     1      -1.991  -2.877   2.106  0.00  0.00    +0.151 HD
ENDROOT
BRANCH   1  15
ATOM     15  C   UNL     1      -1.997  -3.096  -0.006  0.00  0.00    +0.161 C 
BRANCH  15  19
ATOM     16  C   UNL     1       0.002   1.492   0.014  0.00  0.00    +0.073 C 
ATOM     17  C   UNL     1       0.016  -0.015   0.004  0.00  0.00    +0.076 A 
ATOM     18  N   UNL     1      -1.002  -0.839   0.004  0.00  0.00    -0.248 NA
ATOM     19  C   UNL     1      -0.828  -2.146  -0.006  0.00  0.00    +0.066 A 
ATOM     20  C   UNL     1       0.453  -2.595  -0.016  0.00  0.00    +0.071 A 
ATOM     21  S   UNL     1       1.345  -1.048  -0.018  0.00  0.00    -0.080 S 
ENDBRANCH  15  19
ENDBRANCH   1  15
TORSDOF 2
