REMARK  Name = ZINC06748456
REMARK  4 active torsions:
REMARK  status: ('A' for Active; 'I' for Inactive)
REMARK    1  A    between atoms: C_1  and  C_2
REMARK    2  A    between atoms: C_2  and  O_3
REMARK    3  A    between atoms: O_3  and  C_4
REMARK    4  A    between atoms: C_13  and  C_19
REMARK                            x       y       z     vdW  Elec       q    Type
REMARK                         _______ _______ _______ _____ _____    ______ ____
ROOT
ATOM      1  C   UNL     1      -1.498  -1.849   0.006  0.00  0.00    +0.163 A 
ATOM      2  C   UNL     1      -0.389  -2.677  -0.003  0.00  0.00    +0.049 A 
ATOM      3  C   UNL     1      -0.552  -4.050  -0.008  0.00  0.00    +0.004 A 
ATOM      4  C   UNL     1      -1.821  -4.595  -0.004  0.00  0.00    +0.008 A 
ATOM      5  C   UNL     1      -2.936  -3.774   0.005  0.00  0.00    +0.003 A 
ATOM      6  C   UNL     1      -2.780  -2.399   0.016  0.00  0.00    +0.175 A 
ATOM      7  O   UNL     1      -3.853  -1.570   0.027  0.00  0.00    -0.434 OA
ATOM      8  C   UNL     1      -5.061  -2.028   0.416  0.00  0.00    +0.231 A 
ATOM      9  N   UNL     1      -6.007  -1.170   0.789  0.00  0.00    -0.192 NA
ATOM     10  C   UNL     1      -7.200  -1.602   1.174  0.00  0.00    +0.167 A 
ATOM     11  N   UNL     1      -7.498  -2.894   1.204  0.00  0.00    -0.189 NA
ATOM     12  C   UNL     1      -6.600  -3.806   0.845  0.00  0.00    +0.281 A 
ATOM     13  O   UNL     1      -6.910  -5.125   0.878  0.00  0.00    -0.265 OA
ATOM     14  C   UNL     1      -5.339  -3.387   0.435  0.00  0.00    +0.085 A 
ATOM     15  C   UNL     1      -4.307  -4.395   0.008  0.00  0.00    +0.085 C 
ENDROOT
BRANCH  10  16
ATOM     16  C   UNL     1      -8.228  -0.615   1.582  0.00  0.00    +0.020 A 
ATOM     17  C   UNL     1      -7.938   0.748   1.553  0.00  0.00    +0.014 A 
ATOM     18  C   UNL     1      -8.898   1.663   1.933  0.00  0.00    +0.039 A 
ATOM     19  C   UNL     1     -10.148   1.229   2.343  0.00  0.00    +0.123 A 
ATOM     20  C   UNL     1     -10.441  -0.125   2.373  0.00  0.00    +0.039 A 
ATOM     21  C   UNL     1      -9.489  -1.047   1.990  0.00  0.00    +0.014 A 
ATOM     22  F   UNL     1     -11.085   2.129   2.714  0.00  0.00    -0.205 F 
ENDBRANCH  10  16
BRANCH   1  23
ATOM     23  O   UNL     1      -1.339  -0.499   0.012  0.00  0.00    -0.489 OA
BRANCH  23  25
ATOM     24  C   UNL     1      -0.019   1.526   0.010  0.00  0.00    +0.048 C 
ATOM     25  C   UNL     1       0.002  -0.004   0.002  0.00  0.00    +0.226 C 
ENDBRANCH  23  25
ENDBRANCH   1  23
TORSDOF 3
