REMARK  Name = ZINC35487024
REMARK  9 active torsions:
REMARK  status: ('A' for Active; 'I' for Inactive)
REMARK    1  A    between atoms: C_1  and  N_2
REMARK    2  A    between atoms: N_2  and  C_3
REMARK    3  A    between atoms: N_2  and  C_4
REMARK    4  A    between atoms: C_4  and  C_5
REMARK    5  A    between atoms: C_5  and  C_6
REMARK    6  A    between atoms: C_6  and  N_7
REMARK    7  A    between atoms: C_8  and  C_24
REMARK    8  A    between atoms: C_28  and  O_30
REMARK    9  A    between atoms: O_30  and  C_31
REMARK                            x       y       z     vdW  Elec       q    Type
REMARK                         _______ _______ _______ _____ _____    ______ ____
ROOT
ATOM      1  N   UNL     1       1.030  -0.410   3.546  0.00  0.00    -0.284 N 
ATOM      2  C   UNL     1       0.828   0.771   4.402  0.00  0.00    +0.145 C 
ATOM      3  C   UNL     1      -0.404   0.492   5.198  0.00  0.00    +0.072 A 
ATOM      4  C   UNL     1      -1.095   1.285   6.219  0.00  0.00    +0.199 A 
ATOM      5  O   UNL     1      -0.821   2.447   6.460  0.00  0.00    -0.287 OA
ATOM      6  C   UNL     1      -2.161   0.537   6.933  0.00  0.00    +0.067 A 
ATOM      7  C   UNL     1      -2.772   1.083   8.061  0.00  0.00    +0.053 A 
ATOM      8  C   UNL     1      -3.757   0.372   8.714  0.00  0.00    +0.124 A 
ATOM      9  C   UNL     1      -4.135  -0.882   8.248  0.00  0.00    +0.042 A 
ATOM     10  C   UNL     1      -3.539  -1.428   7.134  0.00  0.00    +0.050 A 
ATOM     11  C   UNL     1      -2.543  -0.728   6.455  0.00  0.00    +0.140 A 
ATOM     12  O   UNL     1      -1.981  -1.285   5.357  0.00  0.00    -0.450 OA
ATOM     13  C   UNL     1      -0.870  -0.738   4.826  0.00  0.00    +0.199 A 
ATOM     14  C   UNL     1       0.032  -1.282   3.796  0.00  0.00    +0.283 C 
ATOM     15  O   UNL     1      -0.102  -2.361   3.254  0.00  0.00    -0.267 OA
ATOM     16  F   UNL     1      -4.354   0.894   9.807  0.00  0.00    -0.205 F 
ENDROOT
BRANCH   2  17
ATOM     17  C   UNL     1       2.010   0.956   5.318  0.00  0.00    -0.019 A 
ATOM     18  C   UNL     1       2.612  -0.144   5.901  0.00  0.00    +0.006 A 
ATOM     19  C   UNL     1       3.696   0.023   6.742  0.00  0.00    +0.004 A 
ATOM     20  C   UNL     1       4.181   1.290   7.003  0.00  0.00    +0.046 A 
ATOM     21  C   UNL     1       3.579   2.395   6.420  0.00  0.00    +0.129 A 
ATOM     22  C   UNL     1       2.494   2.225   5.572  0.00  0.00    +0.052 A 
BRANCH  21  23
ATOM     23  O   UNL     1       4.054   3.643   6.675  0.00  0.00    -0.456 OA
BRANCH  23  24
ATOM     24  C   UNL     1       3.427   4.696   6.090  0.00  0.00    +0.128 A 
ATOM     25  C   UNL     1       2.369   5.322   6.735  0.00  0.00    +0.046 A 
ATOM     26  C   UNL     1       1.734   6.392   6.138  0.00  0.00    +0.004 A 
ATOM     27  C   UNL     1       2.149   6.841   4.898  0.00  0.00    +0.000 A 
ATOM     28  C   UNL     1       3.202   6.220   4.253  0.00  0.00    +0.004 A 
ATOM     29  C   UNL     1       3.846   5.152   4.848  0.00  0.00    +0.046 A 
ENDBRANCH  23  24
ENDBRANCH  21  23
ENDBRANCH   2  17
BRANCH   1  30
ATOM     30  C   UNL     1       2.119  -0.601   2.586  0.00  0.00    +0.107 C 
BRANCH  30  31
ATOM     31  C   UNL     1       1.700  -0.050   1.222  0.00  0.00    +0.000 C 
BRANCH  31  32
ATOM     32  C   UNL     1       2.838  -0.250   0.219  0.00  0.00    -0.078 C 
BRANCH  32  34
ATOM     33  C   UNL     1       2.252   1.733  -0.996  0.00  0.00    -0.097 C 
ATOM     34  N   UNL     1       2.435   0.279  -1.091  0.00  0.00    +0.376 N 
ATOM     35  C   UNL     1       3.478  -0.019  -2.081  0.00  0.00    -0.097 C 
ATOM     36  H   UNL     1       1.568  -0.152  -1.375  0.00  0.00    -0.083 HD
ENDBRANCH  32  34
ENDBRANCH  31  32
ENDBRANCH  30  31
ENDBRANCH   1  30
TORSDOF 7
