REMARK  Name = ZINC50420995
REMARK  7 active torsions:
REMARK  status: ('A' for Active; 'I' for Inactive)
REMARK    1  A    between atoms: C_1  and  C_2
REMARK    2  A    between atoms: C_9  and  C_20
REMARK    3  A    between atoms: N_10  and  C_11
REMARK    4  A    between atoms: C_11  and  C_13
REMARK    5  A    between atoms: C_11  and  C_14
REMARK    6  A    between atoms: N_18  and  C_19
REMARK    7  A    between atoms: C_20  and  C_22
REMARK                            x       y       z     vdW  Elec       q    Type
REMARK                         _______ _______ _______ _____ _____    ______ ____
ROOT
ATOM      1  C   UNL     1       0.235   1.438  -0.066  0.00  0.00    +0.044 C 
ATOM      2  C   UNL     1       0.152  -0.067  -0.038  0.00  0.00    -0.048 A 
ATOM      3  C   UNL     1       0.003  -0.768  -1.226  0.00  0.00    +0.005 A 
ATOM      4  C   UNL     1      -0.075  -2.144  -1.220  0.00  0.00    +0.028 A 
ATOM      5  C   UNL     1      -0.004  -2.832  -0.016  0.00  0.00    +0.069 A 
ATOM      6  C   UNL     1       0.147  -2.121   1.186  0.00  0.00    +0.090 A 
ATOM      7  C   UNL     1       0.229  -0.726   1.155  0.00  0.00    +0.033 A 
ATOM      8  N   UNL     1       0.186  -3.039   2.186  0.00  0.00    -0.231 NA
ATOM      9  C   UNL     1       0.072  -4.235   1.686  0.00  0.00    +0.129 A 
ATOM     10  N   UNL     1      -0.048  -4.167   0.333  0.00  0.00    -0.316 N 
ENDROOT
BRANCH   9  11
ATOM     11  C   UNL     1       0.073  -5.510   2.489  0.00  0.00    +0.143 C 
ATOM     12  C   UNL     1      -1.279  -5.676   3.185  0.00  0.00    +0.033 C 
ATOM     13 CL   UNL     1       1.382  -5.440   3.727  0.00  0.00    -0.114 Cl
ENDBRANCH   9  11
BRANCH  10  14
ATOM     14  C   UNL     1      -0.197  -5.299  -0.584  0.00  0.00    +0.154 C 
ATOM     15  C   UNL     1      -1.452  -5.103  -1.438  0.00  0.00    +0.039 C 
BRANCH  14  16
ATOM     16  C   UNL     1       1.012  -5.383  -1.480  0.00  0.00    +0.156 A 
ATOM     17  N   UNL     1       1.374  -4.505  -2.375  0.00  0.00    -0.132 NA
ATOM     18  N   UNL     1       2.453  -4.896  -2.954  0.00  0.00    -0.138 NA
ATOM     19  C   UNL     1       2.829  -6.042  -2.455  0.00  0.00    +0.224 A 
ATOM     20  N   UNL     1       1.927  -6.382  -1.502  0.00  0.00    -0.319 N 
ATOM     21  C   UNL     1       1.939  -7.585  -0.667  0.00  0.00    +0.151 C 
ENDBRANCH  14  16
ENDBRANCH  10  14
TORSDOF 3
