REMARK  Name = ZINC23484644
REMARK  8 active torsions:
REMARK  status: ('A' for Active; 'I' for Inactive)
REMARK    1  A    between atoms: C_1  and  C_2
REMARK    2  A    between atoms: C_2  and  N_3
REMARK    3  A    between atoms: C_13  and  S_16
REMARK    4  A    between atoms: S_16  and  C_17
REMARK    5  A    between atoms: C_17  and  C_19
REMARK    6  A    between atoms: C_17  and  C_20
REMARK    7  A    between atoms: C_20  and  C_22
REMARK    8  A    between atoms: C_22  and  C_32
REMARK                            x       y       z     vdW  Elec       q    Type
REMARK                         _______ _______ _______ _____ _____    ______ ____
ROOT
ATOM      1  C   UNL     1       2.889   4.088  -0.004  0.00  0.00    +0.123 C 
ATOM      2  C   UNL     1       3.516   3.576   1.295  0.00  0.00    +0.028 C 
ENDROOT
BRANCH   1   3
ATOM      3  C   UNL     1       3.119   5.572  -0.122  0.00  0.00    +0.189 C 
ATOM      4  O   UNL     1       2.265   6.351   0.256  0.00  0.00    -0.290 OA
BRANCH   3   5
ATOM      5  C   UNL     1       4.319   6.056  -0.668  0.00  0.00    +0.123 C 
ATOM      6  C   UNL     1       4.533   7.443  -0.779  0.00  0.00    +0.091 C 
ATOM      7  N   UNL     1       5.619   8.091  -1.275  0.00  0.00    -0.307 N 
ATOM      8  C   UNL     1       5.651   9.471  -1.304  0.00  0.00    +0.046 A 
ATOM      9  C   UNL     1       6.674  10.310  -1.774  0.00  0.00    +0.024 A 
ATOM     10  C   UNL     1       6.539  11.677  -1.726  0.00  0.00    +0.002 A 
ATOM     11  C   UNL     1       5.396  12.269  -1.216  0.00  0.00    +0.001 A 
ATOM     12  C   UNL     1       4.371  11.466  -0.746  0.00  0.00    +0.017 A 
ATOM     13  C   UNL     1       4.505  10.099  -0.793  0.00  0.00    +0.035 A 
ATOM     14  S   UNL     1       3.472   8.735  -0.320  0.00  0.00    -0.071 S 
ATOM     15  H   UNL     1       6.476   7.515  -1.656  0.00  0.00    +0.153 HD
BRANCH   5  16
ATOM     16  C   UNL     1       5.324   5.139  -1.113  0.00  0.00    +0.105 C 
ATOM     17  N   UNL     1       6.121   4.411  -1.467  0.00  0.00    -0.191 NA
ENDBRANCH   5  16
ENDBRANCH   3   5
ENDBRANCH   1   3
BRANCH   1  18
ATOM     18  S   UNL     1       1.111   3.752   0.012  0.00  0.00    -0.073 S 
BRANCH  18  29
ATOM     19  N   UNL     1      -0.986  -0.957   0.006  0.00  0.00    -0.324 N 
ATOM     20  C   UNL     1      -0.432  -2.227  -0.006  0.00  0.00    +0.053 A 
ATOM     21  C   UNL     1      -1.001  -3.497  -0.008  0.00  0.00    +0.026 A 
ATOM     22  C   UNL     1      -0.194  -4.615  -0.023  0.00  0.00    +0.002 A 
ATOM     23  C   UNL     1       1.186  -4.488  -0.035  0.00  0.00    +0.001 A 
ATOM     24  C   UNL     1       1.769  -3.239  -0.033  0.00  0.00    +0.012 A 
ATOM     25  C   UNL     1       0.966  -2.101  -0.019  0.00  0.00    +0.029 A 
ATOM     26  C   UNL     1       1.252  -0.656  -0.013  0.00  0.00    +0.138 A 
ATOM     27  C   UNL     1       0.002  -0.004   0.002  0.00  0.00    +0.165 A 
ATOM     28  N   UNL     1      -0.016   1.325   0.009  0.00  0.00    -0.201 NA
ATOM     29  C   UNL     1       1.132   1.990   0.002  0.00  0.00    +0.212 A 
ATOM     30  N   UNL     1       2.298   1.352  -0.013  0.00  0.00    -0.122 NA
ATOM     31  N   UNL     1       2.364   0.065  -0.020  0.00  0.00    -0.143 NA
BRANCH  19  33
ATOM     32  C   UNL     1      -2.936  -0.566  -1.417  0.00  0.00    +0.027 C 
ATOM     33  C   UNL     1      -2.423  -0.672   0.021  0.00  0.00    +0.120 C 
ENDBRANCH  19  33
ENDBRANCH  18  29
ENDBRANCH   1  18
TORSDOF 6
