REMARK  Name = ZINC34998918
REMARK  10 active torsions:
REMARK  status: ('A' for Active; 'I' for Inactive)
REMARK    1  A    between atoms: C_1  and  C_2
REMARK    2  A    between atoms: C_2  and  C_3
REMARK    3  A    between atoms: C_3  and  C_5
REMARK    4  A    between atoms: C_3  and  C_6
REMARK    5  A    between atoms: C_6  and  C_8
REMARK    6  A    between atoms: C_6  and  N_23
REMARK    7  A    between atoms: C_14  and  C_17
REMARK    8  A    between atoms: C_18  and  C_20
REMARK    9  A    between atoms: N_26  and  C_27
REMARK   10  A    between atoms: C_32  and  C_33
REMARK                            x       y       z     vdW  Elec       q    Type
REMARK                         _______ _______ _______ _____ _____    ______ ____
ROOT
ATOM      1  C   UNL     1       2.115  -0.135   0.934  0.00  0.00    +0.163 C 
ENDROOT
BRANCH   1   2
ATOM      2  C   UNL     1       3.281  -0.317   1.872  0.00  0.00    +0.236 C 
ATOM      3  O   UNL     1       3.219   0.111   3.005  0.00  0.00    -0.274 OA
ATOM      4  N   UNL     1       4.391  -0.954   1.452  0.00  0.00    -0.297 N 
ATOM      5  C   UNL     1       4.523  -1.384   0.053  0.00  0.00    +0.127 C 
ATOM      6  C   UNL     1       4.819  -2.889   0.028  0.00  0.00    +0.127 C 
ATOM      7  N   UNL     1       5.920  -3.166   0.961  0.00  0.00    -0.295 N 
ATOM      8  C   UNL     1       5.788  -2.736   2.360  0.00  0.00    +0.090 C 
ATOM      9  C   UNL     1       5.495  -1.227   2.384  0.00  0.00    +0.130 C 
ATOM     10  C   UNL     1       4.642  -3.500   3.026  0.00  0.00    +0.029 C 
ATOM     11  C   UNL     1       7.031  -3.804   0.541  0.00  0.00    +0.219 C 
ATOM     12  O   UNL     1       7.933  -4.027   1.320  0.00  0.00    -0.275 OA
BRANCH  11  13
ATOM     13  C   UNL     1       7.151  -4.239  -0.897  0.00  0.00    +0.075 C 
ATOM     14  C   UNL     1       7.129  -5.742  -1.184  0.00  0.00    +0.013 C 
ATOM     15  C   UNL     1       8.437  -4.958  -1.312  0.00  0.00    +0.013 C 
ENDBRANCH  11  13
ENDBRANCH   1   2
BRANCH   1  16
ATOM     16  N   UNL     1       1.614   1.237   1.037  0.00  0.00    -0.288 N 
ATOM     17  C   UNL     1       0.926   1.782   0.015  0.00  0.00    +0.304 C 
ATOM     18  O   UNL     1       0.642   1.107  -0.956  0.00  0.00    -0.252 OA
ATOM     19  N   UNL     1       0.552   3.076   0.068  0.00  0.00    -0.269 N 
ATOM     20  H   UNL     1       1.778   1.754   1.842  0.00  0.00    +0.151 HD
ATOM     21  H   UNL     1       0.833   3.632   0.811  0.00  0.00    +0.156 HD
BRANCH  19  22
ATOM     22  C   UNL     1      -0.242   3.617  -0.950  0.00  0.00    +0.046 A 
ATOM     23  C   UNL     1      -0.165   3.106  -2.239  0.00  0.00    +0.024 A 
ATOM     24  C   UNL     1      -0.950   3.641  -3.241  0.00  0.00    +0.002 A 
ATOM     25  C   UNL     1      -1.812   4.687  -2.962  0.00  0.00    +0.001 A 
ATOM     26  C   UNL     1      -1.890   5.199  -1.680  0.00  0.00    +0.014 A 
ATOM     27  C   UNL     1      -1.112   4.663  -0.672  0.00  0.00    +0.076 A 
BRANCH  27  28
ATOM     28  C   UNL     1      -1.202   5.217   0.726  0.00  0.00    +0.419 C 
ATOM     29  F   UNL     1      -2.139   6.256   0.756  0.00  0.00    -0.166 F 
ATOM     30  F   UNL     1      -1.601   4.204   1.605  0.00  0.00    -0.166 F 
ATOM     31  F   UNL     1       0.049   5.707   1.116  0.00  0.00    -0.166 F 
ENDBRANCH  27  28
ENDBRANCH  19  22
ENDBRANCH   1  16
BRANCH   1  32
ATOM     32  C   UNL     1       1.001  -1.115   1.309  0.00  0.00    +0.015 C 
ATOM     33  C   UNL     1       0.667  -0.963   2.794  0.00  0.00    +0.010 C 
BRANCH  32  35
ATOM     34  C   UNL     1       1.608  -2.757  -0.474  0.00  0.00    +0.004 C 
ATOM     35  C   UNL     1       1.467  -2.546   1.035  0.00  0.00    +0.002 C 
ENDBRANCH  32  35
ENDBRANCH   1  32
TORSDOF 7
