REMARK  Name = ZINC35900384
REMARK  7 active torsions:
REMARK  status: ('A' for Active; 'I' for Inactive)
REMARK    1  A    between atoms: C_1  and  C_2
REMARK    2  A    between atoms: C_6  and  N_8
REMARK    3  A    between atoms: C_10  and  C_15
REMARK    4  A    between atoms: C_15  and  O_17
REMARK    5  A    between atoms: O_17  and  C_18
REMARK    6  A    between atoms: C_21  and  N_24
REMARK    7  A    between atoms: C_31  and  C_38
REMARK                            x       y       z     vdW  Elec       q    Type
REMARK                         _______ _______ _______ _____ _____    ______ ____
ROOT
ATOM      1  C   UNL     1      -0.656  -7.306   6.251  0.00  0.00    +0.132 A 
ATOM      2  C   UNL     1      -1.469  -8.007   5.371  0.00  0.00    +0.048 A 
ATOM      3  C   UNL     1      -2.150  -9.127   5.804  0.00  0.00    +0.027 A 
ATOM      4  C   UNL     1      -2.021  -9.553   7.119  0.00  0.00    +0.044 A 
ATOM      5  C   UNL     1      -1.207  -8.852   7.998  0.00  0.00    +0.027 A 
ATOM      6  C   UNL     1      -0.523  -7.734   7.564  0.00  0.00    +0.048 A 
ENDROOT
BRANCH   4   7
ATOM      7  N   UNL     1      -2.713 -10.691   7.559  0.00  0.00    -0.210 N 
ATOM      8  C   UNL     1      -2.541 -11.227   8.783  0.00  0.00    +0.230 C 
ATOM      9  O   UNL     1      -1.697 -10.911   9.594  0.00  0.00    -0.275 OA
ATOM     10  C   UNL     1      -3.595 -12.296   8.956  0.00  0.00    +0.088 C 
ATOM     11  C   UNL     1      -3.174 -13.422   9.839  0.00  0.00    +0.014 C 
ATOM     12  C   UNL     1      -2.401 -14.538   9.166  0.00  0.00    +0.004 C 
ATOM     13  C   UNL     1      -3.073 -14.941   7.856  0.00  0.00    -0.013 C 
ATOM     14  C   UNL     1      -3.088 -13.726   6.929  0.00  0.00    +0.016 C 
ATOM     15  C   UNL     1      -3.972 -12.644   7.516  0.00  0.00    +0.088 C 
ATOM     16  C   UNL     1      -3.612 -11.341   6.800  0.00  0.00    +0.230 C 
ATOM     17  O   UNL     1      -4.055 -10.964   5.736  0.00  0.00    -0.275 OA
ATOM     18  C   UNL     1      -2.286 -16.079   7.202  0.00  0.00    +0.007 C 
ENDBRANCH   4   7
BRANCH   1  19
ATOM     19  O   UNL     1       0.014  -6.203   5.824  0.00  0.00    -0.426 OA
BRANCH  19  20
ATOM     20  C   UNL     1      -0.683  -5.068   5.653  0.00  0.00    +0.317 C 
ATOM     21  O   UNL     1      -1.850  -5.024   5.964  0.00  0.00    -0.250 OA
BRANCH  20  24
ATOM     22  N   UNL     1      -0.214  -1.470   5.277  0.00  0.00    -0.271 N 
ATOM     23  C   UNL     1      -1.001  -2.669   4.970  0.00  0.00    +0.128 C 
ATOM     24  C   UNL     1      -0.011  -3.850   5.074  0.00  0.00    +0.125 C 
ATOM     25  C   UNL     1       1.050  -3.287   6.048  0.00  0.00    +0.112 C 
ATOM     26  C   UNL     1       0.944  -1.787   5.883  0.00  0.00    +0.221 C 
ATOM     27  O   UNL     1       1.780  -0.987   6.247  0.00  0.00    -0.275 OA
BRANCH  22  33
ATOM     28  C   UNL     1      -3.428   1.588   3.158  0.00  0.00    +0.044 C 
ATOM     29  C   UNL     1      -2.167   1.347   3.947  0.00  0.00    -0.049 A 
ATOM     30  C   UNL     1      -1.403   2.419   4.372  0.00  0.00    +0.003 A 
ATOM     31  C   UNL     1      -0.246   2.203   5.098  0.00  0.00    +0.002 A 
ATOM     32  C   UNL     1       0.151   0.915   5.399  0.00  0.00    +0.023 A 
ATOM     33  C   UNL     1      -0.613  -0.164   4.974  0.00  0.00    +0.037 A 
ATOM     34  C   UNL     1      -1.778   0.058   4.250  0.00  0.00    +0.027 A 
ENDBRANCH  22  33
ENDBRANCH  20  24
ENDBRANCH  19  20
ENDBRANCH   1  19
TORSDOF 5
