REMARK  Name = ZINC59855360
REMARK  12 active torsions:
REMARK  status: ('A' for Active; 'I' for Inactive)
REMARK    1  A    between atoms: C_1  and  C_2
REMARK    2  A    between atoms: C_4  and  C_14
REMARK    3  A    between atoms: C_5  and  C_13
REMARK    4  A    between atoms: N_6  and  C_7
REMARK    5  A    between atoms: C_7  and  C_9
REMARK    6  A    between atoms: C_7  and  C_10
REMARK    7  A    between atoms: C_10  and  O_11
REMARK    8  A    between atoms: O_11  and  C_12
REMARK    9  A    between atoms: C_15  and  C_16
REMARK   10  A    between atoms: C_15  and  C_18
REMARK   11  A    between atoms: N_24  and  C_27
REMARK   12  A    between atoms: C_27  and  C_28
REMARK                            x       y       z     vdW  Elec       q    Type
REMARK                         _______ _______ _______ _____ _____    ______ ____
ROOT
ATOM      1  C   UNL     1       0.096  -1.606  -3.786  0.00  0.00    +0.257 C 
ATOM      2  O   UNL     1       0.340  -0.464  -3.446  0.00  0.00    -0.269 OA
ATOM      3  N   UNL     1      -0.105  -1.893  -5.088  0.00  0.00    -0.299 N 
ATOM      4  C   UNL     1      -0.453  -3.277  -5.466  0.00  0.00    +0.106 C 
ATOM      5  C   UNL     1      -1.551  -3.297  -6.545  0.00  0.00    +0.000 C 
ATOM      6  C   UNL     1      -2.575  -2.226  -6.241  0.00  0.00    -0.077 C 
ATOM      7  N   UNL     1      -2.224  -1.005  -6.962  0.00  0.00    +0.383 N 
ATOM      8  C   UNL     1      -1.341  -0.141  -6.277  0.00  0.00    -0.059 C 
ATOM      9  C   UNL     1       0.021  -0.831  -6.064  0.00  0.00    +0.089 C 
ATOM     10  H   UNL     1      -1.798  -1.265  -7.839  0.00  0.00    -0.081 HD
ENDROOT
BRANCH   1  12
ATOM     11  C   UNL     1       0.995  -3.651  -2.735  0.00  0.00    +0.033 C 
ATOM     12  C   UNL     1       0.021  -2.673  -2.779  0.00  0.00    +0.114 C 
BRANCH  11  16
ATOM     13  C   UNL     1       4.676  -1.722  -5.606  0.00  0.00    +0.063 C 
ATOM     14  C   UNL     1       3.800  -2.654  -4.809  0.00  0.00    +0.017 A 
ATOM     15  C   UNL     1       2.678  -2.302  -4.159  0.00  0.00    +0.030 A 
ATOM     16  C   UNL     1       2.162  -3.526  -3.530  0.00  0.00    -0.003 A 
ATOM     17  C   UNL     1       3.052  -4.531  -3.872  0.00  0.00    +0.023 A 
ATOM     18  N   UNL     1       4.017  -3.991  -4.639  0.00  0.00    -0.343 N 
ATOM     19  C   UNL     1       2.953  -5.977  -3.461  0.00  0.00    +0.064 C 
BRANCH  18  20
ATOM     20  C   UNL     1       5.144  -4.734  -5.208  0.00  0.00    +0.110 C 
ATOM     21  C   UNL     1       5.258  -4.423  -6.702  0.00  0.00    +0.033 C 
BRANCH  20  22
ATOM     22  C   UNL     1       6.437  -4.319  -4.502  0.00  0.00    +0.184 C 
BRANCH  22  23
ATOM     23  O   UNL     1       7.523  -5.106  -4.995  0.00  0.00    -0.381 OA
ATOM     24  C   UNL     1       8.783  -4.797  -4.397  0.00  0.00    +0.194 C 
ENDBRANCH  22  23
ENDBRANCH  20  22
ENDBRANCH  18  20
ENDBRANCH  11  16
BRANCH  12  25
ATOM     25  C   UNL     1      -1.062  -2.698  -1.842  0.00  0.00    +0.104 C 
ATOM     26  N   UNL     1      -1.921  -2.718  -1.099  0.00  0.00    -0.191 NA
ENDBRANCH  12  25
ENDBRANCH   1  12
BRANCH   7  27
ATOM     27  C   UNL     1      -3.460  -0.267  -7.254  0.00  0.00    -0.043 C 
BRANCH  27  28
ATOM     28  C   UNL     1      -3.139   0.935  -8.104  0.00  0.00    -0.064 A 
ATOM     29  C   UNL     1      -2.828   2.141  -7.506  0.00  0.00    +0.003 A 
ATOM     30  C   UNL     1      -2.533   3.244  -8.285  0.00  0.00    +0.020 A 
ATOM     31  C   UNL     1      -2.550   3.140  -9.665  0.00  0.00    +0.041 A 
ATOM     32  C   UNL     1      -2.861   1.933 -10.263  0.00  0.00    +0.020 A 
ATOM     33  C   UNL     1      -3.150   0.829  -9.483  0.00  0.00    +0.003 A 
ATOM     34 CL   UNL     1      -2.180   4.525 -10.644  0.00  0.00    -0.084 Cl
ENDBRANCH  27  28
ENDBRANCH   7  27
TORSDOF 8
