REMARK  Name = ZINC14542902
REMARK  6 active torsions:
REMARK  status: ('A' for Active; 'I' for Inactive)
REMARK    1  A    between atoms: C_4  and  C_7
REMARK    2  A    between atoms: C_7  and  C_8
REMARK    3  A    between atoms: C_8  and  N_9
REMARK    4  A    between atoms: N_12  and  C_26
REMARK    5  A    between atoms: C_20  and  N_62
REMARK    6  A    between atoms: C_26  and  C_27
REMARK                            x       y       z     vdW  Elec       q    Type
REMARK                         _______ _______ _______ _____ _____    ______ ____
ROOT
ATOM      1  N   UNL     1       0.003   1.190  -2.424  0.00  0.00    -0.271 N 
ATOM      2  C   UNL     1       1.014   1.866  -3.003  0.00  0.00    +0.312 C 
ATOM      3  O   UNL     1       1.500   2.881  -2.543  0.00  0.00    -0.252 OA
ATOM      4  N   UNL     1       1.427   1.293  -4.140  0.00  0.00    -0.220 N 
ATOM      5  C   UNL     1       0.714   0.182  -4.423  0.00  0.00    +0.247 C 
ATOM      6  O   UNL     1       0.846  -0.549  -5.381  0.00  0.00    -0.273 OA
ATOM      7  C   UNL     1      -0.281   0.044  -3.296  0.00  0.00    +0.112 C 
ATOM      8  C   UNL     1      -1.708   0.119  -3.830  0.00  0.00    +0.017 C 
ATOM      9  C   UNL     1      -2.693  -0.051  -2.670  0.00  0.00    -0.076 C 
ATOM     10  C   UNL     1      -1.099  -1.391  -1.427  0.00  0.00    -0.076 C 
ATOM     11  C   UNL     1      -0.060  -1.266  -2.546  0.00  0.00    +0.017 C 
ATOM     12  N   UNL     1      -2.451  -1.360  -2.025  0.00  0.00    +0.382 N 
ATOM     13  H   UNL     1      -2.518  -2.099  -2.736  0.00  0.00    -0.081 HD
ENDROOT
BRANCH  12  14
ATOM     14  C   UNL     1      -3.469  -1.605  -0.983  0.00  0.00    -0.058 C 
ATOM     15  C   UNL     1      -4.838  -1.582  -1.647  0.00  0.00    -0.004 C 
ATOM     16  C   UNL     1      -5.627  -2.902  -1.498  0.00  0.00    +0.067 C 
ATOM     17  S   UNL     1      -4.820  -3.638  -0.009  0.00  0.00    -0.162 S 
ATOM     18  C   UNL     1      -3.133  -2.943  -0.288  0.00  0.00    +0.054 C 
ENDBRANCH  12  14
BRANCH   1  19
ATOM     19  C   UNL     1      -0.681   1.535  -1.175  0.00  0.00    +0.115 C 
BRANCH  19  20
ATOM     20  C   UNL     1       0.290   1.384  -0.003  0.00  0.00    +0.054 C 
BRANCH  20  24
ATOM     21  C   UNL     1      -1.602   2.704   3.592  0.00  0.00    +0.000 A 
ATOM     22  C   UNL     1      -1.702   1.381   3.204  0.00  0.00    +0.000 A 
ATOM     23  C   UNL     1      -1.090   0.954   2.041  0.00  0.00    +0.004 A 
ATOM     24  C   UNL     1      -0.378   1.850   1.265  0.00  0.00    -0.046 A 
ATOM     25  C   UNL     1      -0.273   3.172   1.656  0.00  0.00    +0.004 A 
ATOM     26  C   UNL     1      -0.889   3.600   2.817  0.00  0.00    +0.000 A 
ENDBRANCH  20  24
ENDBRANCH  19  20
ENDBRANCH   1  19
BRANCH   4  27
ATOM     27  C   UNL     1       2.513   1.810  -4.976  0.00  0.00    +0.154 C 
BRANCH  27  28
ATOM     28  C   UNL     1       1.952   2.772  -5.991  0.00  0.00    -0.011 A 
ATOM     29  C   UNL     1       1.535   2.318  -7.233  0.00  0.00    +0.008 A 
ATOM     30  C   UNL     1       1.021   3.239  -8.133  0.00  0.00    +0.020 A 
ATOM     31  C   UNL     1       0.951   4.570  -7.769  0.00  0.00    +0.111 A 
ATOM     32  N   UNL     1       1.361   4.967  -6.580  0.00  0.00    -0.263 NA
ATOM     33  C   UNL     1       1.851   4.119  -5.697  0.00  0.00    +0.116 A 
ENDBRANCH  27  28
ENDBRANCH   4  27
TORSDOF 6
