REMARK  Name = ZINC20468219
REMARK  10 active torsions:
REMARK  status: ('A' for Active; 'I' for Inactive)
REMARK    1  A    between atoms: C_1  and  C_2
REMARK    2  A    between atoms: C_2  and  C_3
REMARK    3  A    between atoms: C_2  and  C_4
REMARK    4  A    between atoms: C_2  and  C_5
REMARK    5  A    between atoms: C_8  and  S_11
REMARK    6  A    between atoms: S_11  and  N_14
REMARK    7  A    between atoms: N_14  and  N_15
REMARK    8  A    between atoms: C_16  and  C_17
REMARK    9  A    between atoms: C_21  and  O_24
REMARK   10  A    between atoms: C_22  and  O_23
REMARK                            x       y       z     vdW  Elec       q    Type
REMARK                         _______ _______ _______ _____ _____    ______ ____
ROOT
ATOM      1  N   UNL     1       1.223  -2.923  -1.606  0.00  0.00    -0.137 N 
ATOM      2  H   UNL     1       0.500  -3.476  -1.940  0.00  0.00    +0.197 HD
ENDROOT
BRANCH   1   3
ATOM      3  S   UNL     1       1.232  -2.441  -0.022  0.00  0.00    +0.086 S 
ATOM      4  O   UNL     1       2.489  -2.832   0.515  0.00  0.00    -0.149 OA
ATOM      5  O   UNL     1      -0.002  -2.866   0.539  0.00  0.00    -0.149 OA
BRANCH   3   9
ATOM      6  C   UNL     1       1.171   2.086   0.002  0.00  0.00    -0.042 A 
ATOM      7  C   UNL     1      -0.017   1.378   0.010  0.00  0.00    +0.006 A 
ATOM      8  C   UNL     1       0.002  -0.004   0.002  0.00  0.00    +0.029 A 
ATOM      9  C   UNL     1       1.208  -0.679  -0.013  0.00  0.00    +0.110 A 
ATOM     10  C   UNL     1       2.396   0.029  -0.021  0.00  0.00    +0.029 A 
ATOM     11  C   UNL     1       2.377   1.411  -0.015  0.00  0.00    +0.006 A 
BRANCH   6  13
ATOM     12  C   UNL     1       0.434   4.086   1.268  0.00  0.00    +0.015 C 
ATOM     13  C   UNL     1       1.151   3.592   0.010  0.00  0.00    -0.013 C 
ATOM     14  C   UNL     1       2.586   4.122  -0.001  0.00  0.00    +0.015 C 
ATOM     15  C   UNL     1       0.411   4.099  -1.230  0.00  0.00    +0.015 C 
ENDBRANCH   6  13
ENDBRANCH   3   9
ENDBRANCH   1   3
BRANCH   1  16
ATOM     16  N   UNL     1       2.260  -2.532  -2.463  0.00  0.00    -0.174 NA
ATOM     17  C   UNL     1       2.253  -2.910  -3.704  0.00  0.00    +0.143 C 
BRANCH  17  18
ATOM     18  C   UNL     1       3.345  -2.499  -4.606  0.00  0.00    +0.040 A 
ATOM     19  C   UNL     1       3.340  -2.904  -5.944  0.00  0.00    +0.013 A 
ATOM     20  C   UNL     1       4.363  -2.517  -6.784  0.00  0.00    +0.004 A 
ATOM     21  C   UNL     1       5.396  -1.728  -6.310  0.00  0.00    +0.049 A 
ATOM     22  C   UNL     1       5.413  -1.319  -4.986  0.00  0.00    +0.159 A 
ATOM     23  C   UNL     1       4.387  -1.696  -4.129  0.00  0.00    +0.167 A 
BRANCH  23  24
ATOM     24  O   UNL     1       4.398  -1.292  -2.831  0.00  0.00    -0.503 OA
ATOM     25  H   UNL     1       5.218  -0.661  -2.458  0.00  0.00    +0.292 HD
ENDBRANCH  23  24
BRANCH  22  26
ATOM     26  O   UNL     1       6.432  -0.543  -4.527  0.00  0.00    -0.503 OA
ATOM     27  H   UNL     1       6.446  -0.219  -3.476  0.00  0.00    +0.292 HD
ENDBRANCH  22  26
ENDBRANCH  17  18
ENDBRANCH   1  16
TORSDOF 7
