REMARK  Name = ZINC35486142
REMARK  9 active torsions:
REMARK  status: ('A' for Active; 'I' for Inactive)
REMARK    1  A    between atoms: C_1  and  C_2
REMARK    2  A    between atoms: C_2  and  N_3
REMARK    3  A    between atoms: N_3  and  C_4
REMARK    4  A    between atoms: N_3  and  C_6
REMARK    5  A    between atoms: C_4  and  C_5
REMARK    6  A    between atoms: C_6  and  C_7
REMARK    7  A    between atoms: C_7  and  N_8
REMARK    8  A    between atoms: C_9  and  C_25
REMARK    9  A    between atoms: C_16  and  C_24
REMARK                            x       y       z     vdW  Elec       q    Type
REMARK                         _______ _______ _______ _____ _____    ______ ____
ROOT
ATOM      1  N   UNL     1      -0.803  -3.594   2.129  0.00  0.00    -0.285 N 
ATOM      2  C   UNL     1      -1.882  -4.286   2.852  0.00  0.00    +0.144 C 
ATOM      3  C   UNL     1      -1.471  -5.720   2.923  0.00  0.00    +0.072 A 
ATOM      4  C   UNL     1      -2.128  -6.885   3.526  0.00  0.00    +0.199 A 
ATOM      5  O   UNL     1      -3.272  -6.863   3.945  0.00  0.00    -0.287 OA
ATOM      6  C   UNL     1      -1.267  -8.093   3.576  0.00  0.00    +0.065 A 
ATOM      7  C   UNL     1      -1.670  -9.219   4.293  0.00  0.00    +0.018 A 
ATOM      8  C   UNL     1      -0.863 -10.322   4.334  0.00  0.00    -0.050 A 
ATOM      9  C   UNL     1       0.353 -10.323   3.665  0.00  0.00    +0.007 A 
ATOM     10  C   UNL     1       0.766  -9.221   2.950  0.00  0.00    +0.047 A 
ATOM     11  C   UNL     1      -0.040  -8.084   2.891  0.00  0.00    +0.139 A 
ATOM     12  O   UNL     1       0.380  -7.016   2.175  0.00  0.00    -0.450 OA
ATOM     13  C   UNL     1      -0.266  -5.839   2.292  0.00  0.00    +0.199 A 
ATOM     14  C   UNL     1       0.134  -4.508   1.802  0.00  0.00    +0.283 C 
ATOM     15  O   UNL     1       1.158  -4.269   1.194  0.00  0.00    -0.267 OA
ATOM     16  C   UNL     1      -1.295 -11.540   5.108  0.00  0.00    +0.044 C 
ENDROOT
BRANCH   2  17
ATOM     17  C   UNL     1      -2.028  -3.716   4.239  0.00  0.00    -0.021 A 
ATOM     18  C   UNL     1      -0.903  -3.377   4.968  0.00  0.00    +0.007 A 
ATOM     19  C   UNL     1      -1.035  -2.854   6.241  0.00  0.00    +0.022 A 
ATOM     20  C   UNL     1      -2.293  -2.669   6.785  0.00  0.00    +0.059 A 
ATOM     21  C   UNL     1      -3.420  -3.008   6.055  0.00  0.00    +0.060 A 
ATOM     22  C   UNL     1      -3.286  -3.526   4.779  0.00  0.00    +0.027 A 
ATOM     23 CL   UNL     1      -4.999  -2.777   6.737  0.00  0.00    -0.082 Cl
ATOM     24 CL   UNL     1      -2.460  -2.013   8.384  0.00  0.00    -0.082 Cl
ENDBRANCH   2  17
BRANCH   1  25
ATOM     25  C   UNL     1      -0.756  -2.164   1.814  0.00  0.00    +0.090 C 
BRANCH  25  26
ATOM     26  C   UNL     1      -1.421  -1.919   0.458  0.00  0.00    -0.060 C 
BRANCH  26  27
ATOM     27  N   UNL     1      -1.374  -0.485   0.142  0.00  0.00    +0.380 N 
ATOM     28  H   UNL     1      -1.792   0.039   0.895  0.00  0.00    -0.082 HD
BRANCH  27  30
ATOM     29  C   UNL     1       0.082   1.451  -0.216  0.00  0.00    -0.017 C 
ATOM     30  C   UNL     1       0.024  -0.066  -0.029  0.00  0.00    -0.082 C 
ENDBRANCH  27  30
BRANCH  27  31
ATOM     31  C   UNL     1      -2.116  -0.233  -1.101  0.00  0.00    -0.082 C 
ATOM     32  C   UNL     1      -3.600  -0.533  -0.879  0.00  0.00    -0.017 C 
ENDBRANCH  27  31
ENDBRANCH  26  27
ENDBRANCH  25  26
ENDBRANCH   1  25
TORSDOF 6
