REMARK  Name = ZINC05575311
REMARK  6 active torsions:
REMARK  status: ('A' for Active; 'I' for Inactive)
REMARK    1  A    between atoms: C_1  and  C_2
REMARK    2  A    between atoms: C_2  and  N_3
REMARK    3  A    between atoms: C_10  and  N_17
REMARK    4  A    between atoms: C_11  and  N_14
REMARK    5  A    between atoms: C_19  and  C_26
REMARK    6  A    between atoms: C_22  and  C_25
REMARK                            x       y       z     vdW  Elec       q    Type
REMARK                         _______ _______ _______ _____ _____    ______ ____
ROOT
ATOM      1  N   UNL     1       1.196   0.176   7.181  0.00  0.00    -0.306 N 
ATOM      2  C   UNL     1       0.553  -0.736   6.369  0.00  0.00    +0.054 A 
ATOM      3  C   UNL     1       0.515  -2.086   6.699  0.00  0.00    +0.026 A 
ATOM      4  C   UNL     1      -0.134  -2.975   5.869  0.00  0.00    +0.002 A 
ATOM      5  C   UNL     1      -0.750  -2.536   4.706  0.00  0.00    +0.001 A 
ATOM      6  C   UNL     1      -0.724  -1.213   4.362  0.00  0.00    +0.012 A 
ATOM      7  C   UNL     1      -0.076  -0.295   5.192  0.00  0.00    +0.022 A 
ATOM      8  C   UNL     1      -0.023   1.134   4.851  0.00  0.00    +0.075 A 
ATOM      9  C   UNL     1       0.632   1.981   5.704  0.00  0.00    +0.212 A 
ATOM     10  C   UNL     1       1.236   1.482   6.866  0.00  0.00    +0.284 A 
ATOM     11  O   UNL     1       1.815   2.255   7.612  0.00  0.00    -0.265 OA
ENDROOT
BRANCH   8  12
ATOM     12  N   UNL     1      -0.623   1.610   3.704  0.00  0.00    -0.323 N 
ATOM     13  C   UNL     1      -0.017   1.012   2.506  0.00  0.00    +0.136 C 
ATOM     14  C   UNL     1      -0.670   1.611   1.257  0.00  0.00    +0.133 C 
ATOM     15  O   UNL     1      -2.083   1.397   1.315  0.00  0.00    -0.371 OA
ATOM     16  C   UNL     1      -2.705   1.967   2.469  0.00  0.00    +0.133 C 
ATOM     17  C   UNL     1      -2.073   1.371   3.730  0.00  0.00    +0.136 C 
ATOM     18  C   UNL     1      -4.202   1.652   2.450  0.00  0.00    +0.039 C 
ATOM     19  C   UNL     1      -0.383   3.113   1.202  0.00  0.00    +0.039 C 
ENDBRANCH   8  12
BRANCH   9  20
ATOM     20  N   UNL     1       0.704   3.428   5.399  0.00  0.00    +0.064 N 
ATOM     21  O   UNL     1       0.098   3.879   4.443  0.00  0.00    -0.126 OA
ATOM     22  O   UNL     1       1.368   4.167   6.103  0.00  0.00    -0.126 OA
ENDBRANCH   9  20
BRANCH   1  24
ATOM     23  C   UNL     1       0.847  -0.235   9.566  0.00  0.00    +0.027 C 
ATOM     24  C   UNL     1       1.846  -0.287   8.409  0.00  0.00    +0.122 C 
ENDBRANCH   1  24
TORSDOF 3
