REMARK  Name = ZINC04312395
REMARK  9 active torsions:
REMARK  status: ('A' for Active; 'I' for Inactive)
REMARK    1  A    between atoms: C_1  and  C_2
REMARK    2  A    between atoms: C_5  and  C_8
REMARK    3  A    between atoms: C_11  and  C_12
REMARK    4  A    between atoms: C_11  and  O_18
REMARK    5  A    between atoms: N_23  and  C_24
REMARK    6  A    between atoms: C_24  and  C_25
REMARK    7  A    between atoms: C_25  and  N_51
REMARK    8  A    between atoms: C_26  and  N_51
REMARK    9  A    between atoms: C_27  and  N_51
REMARK                            x       y       z     vdW  Elec       q    Type
REMARK                         _______ _______ _______ _____ _____    ______ ____
ROOT
ATOM      1  C   UNL     1       0.646   3.383   0.120  0.00  0.00    +0.144 C 
ATOM      2  C   UNL     1      -0.851   3.408  -0.089  0.00  0.00    +0.071 C 
ATOM      3  C   UNL     1      -1.688   4.497   0.042  0.00  0.00    +0.133 C 
ATOM      4  C   UNL     1      -1.217   2.101  -0.449  0.00  0.00    +0.249 C 
ATOM      5  O   UNL     1      -2.344   1.720  -0.705  0.00  0.00    -0.282 OA
ATOM      6  C   UNL     1       0.012   1.262  -0.459  0.00  0.00    +0.288 C 
ATOM      7  O   UNL     1       0.044   0.078  -0.727  0.00  0.00    -0.266 OA
ATOM      8  N   UNL     1       1.082   2.007  -0.134  0.00  0.00    -0.285 N 
ENDROOT
BRANCH   1  13
ATOM      9  C   UNL     1       3.223   6.991  -3.586  0.00  0.00    +0.044 C 
ATOM     10  C   UNL     1       2.551   6.050  -2.619  0.00  0.00    -0.050 A 
ATOM     11  C   UNL     1       2.385   6.419  -1.297  0.00  0.00    +0.004 A 
ATOM     12  C   UNL     1       1.768   5.556  -0.411  0.00  0.00    +0.006 A 
ATOM     13  C   UNL     1       1.318   4.324  -0.846  0.00  0.00    -0.022 A 
ATOM     14  C   UNL     1       1.489   3.953  -2.167  0.00  0.00    +0.006 A 
ATOM     15  C   UNL     1       2.101   4.818  -3.054  0.00  0.00    +0.004 A 
ENDBRANCH   1  13
BRANCH   3  16
ATOM     16  C   UNL     1      -3.147   4.321  -0.057  0.00  0.00    +0.017 A 
ATOM     17  C   UNL     1      -3.898   5.137  -0.909  0.00  0.00    +0.011 A 
ATOM     18  C   UNL     1      -5.263   4.962  -0.999  0.00  0.00    +0.001 A 
ATOM     19  C   UNL     1      -5.891   3.989  -0.242  0.00  0.00    +0.000 A 
ATOM     20  C   UNL     1      -5.156   3.181   0.607  0.00  0.00    +0.001 A 
ATOM     21  C   UNL     1      -3.790   3.339   0.705  0.00  0.00    +0.011 A 
ENDBRANCH   3  16
BRANCH   3  22
ATOM     22  O   UNL     1      -1.170   5.724   0.260  0.00  0.00    -0.506 OA
ATOM     23  H   UNL     1      -1.911   6.392   0.329  0.00  0.00    +0.292 HD
ENDBRANCH   3  22
BRANCH   8  24
ATOM     24  C   UNL     1       2.462   1.522  -0.047  0.00  0.00    +0.090 C 
BRANCH  24  25
ATOM     25  C   UNL     1       3.142   1.674  -1.409  0.00  0.00    -0.060 C 
BRANCH  25  28
ATOM     26  C   UNL     1       5.136   1.096  -2.654  0.00  0.00    -0.097 C 
ATOM     27  C   UNL     1       5.328   2.040  -0.433  0.00  0.00    -0.097 C 
ATOM     28  N   UNL     1       4.525   1.162  -1.310  0.00  0.00    +0.377 N 
ATOM     29  H   UNL     1       4.503   0.218  -0.907  0.00  0.00    -0.083 HD
ENDBRANCH  25  28
ENDBRANCH  24  25
ENDBRANCH   8  24
TORSDOF 6
