REMARK  Name = ZINC23390438
REMARK  3 active torsions:
REMARK  status: ('A' for Active; 'I' for Inactive)
REMARK    1  A    between atoms: C_6  and  O_11
REMARK    2  A    between atoms: O_11  and  S_12
REMARK    3  A    between atoms: S_12  and  C_15
REMARK                            x       y       z     vdW  Elec       q    Type
REMARK                         _______ _______ _______ _____ _____    ______ ____
ROOT
ATOM      1  S   UNL     1       5.434  -2.938   1.325  0.00  0.00    +0.151 S 
ATOM      2  O   UNL     1       6.755  -3.425   1.134  0.00  0.00    -0.131 OA
ATOM      3  O   UNL     1       5.149  -1.807   2.136  0.00  0.00    -0.131 OA
ENDROOT
BRANCH   1   4
ATOM      4  C   UNL     1       4.495  -4.277   1.981  0.00  0.00    +0.130 A 
ATOM      5  C   UNL     1       3.349  -4.022   2.716  0.00  0.00    +0.032 A 
ATOM      6  C   UNL     1       2.608  -5.064   3.233  0.00  0.00    +0.030 A 
ATOM      7  C   UNL     1       3.010  -6.378   3.017  0.00  0.00    +0.066 A 
ATOM      8  C   UNL     1       4.165  -6.636   2.276  0.00  0.00    +0.068 A 
ATOM      9  C   UNL     1       4.900  -5.577   1.755  0.00  0.00    +0.058 A 
ATOM     10  N   UNL     1       4.584  -7.944   2.050  0.00  0.00    -0.316 N 
ATOM     11  H   UNL     1       5.388  -8.112   1.534  0.00  0.00    +0.169 HD
ATOM     12  C   UNL     1       3.874  -8.977   2.547  0.00  0.00    +0.314 A 
ATOM     13  O   UNL     1       4.236 -10.120   2.353  0.00  0.00    -0.262 OA
ATOM     14  C   UNL     1       2.640  -8.701   3.338  0.00  0.00    +0.314 A 
ATOM     15  O   UNL     1       1.986  -9.618   3.795  0.00  0.00    -0.262 OA
ATOM     16  N   UNL     1       2.257  -7.425   3.542  0.00  0.00    -0.316 N 
ATOM     17  H   UNL     1       1.457  -7.235   4.056  0.00  0.00    +0.169 HD
ENDBRANCH   1   4
BRANCH   1  18
ATOM     18  O   UNL     1       4.878  -2.633  -0.059  0.00  0.00    -0.342 OA
BRANCH  18  24
ATOM     19  C   UNL     1      -0.016   1.357   0.009  0.00  0.00    +0.001 A 
ATOM     20  C   UNL     1       1.169   2.091   0.002  0.00  0.00    +0.001 A 
ATOM     21  C   UNL     1       2.378   1.468  -0.013  0.00  0.00    +0.008 A 
ATOM     22  C   UNL     1       2.437   0.063  -0.021  0.00  0.00    -0.014 A 
ATOM     23  C   UNL     1       3.668  -0.614  -0.037  0.00  0.00    +0.057 A 
ATOM     24  C   UNL     1       3.687  -1.980  -0.044  0.00  0.00    +0.157 A 
ATOM     25  C   UNL     1       2.497  -2.714  -0.036  0.00  0.00    +0.049 A 
ATOM     26  C   UNL     1       1.289  -2.088  -0.022  0.00  0.00    +0.012 A 
ATOM     27  C   UNL     1       1.232  -0.683  -0.013  0.00  0.00    -0.018 A 
ATOM     28  C   UNL     1       0.002  -0.004   0.002  0.00  0.00    +0.008 A 
ENDBRANCH  18  24
ENDBRANCH   1  18
TORSDOF 3
