REMARK  Name = ZINC06344932
REMARK  3 active torsions:
REMARK  status: ('A' for Active; 'I' for Inactive)
REMARK    1  A    between atoms: C_15  and  C_17
REMARK    2  A    between atoms: C_17  and  C_19
REMARK    3  A    between atoms: C_23  and  N_25
REMARK                            x       y       z     vdW  Elec       q    Type
REMARK                         _______ _______ _______ _____ _____    ______ ____
ROOT
ATOM      1  C   UNL     1       4.541  -8.410   1.290  0.00  0.00    +0.001 A 
ATOM      2  C   UNL     1       4.020  -7.817   2.427  0.00  0.00    +0.000 A 
ATOM      3  C   UNL     1       3.191  -6.715   2.320  0.00  0.00    +0.006 A 
ATOM      4  C   UNL     1       2.881  -6.199   1.081  0.00  0.00    -0.021 A 
ATOM      5  C   UNL     1       3.403  -6.791  -0.073  0.00  0.00    -0.019 A 
ATOM      6  C   UNL     1       4.238  -7.905   0.043  0.00  0.00    +0.008 A 
ATOM      7  C   UNL     1       3.085  -6.250  -1.411  0.00  0.00    +0.022 C 
ATOM      8  C   UNL     1       2.578  -5.004  -1.507  0.00  0.00    +0.054 C 
ATOM      9  C   UNL     1       1.974  -4.997   0.952  0.00  0.00    +0.100 C 
ATOM     10  C   UNL     1       2.178  -3.975   1.983  0.00  0.00    +0.113 C 
ATOM     11  C   UNL     1       3.187  -2.939   1.359  0.00  0.00    +0.116 C 
ATOM     12  C   UNL     1       2.573  -2.882  -0.038  0.00  0.00    +0.141 C 
ATOM     13  C   UNL     1       2.948  -1.855   2.362  0.00  0.00    +0.225 C 
ATOM     14  O   UNL     1       2.923  -0.660   2.161  0.00  0.00    -0.275 OA
ATOM     15  N   UNL     1       2.763  -2.502   3.557  0.00  0.00    -0.256 N 
ATOM     16  C   UNL     1       2.444  -3.828   3.396  0.00  0.00    +0.225 C 
ATOM     17  O   UNL     1       2.396  -4.687   4.250  0.00  0.00    -0.275 OA
ATOM     18  H   UNL     1       2.848  -2.070   4.422  0.00  0.00    +0.157 HD
ATOM     19  N   UNL     1       2.020  -4.267  -0.295  0.00  0.00    -0.384 NA
ATOM     20  H   UNL     1       1.034  -4.117  -0.538  0.00  0.00    +0.127 HD
ENDROOT
BRANCH  12  21
ATOM     21  C   UNL     1       1.253  -2.154  -0.022  0.00  0.00    +0.183 C 
ATOM     22  O   UNL     1       0.215  -2.781  -0.016  0.00  0.00    -0.290 OA
BRANCH  21  23
ATOM     23  C   UNL     1       1.224  -0.683  -0.013  0.00  0.00    +0.021 A 
ATOM     24  C   UNL     1       2.420   0.044  -0.021  0.00  0.00    +0.011 A 
ATOM     25  C   UNL     1       2.384   1.422  -0.013  0.00  0.00    +0.003 A 
ATOM     26  C   UNL     1       1.170   2.087   0.002  0.00  0.00    +0.033 A 
ATOM     27  C   UNL     1      -0.017   1.375   0.010  0.00  0.00    +0.127 A 
ATOM     28  C   UNL     1       0.002  -0.004   0.002  0.00  0.00    +0.044 A 
BRANCH  27  29
ATOM     29  N   UNL     1      -1.309   2.095   0.020  0.00  0.00    +0.056 N 
ATOM     30  O   UNL     1      -2.355   1.471   0.021  0.00  0.00    -0.126 OA
ATOM     31  O   UNL     1      -1.328   3.313   0.026  0.00  0.00    -0.126 OA
ENDBRANCH  27  29
ENDBRANCH  21  23
ENDBRANCH  12  21
TORSDOF 3
