REMARK  Name = ZINC63491846
REMARK  8 active torsions:
REMARK  status: ('A' for Active; 'I' for Inactive)
REMARK    1  A    between atoms: C_1  and  O_2
REMARK    2  A    between atoms: O_2  and  C_3
REMARK    3  A    between atoms: C_10  and  C_30
REMARK    4  A    between atoms: C_18  and  C_20
REMARK    5  A    between atoms: C_23  and  O_28
REMARK    6  A    between atoms: C_24  and  O_26
REMARK    7  A    between atoms: O_26  and  C_27
REMARK    8  A    between atoms: O_28  and  C_29
REMARK                            x       y       z     vdW  Elec       q    Type
REMARK                         _______ _______ _______ _____ _____    ______ ____
ROOT
ATOM      1  C   UNL     1      -0.956  -0.965  -0.650  0.00  0.00    +0.121 A 
ATOM      2  C   UNL     1      -2.040  -0.090  -0.457  0.00  0.00    +0.047 A 
ATOM      3  C   UNL     1      -3.303  -0.530  -0.272  0.00  0.00    +0.029 A 
ATOM      4  C   UNL     1      -3.582  -1.969  -0.268  0.00  0.00    +0.043 A 
ATOM      5  N   UNL     1      -4.693  -2.645  -0.094  0.00  0.00    -0.375 N 
ATOM      6  C   UNL     1      -4.402  -4.067  -0.266  0.00  0.00    +0.131 C 
ATOM      7  C   UNL     1      -4.792  -4.883   0.972  0.00  0.00    +0.133 C 
ATOM      8  N   UNL     1      -4.114  -6.186   0.885  0.00  0.00    -0.288 N 
ATOM      9  C   UNL     1      -2.650  -6.264   0.828  0.00  0.00    +0.113 C 
ATOM     10  C   UNL     1      -2.144  -5.468  -0.389  0.00  0.00    +0.052 C 
ATOM     11  C   UNL     1      -2.893  -4.155  -0.418  0.00  0.00    -0.035 C 
ATOM     12  C   UNL     1      -2.438  -2.895  -0.465  0.00  0.00    +0.003 A 
ATOM     13  C   UNL     1      -1.107  -2.311  -0.666  0.00  0.00    +0.055 A 
ATOM     14  C   UNL     1      -4.844  -7.319   0.857  0.00  0.00    +0.247 C 
ATOM     15  O   UNL     1      -6.057  -7.258   0.810  0.00  0.00    -0.270 OA
ATOM     16  H   UNL     1      -5.561  -2.265   0.114  0.00  0.00    +0.160 HD
ENDROOT
BRANCH   7  17
ATOM     17  C   UNL     1      -4.352  -4.160   2.219  0.00  0.00    -0.025 A 
ATOM     18  C   UNL     1      -3.011  -3.898   2.429  0.00  0.00    +0.008 A 
ATOM     19  C   UNL     1      -2.607  -3.235   3.572  0.00  0.00    +0.038 A 
ATOM     20  C   UNL     1      -3.546  -2.833   4.507  0.00  0.00    +0.123 A 
ATOM     21  C   UNL     1      -4.888  -3.096   4.295  0.00  0.00    +0.038 A 
ATOM     22  C   UNL     1      -5.291  -3.755   3.149  0.00  0.00    +0.008 A 
ATOM     23  F   UNL     1      -3.151  -2.185   5.625  0.00  0.00    -0.205 F 
ENDBRANCH   7  17
BRANCH  14  24
ATOM     24  C   UNL     1      -4.170  -8.632   0.884  0.00  0.00    +0.041 A 
ATOM     25  C   UNL     1      -3.102  -8.853   1.757  0.00  0.00    +0.017 A 
ATOM     26  C   UNL     1      -2.475 -10.079   1.782  0.00  0.00    +0.050 A 
ATOM     27  C   UNL     1      -2.902 -11.098   0.940  0.00  0.00    +0.162 A 
ATOM     28  C   UNL     1      -3.967 -10.884   0.067  0.00  0.00    +0.162 A 
ATOM     29  C   UNL     1      -4.604  -9.659   0.042  0.00  0.00    +0.062 A 
BRANCH  28  30
ATOM     30  O   UNL     1      -4.382 -11.883  -0.757  0.00  0.00    -0.491 OA
ATOM     31  C   UNL     1      -5.479 -11.594  -1.626  0.00  0.00    +0.277 C 
ENDBRANCH  28  30
BRANCH  27  32
ATOM     32  O   UNL     1      -2.280 -12.305   0.968  0.00  0.00    -0.491 OA
ATOM     33  C   UNL     1      -1.196 -12.455   1.886  0.00  0.00    +0.277 C 
ENDBRANCH  27  32
ENDBRANCH  14  24
BRANCH   1  35
ATOM     34  C   UNL     1       0.398   0.983  -0.808  0.00  0.00    +0.277 C 
ATOM     35  O   UNL     1       0.285  -0.442  -0.832  0.00  0.00    -0.495 OA
ENDBRANCH   1  35
TORSDOF 5
