REMARK  Name = ZINC39862847
REMARK  5 active torsions:
REMARK  status: ('A' for Active; 'I' for Inactive)
REMARK    1  A    between atoms: C_1  and  C_2
REMARK    2  A    between atoms: C_2  and  N_3
REMARK    3  A    between atoms: C_7  and  C_8
REMARK    4  A    between atoms: N_12  and  C_13
REMARK    5  A    between atoms: N_16  and  C_17
REMARK                            x       y       z     vdW  Elec       q    Type
REMARK                         _______ _______ _______ _____ _____    ______ ____
ROOT
ATOM      1  N   UNL     1       0.629  -1.539   1.032  0.00  0.00    -0.246 N 
ATOM      2  C   UNL     1       1.951  -1.544   1.013  0.00  0.00    +0.259 C 
ATOM      3  O   UNL     1       2.571  -1.605  -0.034  0.00  0.00    -0.269 OA
ATOM      4  C   UNL     1       2.641  -1.473   2.310  0.00  0.00    +0.079 C 
ATOM      5  C   UNL     1       3.977  -1.461   2.580  0.00  0.00    +0.046 C 
ATOM      6  S   UNL     1       1.256  -1.405   3.438  0.00  0.00    -0.049 S 
ATOM      7  C   UNL     1      -0.054  -1.464   2.226  0.00  0.00    +0.168 C 
ATOM      8  N   UNL     1      -1.354  -1.442   2.425  0.00  0.00    -0.224 NA
ENDROOT
BRANCH   5   9
ATOM      9  C   UNL     1       4.912  -1.389   1.520  0.00  0.00    +0.043 A 
ATOM     10  C   UNL     1       5.896  -2.318   1.232  0.00  0.00    +0.027 A 
ATOM     11  C   UNL     1       6.587  -1.851   0.110  0.00  0.00    +0.020 A 
ATOM     12  C   UNL     1       6.029  -0.674  -0.263  0.00  0.00    +0.086 A 
ATOM     13  N   UNL     1       5.006  -0.384   0.584  0.00  0.00    -0.350 N 
ATOM     14  C   UNL     1       4.147   0.801   0.513  0.00  0.00    +0.149 C 
ENDBRANCH   5   9
BRANCH   8  15
ATOM     15  C   UNL     1      -1.850  -1.364   3.697  0.00  0.00    +0.085 A 
ATOM     16  C   UNL     1      -2.901  -0.488   4.000  0.00  0.00    +0.031 A 
ATOM     17  C   UNL     1      -3.366  -0.447   5.302  0.00  0.00    +0.022 A 
ATOM     18  C   UNL     1      -2.784  -1.264   6.255  0.00  0.00    +0.111 A 
ATOM     19  N   UNL     1      -1.796  -2.079   5.942  0.00  0.00    -0.261 NA
ATOM     20  C   UNL     1      -1.321  -2.160   4.716  0.00  0.00    +0.138 A 
ENDBRANCH   8  15
BRANCH   1  22
ATOM     21  C   UNL     1      -0.364  -0.192  -0.751  0.00  0.00    +0.025 C 
ATOM     22  C   UNL     1      -0.116  -1.608  -0.227  0.00  0.00    +0.112 C 
ENDBRANCH   1  22
TORSDOF 3
