REMARK  Name = ZINC33386063
REMARK  7 active torsions:
REMARK  status: ('A' for Active; 'I' for Inactive)
REMARK    1  A    between atoms: C_1  and  C_2
REMARK    2  A    between atoms: C_3  and  C_19
REMARK    3  A    between atoms: C_4  and  N_12
REMARK    4  A    between atoms: N_5  and  C_11
REMARK    5  A    between atoms: C_8  and  C_9
REMARK    6  A    between atoms: N_15  and  C_18
REMARK    7  A    between atoms: N_23  and  C_27
REMARK                            x       y       z     vdW  Elec       q    Type
REMARK                         _______ _______ _______ _____ _____    ______ ____
ROOT
ATOM      1  C   UNL     1      -1.969   4.646   0.170  0.00  0.00    +0.046 C 
ATOM      2  C   UNL     1      -3.334   4.008   0.163  0.00  0.00    -0.017 A 
ATOM      3  C   UNL     1      -3.470   2.610   0.177  0.00  0.00    +0.019 A 
ATOM      4  C   UNL     1      -4.754   2.040   0.164  0.00  0.00    +0.111 A 
ATOM      5  N   UNL     1      -5.859   2.829   0.149  0.00  0.00    -0.298 N 
ATOM      6  C   UNL     1      -5.756   4.170   0.135  0.00  0.00    +0.270 A 
ATOM      7  O   UNL     1      -6.764   4.854   0.115  0.00  0.00    -0.266 OA
ATOM      8  C   UNL     1      -4.483   4.795   0.141  0.00  0.00    +0.120 A 
ATOM      9  C   UNL     1      -7.186   2.209   0.141  0.00  0.00    +0.154 C 
ENDROOT
BRANCH   4  10
ATOM     10  N   UNL     1      -4.892   0.683   0.172  0.00  0.00    -0.320 N 
ATOM     11  C   UNL     1      -4.391   0.110   1.429  0.00  0.00    +0.088 C 
ATOM     12  C   UNL     1      -4.636  -1.401   1.431  0.00  0.00    -0.060 C 
ATOM     13  N   UNL     1      -3.961  -2.006   0.274  0.00  0.00    +0.380 N 
ATOM     14  C   UNL     1      -4.461  -1.433  -0.983  0.00  0.00    -0.060 C 
ATOM     15  C   UNL     1      -4.216   0.078  -0.985  0.00  0.00    +0.088 C 
ATOM     16  C   UNL     1      -4.109  -3.467   0.282  0.00  0.00    -0.096 C 
ATOM     17  H   UNL     1      -2.888  -1.776   0.349  0.00  0.00    -0.082 HD
ENDBRANCH   4  10
BRANCH   3  18
ATOM     18  C   UNL     1      -2.283   1.754   0.200  0.00  0.00    +0.032 C 
ATOM     19  C   UNL     1      -1.447   1.720  -0.873  0.00  0.00    +0.077 C 
ATOM     20  C   UNL     1      -0.184   1.071  -1.022  0.00  0.00    +0.259 C 
ATOM     21  O   UNL     1       0.302   0.428  -0.108  0.00  0.00    -0.269 OA
ATOM     22  N   UNL     1       0.440   1.184  -2.181  0.00  0.00    -0.252 N 
ATOM     23  C   UNL     1      -0.099   1.898  -3.194  0.00  0.00    +0.121 C 
ATOM     24  S   UNL     1       0.527   2.175  -4.763  0.00  0.00    -0.027 S 
ATOM     25  S   UNL     1      -1.631   2.479  -2.481  0.00  0.00    -0.061 S 
BRANCH  22  26
ATOM     26  C   UNL     1       1.735   0.526  -2.372  0.00  0.00    +0.083 C 
ATOM     27  C   UNL     1       2.806   1.568  -2.754  0.00  0.00    +0.023 C 
ATOM     28  C   UNL     1       3.701   0.832  -3.783  0.00  0.00    +0.002 C 
ATOM     29  C   UNL     1       2.676   0.000  -4.595  0.00  0.00    +0.002 C 
ATOM     30  C   UNL     1       1.653  -0.471  -3.541  0.00  0.00    +0.023 C 
ENDBRANCH  22  26
ENDBRANCH   3  18
BRANCH   8  31
ATOM     31  C   UNL     1      -4.379   6.224   0.127  0.00  0.00    +0.105 C 
ATOM     32  N   UNL     1      -4.297   7.356   0.115  0.00  0.00    -0.191 NA
ENDBRANCH   8  31
TORSDOF 4
