REMARK  Name = ZINC61823536
REMARK  3 active torsions:
REMARK  status: ('A' for Active; 'I' for Inactive)
REMARK    1  A    between atoms: C_3  and  S_8
REMARK    2  A    between atoms: C_6  and  O_7
REMARK    3  A    between atoms: S_8  and  N_11
REMARK                            x       y       z     vdW  Elec       q    Type
REMARK                         _______ _______ _______ _____ _____    ______ ____
ROOT
ATOM      1  S   UNL     1       3.890   2.317  -0.023  0.00  0.00    +0.061 S 
ATOM      2  O   UNL     1       4.872   1.459  -0.588  0.00  0.00    -0.153 OA
ATOM      3  O   UNL     1       3.595   3.597  -0.565  0.00  0.00    -0.153 OA
ENDROOT
BRANCH   1   4
ATOM      4  N   UNL     1       4.326   2.560   1.556  0.00  0.00    -0.177 NA
ATOM      5  C   UNL     1       3.870   3.752   2.284  0.00  0.00    +0.110 C 
ATOM      6  C   UNL     1       5.090   4.464   2.877  0.00  0.00    +0.024 C 
ATOM      7  C   UNL     1       5.889   3.475   3.729  0.00  0.00    -0.027 C 
ATOM      8  C   UNL     1       4.995   2.923   4.841  0.00  0.00    +0.007 C 
ATOM      9  C   UNL     1       5.793   1.937   5.696  0.00  0.00    +0.001 C 
ATOM     10  C   UNL     1       6.993   2.655   6.316  0.00  0.00    +0.000 C 
ATOM     11  C   UNL     1       7.888   3.206   5.204  0.00  0.00    +0.001 C 
ATOM     12  C   UNL     1       7.090   4.192   4.349  0.00  0.00    +0.007 C 
ATOM     13  C   UNL     1       6.381   2.323   2.850  0.00  0.00    +0.024 C 
ATOM     14  C   UNL     1       5.171   1.585   2.258  0.00  0.00    +0.110 C 
ENDBRANCH   1   4
BRANCH   1  17
ATOM     15  C   UNL     1      -0.017   1.383   0.010  0.00  0.00    +0.047 A 
ATOM     16  C   UNL     1       1.171   2.089   0.002  0.00  0.00    +0.032 A 
ATOM     17  C   UNL     1       2.377   1.414  -0.013  0.00  0.00    +0.106 A 
ATOM     18  C   UNL     1       2.399   0.031  -0.021  0.00  0.00    +0.032 A 
ATOM     19  C   UNL     1       1.214  -0.679  -0.013  0.00  0.00    +0.047 A 
ATOM     20  C   UNL     1       0.002  -0.004   0.002  0.00  0.00    +0.117 A 
BRANCH  20  21
ATOM     21  O   UNL     1      -1.165  -0.701   0.010  0.00  0.00    -0.507 OA
ATOM     22  H   UNL     1      -1.511  -0.897  -0.871  0.00  0.00    +0.292 HD
ENDBRANCH  20  21
ENDBRANCH   1  17
TORSDOF 3
