REMARK  Name = ZINC67587526
REMARK  6 active torsions:
REMARK  status: ('A' for Active; 'I' for Inactive)
REMARK    1  A    between atoms: C_1  and  C_2
REMARK    2  A    between atoms: N_5  and  C_8
REMARK    3  A    between atoms: C_8  and  C_10
REMARK    4  A    between atoms: C_8  and  C_23
REMARK    5  A    between atoms: C_10  and  N_11
REMARK    6  A    between atoms: C_18  and  C_20
REMARK                            x       y       z     vdW  Elec       q    Type
REMARK                         _______ _______ _______ _____ _____    ______ ____
ROOT
ATOM      1  C   UNL     1       1.713  -3.911  -0.025  0.00  0.00    -0.020 C 
ENDROOT
BRANCH   1   6
ATOM      2  C   UNL     1       0.553   1.656   0.397  0.00  0.00    +0.007 C 
ATOM      3  C   UNL     1       0.420   0.134   0.326  0.00  0.00    -0.018 C 
ATOM      4  C   UNL     1       0.976  -0.366  -1.011  0.00  0.00    -0.015 C 
ATOM      5  C   UNL     1       0.913  -1.895  -1.044  0.00  0.00    -0.078 C 
ATOM      6  N   UNL     1       1.713  -2.445   0.057  0.00  0.00    +0.385 N 
ATOM      7  C   UNL     1       1.144  -2.028   1.344  0.00  0.00    -0.078 C 
ATOM      8  C   UNL     1       1.216  -0.504   1.468  0.00  0.00    -0.015 C 
ATOM      9  H   UNL     1       2.661  -2.106  -0.016  0.00  0.00    -0.081 HD
ENDBRANCH   1   6
BRANCH   1  10
ATOM     10  C   UNL     1       2.497  -4.479   1.131  0.00  0.00    -0.059 A 
ATOM     11  C   UNL     1       3.663  -3.863   1.544  0.00  0.00    +0.002 A 
ATOM     12  C   UNL     1       4.382  -4.384   2.604  0.00  0.00    +0.000 A 
ATOM     13  C   UNL     1       3.933  -5.519   3.252  0.00  0.00    +0.000 A 
ATOM     14  C   UNL     1       2.766  -6.135   2.840  0.00  0.00    +0.000 A 
ATOM     15  C   UNL     1       2.045  -5.612   1.782  0.00  0.00    +0.002 A 
ENDBRANCH   1  10
BRANCH   1  16
ATOM     16  C   UNL     1       2.358  -4.349  -1.341  0.00  0.00    +0.095 C 
BRANCH  16  17
ATOM     17  N   UNL     1       2.290  -5.808  -1.457  0.00  0.00    -0.300 N 
ATOM     18  C   UNL     1       2.895  -6.431  -2.488  0.00  0.00    +0.305 C 
ATOM     19  O   UNL     1       3.497  -5.782  -3.322  0.00  0.00    -0.252 OA
ATOM     20  N   UNL     1       2.833  -7.773  -2.595  0.00  0.00    -0.247 N 
ATOM     21  C   UNL     1       3.457  -8.416  -3.658  0.00  0.00    +0.189 A 
ATOM     22  N   UNL     1       4.155  -7.897  -4.649  0.00  0.00    -0.125 NA
ATOM     23  N   UNL     1       4.668  -8.616  -5.553  0.00  0.00    -0.139 NA
ATOM     24  C   UNL     1       4.501  -9.923  -5.504  0.00  0.00    +0.169 A 
ATOM     25  S   UNL     1       3.525 -10.062  -4.013  0.00  0.00    -0.030 S 
ATOM     26  H   UNL     1       1.810  -6.325  -0.792  0.00  0.00    +0.150 HD
ATOM     27  H   UNL     1       2.352  -8.290  -1.929  0.00  0.00    +0.158 HD
BRANCH  24  28
ATOM     28  C   UNL     1       4.997 -10.996  -6.439  0.00  0.00    +0.398 C 
ATOM     29  F   UNL     1       6.204 -10.589  -7.017  0.00  0.00    -0.202 F 
ATOM     30  F   UNL     1       5.198 -12.181  -5.723  0.00  0.00    -0.202 F 
ENDBRANCH  24  28
ENDBRANCH  16  17
ENDBRANCH   1  16
TORSDOF 5
