REMARK  Name = ZINC05460407
REMARK  8 active torsions:
REMARK  status: ('A' for Active; 'I' for Inactive)
REMARK    1  A    between atoms: C_1  and  C_2
REMARK    2  A    between atoms: C_2  and  O_3
REMARK    3  A    between atoms: O_3  and  C_4
REMARK    4  A    between atoms: C_4  and  C_6
REMARK    5  A    between atoms: C_6  and  C_31
REMARK    6  A    between atoms: C_11  and  C_28
REMARK    7  A    between atoms: C_14  and  C_25
REMARK    8  A    between atoms: C_16  and  C_18
REMARK                            x       y       z     vdW  Elec       q    Type
REMARK                         _______ _______ _______ _____ _____    ______ ____
ROOT
ATOM      1  C   UNL     1      -4.369   0.305   1.231  0.00  0.00    +0.184 C 
ATOM      2  C   UNL     1      -4.646   1.543   0.360  0.00  0.00    +0.128 C 
ATOM      3  C   UNL     1      -5.754   1.294  -0.632  0.00  0.00    -0.002 C 
ATOM      4  C   UNL     1      -5.683   1.868  -1.831  0.00  0.00    +0.012 C 
ATOM      5  C   UNL     1      -4.547   2.739  -2.197  0.00  0.00    +0.050 C 
ATOM      6  C   UNL     1      -3.387   2.650  -1.478  0.00  0.00    +0.084 C 
ATOM      7  N   UNL     1      -3.414   1.787  -0.417  0.00  0.00    -0.314 N 
ATOM      8  C   UNL     1      -2.341   0.929   0.087  0.00  0.00    +0.169 C 
ATOM      9  C   UNL     1      -2.834   0.402   1.459  0.00  0.00    +0.081 C 
ENDROOT
BRANCH   9  10
ATOM     10  C   UNL     1      -2.247  -0.953   1.758  0.00  0.00    -0.040 A 
ATOM     11  C   UNL     1      -2.170  -1.908   0.762  0.00  0.00    +0.005 A 
ATOM     12  C   UNL     1      -1.626  -3.149   1.035  0.00  0.00    +0.020 A 
ATOM     13  C   UNL     1      -1.169  -3.439   2.308  0.00  0.00    +0.041 A 
ATOM     14  C   UNL     1      -1.252  -2.485   3.306  0.00  0.00    +0.020 A 
ATOM     15  C   UNL     1      -1.791  -1.242   3.031  0.00  0.00    +0.005 A 
ATOM     16 CL   UNL     1      -0.493  -5.000   2.653  0.00  0.00    -0.084 Cl
ENDBRANCH   9  10
BRANCH   8  17
ATOM     17  C   UNL     1      -1.075   1.727   0.261  0.00  0.00    +0.232 C 
ATOM     18  O   UNL     1      -1.124   2.937   0.321  0.00  0.00    -0.274 OA
ATOM     19  N   UNL     1       0.113   1.095   0.350  0.00  0.00    -0.328 N 
ATOM     20  H   UNL     1       0.152   0.127   0.302  0.00  0.00    +0.145 HD
ATOM     21  H   UNL     1       0.928   1.609   0.458  0.00  0.00    +0.145 HD
ENDBRANCH   8  17
BRANCH   5  22
ATOM     22  C   UNL     1      -4.659   3.672  -3.323  0.00  0.00    +0.243 C 
ATOM     23  O   UNL     1      -3.718   4.386  -3.618  0.00  0.00    -0.270 OA
ATOM     24  N   UNL     1      -5.803   3.739  -4.032  0.00  0.00    -0.325 N 
ATOM     25  H   UNL     1      -6.553   3.170  -3.798  0.00  0.00    +0.145 HD
ATOM     26  H   UNL     1      -5.877   4.356  -4.777  0.00  0.00    +0.145 HD
ENDBRANCH   5  22
BRANCH   1  27
ATOM     27  C   UNL     1      -5.116   0.390   2.537  0.00  0.00    +0.330 C 
ATOM     28  O   UNL     1      -4.508   0.412   3.581  0.00  0.00    -0.249 OA
BRANCH  27  29
ATOM     29  O   UNL     1      -6.458   0.440   2.541  0.00  0.00    -0.464 OA
BRANCH  29  31
ATOM     30  C   UNL     1      -8.627   0.570   3.639  0.00  0.00    +0.048 C 
ATOM     31  C   UNL     1      -7.111   0.521   3.835  0.00  0.00    +0.229 C 
ENDBRANCH  29  31
ENDBRANCH  27  29
ENDBRANCH   1  27
BRANCH   1  32
ATOM     32  C   UNL     1      -4.715  -0.931   0.511  0.00  0.00    +0.084 C 
ATOM     33  N   UNL     1      -4.982  -1.885  -0.045  0.00  0.00    -0.195 NA
ENDBRANCH   1  32
TORSDOF 7
