REMARK  Name = ZINC39393762
REMARK  3 active torsions:
REMARK  status: ('A' for Active; 'I' for Inactive)
REMARK    1  A    between atoms: C_3  and  C_12
REMARK    2  A    between atoms: C_5  and  C_6
REMARK    3  A    between atoms: C_20  and  C_24
REMARK                            x       y       z     vdW  Elec       q    Type
REMARK                         _______ _______ _______ _____ _____    ______ ____
ROOT
ATOM      1  C   UNL     1       3.725   1.670  -0.025  0.00  0.00    +0.253 C 
ATOM      2  O   UNL     1       4.009   2.849  -0.132  0.00  0.00    -0.269 OA
ATOM      3  N   UNL     1       4.702   0.747   0.063  0.00  0.00    -0.296 N 
ATOM      4  C   UNL     1       4.355  -0.678   0.052  0.00  0.00    +0.114 C 
ATOM      5  C   UNL     1       5.093  -1.381  -1.103  0.00  0.00    +0.072 C 
ATOM      6  C   UNL     1       6.518  -0.890  -1.059  0.00  0.00    +0.053 C 
ATOM      7  N   UNL     1       7.630  -1.522  -1.024  0.00  0.00    -0.157 NA
ATOM      8  N   UNL     1       8.719  -0.664  -0.863  0.00  0.00    -0.150 NA
ATOM      9  C   UNL     1       8.354   0.593  -0.814  0.00  0.00    +0.118 C 
ATOM     10  C   UNL     1       6.862   0.596  -1.028  0.00  0.00    +0.107 C 
ATOM     11  C   UNL     1       6.105   1.182   0.162  0.00  0.00    +0.124 C 
ENDROOT
BRANCH   1  14
ATOM     12  C   UNL     1       0.010   1.236  -0.354  0.00  0.00    +0.014 A 
ATOM     13  C   UNL     1       1.213   1.869  -0.557  0.00  0.00    +0.021 A 
ATOM     14  C   UNL     1       2.319   1.255   0.009  0.00  0.00    +0.074 A 
ATOM     15  S   UNL     1       1.587  -0.172   0.789  0.00  0.00    -0.086 S 
ATOM     16  C   UNL     1      -0.018   0.087   0.366  0.00  0.00    +0.019 A 
BRANCH  16  17
ATOM     17  C   UNL     1      -1.214  -0.762   0.708  0.00  0.00    +0.155 C 
ATOM     18  C   UNL     1      -1.748  -0.378   2.104  0.00  0.00    +0.039 C 
ATOM     19  C   UNL     1      -2.131  -1.758   2.703  0.00  0.00    +0.031 C 
ATOM     20  C   UNL     1      -1.040  -2.663   2.078  0.00  0.00    +0.161 C 
ATOM     21  O   UNL     1      -0.833  -2.143   0.753  0.00  0.00    -0.371 OA
ENDBRANCH  16  17
ENDBRANCH   1  14
BRANCH   9  22
ATOM     22  C   UNL     1       9.217   1.756  -0.595  0.00  0.00    +0.184 A 
ATOM     23  C   UNL     1      10.571   1.733  -0.408  0.00  0.00    +0.074 A 
ATOM     24  C   UNL     1      11.005   3.055  -0.236  0.00  0.00    +0.157 A 
ATOM     25  N   UNL     1       9.968   3.841  -0.315  0.00  0.00    -0.086 NA
ATOM     26  O   UNL     1       8.822   3.044  -0.547  0.00  0.00    -0.353 OA
ENDBRANCH   9  22
TORSDOF 3
