REMARK  Name = ZINC48412230
REMARK  4 active torsions:
REMARK  status: ('A' for Active; 'I' for Inactive)
REMARK    1  A    between atoms: C_1  and  C_2
REMARK    2  A    between atoms: C_3  and  C_19
REMARK    3  A    between atoms: C_11  and  C_13
REMARK    4  A    between atoms: C_13  and  C_14
REMARK                            x       y       z     vdW  Elec       q    Type
REMARK                         _______ _______ _______ _____ _____    ______ ____
ROOT
ATOM      1  C   UNL     1      -0.018   1.503   0.010  0.00  0.00    +0.045 C 
ATOM      2  C   UNL     1       0.002  -0.004   0.002  0.00  0.00    -0.026 A 
ATOM      3  C   UNL     1       0.006  -0.677  -1.160  0.00  0.00    -0.008 A 
ATOM      4  S   UNL     1       0.032  -2.385  -0.648  0.00  0.00    -0.073 S 
ATOM      5  C   UNL     1       0.037  -2.144   1.110  0.00  0.00    +0.116 A 
ATOM      6  C   UNL     1       0.024  -0.745   1.250  0.00  0.00    +0.075 A 
ATOM      7  C   UNL     1       0.029  -0.257   2.597  0.00  0.00    +0.260 A 
ATOM      8  O   UNL     1       0.014   0.942   2.821  0.00  0.00    -0.267 OA
ATOM      9  N   UNL     1       0.051  -1.142   3.611  0.00  0.00    -0.310 N 
ATOM     10  H   UNL     1       0.054  -0.817   4.525  0.00  0.00    +0.170 HD
ATOM     11  C   UNL     1       0.067  -2.480   3.380  0.00  0.00    +0.118 A 
ATOM     12  N   UNL     1       0.053  -2.956   2.163  0.00  0.00    -0.226 NA
ATOM     13  C   UNL     1      -0.009  -0.122  -2.561  0.00  0.00    +0.052 C 
ENDROOT
BRANCH  11  14
ATOM     14  C   UNL     1       0.090  -3.432   4.547  0.00  0.00    +0.151 C 
BRANCH  14  15
ATOM     15  C   UNL     1       0.105  -4.851   4.038  0.00  0.00    +0.144 A 
ATOM     16  C   UNL     1       1.202  -5.583   3.767  0.00  0.00    +0.067 A 
ATOM     17  C   UNL     1       0.783  -6.848   3.317  0.00  0.00    +0.157 A 
ATOM     18  N   UNL     1      -0.519  -6.868   3.321  0.00  0.00    -0.086 NA
ATOM     19  O   UNL     1      -0.973  -5.608   3.782  0.00  0.00    -0.359 OA
ENDBRANCH  14  15
ENDBRANCH  11  14
TORSDOF 2
