REMARK  Name = ZINC11315827
REMARK  4 active torsions:
REMARK  status: ('A' for Active; 'I' for Inactive)
REMARK    1  A    between atoms: C_1  and  C_2
REMARK    2  A    between atoms: C_2  and  C_18
REMARK    3  A    between atoms: N_5  and  C_9
REMARK    4  A    between atoms: C_9  and  C_10
REMARK                            x       y       z     vdW  Elec       q    Type
REMARK                         _______ _______ _______ _____ _____    ______ ____
ROOT
ATOM      1  C   UNL     1      -4.472   2.694   4.898  0.00  0.00    +0.047 C 
ATOM      2  C   UNL     1      -4.314   1.271   4.360  0.00  0.00    +0.135 C 
ATOM      3  C   UNL     1      -5.670   0.630   4.139  0.00  0.00    +0.251 C 
ATOM      4  O   UNL     1      -6.544   1.006   3.388  0.00  0.00    -0.272 OA
ATOM      5  N   UNL     1      -5.701  -0.445   4.952  0.00  0.00    -0.220 N 
ATOM      6  C   UNL     1      -4.565  -0.571   5.647  0.00  0.00    +0.310 C 
ATOM      7  O   UNL     1      -4.357  -1.464   6.445  0.00  0.00    -0.252 OA
ATOM      8  N   UNL     1      -3.677   0.404   5.366  0.00  0.00    -0.281 N 
ATOM      9  H   UNL     1      -2.792   0.513   5.749  0.00  0.00    +0.152 HD
ENDROOT
BRANCH   2  10
ATOM     10  C   UNL     1      -3.515   1.275   3.082  0.00  0.00    -0.012 A 
ATOM     11  C   UNL     1      -4.162   1.388   1.865  0.00  0.00    +0.010 A 
ATOM     12  C   UNL     1      -3.433   1.391   0.690  0.00  0.00    +0.050 A 
ATOM     13  C   UNL     1      -2.051   1.280   0.730  0.00  0.00    +0.162 A 
ATOM     14  C   UNL     1      -1.401   1.169   1.953  0.00  0.00    +0.162 A 
ATOM     15  C   UNL     1      -2.139   1.165   3.128  0.00  0.00    +0.055 A 
ATOM     16  O   UNL     1      -0.045   1.067   2.016  0.00  0.00    -0.485 OA
ATOM     17  C   UNL     1       0.628   0.701   0.806  0.00  0.00    +0.270 C 
ATOM     18  C   UNL     1       0.056   1.548  -0.338  0.00  0.00    +0.270 C 
ATOM     19  O   UNL     1      -1.347   1.282  -0.435  0.00  0.00    -0.485 OA
ENDBRANCH   2  10
BRANCH   5  20
ATOM     20  C   UNL     1      -6.839  -1.362   5.060  0.00  0.00    +0.154 C 
BRANCH  20  21
ATOM     21  C   UNL     1      -6.605  -2.559   4.175  0.00  0.00    -0.011 A 
ATOM     22  C   UNL     1      -6.074  -3.719   4.708  0.00  0.00    +0.009 A 
ATOM     23  C   UNL     1      -5.859  -4.818   3.898  0.00  0.00    +0.039 A 
ATOM     24  C   UNL     1      -6.175  -4.757   2.551  0.00  0.00    +0.125 A 
ATOM     25  C   UNL     1      -6.707  -3.596   2.017  0.00  0.00    +0.058 A 
ATOM     26  C   UNL     1      -6.927  -2.499   2.831  0.00  0.00    +0.048 A 
ATOM     27 CL   UNL     1      -7.600  -1.044   2.164  0.00  0.00    -0.083 Cl
ATOM     28  F   UNL     1      -5.965  -5.831   1.758  0.00  0.00    -0.205 F 
ENDBRANCH  20  21
ENDBRANCH   5  20
TORSDOF 3
