REMARK  Name = ZINC22683877
REMARK  11 active torsions:
REMARK  status: ('A' for Active; 'I' for Inactive)
REMARK    1  A    between atoms: C_1  and  C_2
REMARK    2  A    between atoms: C_2  and  C_3
REMARK    3  A    between atoms: C_6  and  C_9
REMARK    4  A    between atoms: C_9  and  C_11
REMARK    5  A    between atoms: C_9  and  N_30
REMARK    6  A    between atoms: C_11  and  N_12
REMARK    7  A    between atoms: C_13  and  C_15
REMARK    8  A    between atoms: C_15  and  N_16
REMARK    9  A    between atoms: C_24  and  C_26
REMARK   10  A    between atoms: N_30  and  C_31
REMARK   11  A    between atoms: N_30  and  C_32
REMARK                            x       y       z     vdW  Elec       q    Type
REMARK                         _______ _______ _______ _____ _____    ______ ____
ROOT
ATOM      1  N   UNL     1      -3.684  -0.138   6.879  0.00  0.00    -0.315 N 
ATOM      2  C   UNL     1      -3.406  -0.396   5.585  0.00  0.00    +0.231 C 
ATOM      3  O   UNL     1      -2.299  -0.772   5.266  0.00  0.00    -0.274 OA
ATOM      4  H   UNL     1      -4.689   0.204   7.168  0.00  0.00    +0.149 HD
ENDROOT
BRANCH   1   5
ATOM      5  C   UNL     1      -2.647  -0.312   7.899  0.00  0.00    +0.093 C 
BRANCH   5   6
ATOM      6  C   UNL     1      -3.219   0.045   9.273  0.00  0.00    -0.021 C 
BRANCH   6  10
ATOM      7  C   UNL     1      -0.311  -0.794  12.288  0.00  0.00    -0.048 A 
ATOM      8  C   UNL     1      -0.803   0.489  12.140  0.00  0.00    +0.004 A 
ATOM      9  C   UNL     1      -1.744   0.761  11.164  0.00  0.00    +0.002 A 
ATOM     10  C   UNL     1      -2.193  -0.251  10.336  0.00  0.00    -0.059 A 
ATOM     11  C   UNL     1      -1.705  -1.535  10.487  0.00  0.00    +0.002 A 
ATOM     12  C   UNL     1      -0.760  -1.806  11.460  0.00  0.00    +0.004 A 
BRANCH   7  14
ATOM     13  C   UNL     1       0.005  -1.488  14.647  0.00  0.00    +0.009 C 
ATOM     14  C   UNL     1       0.714  -1.090  13.351  0.00  0.00    +0.032 C 
ENDBRANCH   7  14
ENDBRANCH   6  10
BRANCH   6  15
ATOM     15  N   UNL     1      -4.427  -0.752   9.523  0.00  0.00    +0.382 N 
ATOM     16  C   UNL     1      -4.335  -2.066   8.871  0.00  0.00    -0.096 C 
ATOM     17  C   UNL     1      -4.674  -0.896  10.964  0.00  0.00    -0.096 C 
ATOM     18  H   UNL     1      -5.282  -0.217   9.085  0.00  0.00    -0.082 HD
ENDBRANCH   6  15
ENDBRANCH   5   6
ENDBRANCH   1   5
BRANCH   2  19
ATOM     19  C   UNL     1      -4.473  -0.216   4.536  0.00  0.00    +0.213 C 
BRANCH  19  20
ATOM     20  N   UNL     1      -3.926  -0.558   3.220  0.00  0.00    -0.215 N 
ATOM     21  C   UNL     1      -3.324   0.325   2.397  0.00  0.00    +0.247 C 
ATOM     22  O   UNL     1      -3.138   1.506   2.596  0.00  0.00    -0.273 OA
ATOM     23  C   UNL     1      -2.928  -0.470   1.174  0.00  0.00    +0.115 C 
ATOM     24  C   UNL     1      -3.629   0.077  -0.066  0.00  0.00    +0.035 C 
ATOM     25  C   UNL     1      -3.241  -0.764  -1.285  0.00  0.00    +0.003 C 
ATOM     26  C   UNL     1      -1.723  -0.717  -1.474  0.00  0.00    +0.000 C 
ATOM     27  C   UNL     1      -1.034  -1.287  -0.232  0.00  0.00    +0.006 C 
ATOM     28  C   UNL     1      -1.414  -0.448   0.991  0.00  0.00    +0.018 C 
ATOM     29  C   UNL     1      -0.742  -1.030   2.237  0.00  0.00    +0.010 C 
ATOM     30  N   UNL     1      -3.391  -1.832   1.468  0.00  0.00    -0.285 N 
ATOM     31  C   UNL     1      -3.962  -1.785   2.687  0.00  0.00    +0.310 C 
ATOM     32  O   UNL     1      -4.454  -2.749   3.240  0.00  0.00    -0.252 OA
ATOM     33  H   UNL     1      -3.232  -2.637   0.735  0.00  0.00    +0.151 HD
ENDBRANCH  19  20
ENDBRANCH   2  19
TORSDOF 7
