REMARK  Name = ZINC06937727
REMARK  9 active torsions:
REMARK  status: ('A' for Active; 'I' for Inactive)
REMARK    1  A    between atoms: C_1  and  C_2
REMARK    2  A    between atoms: C_2  and  N_52
REMARK    3  A    between atoms: C_3  and  C_4
REMARK    4  A    between atoms: C_3  and  N_52
REMARK    5  A    between atoms: C_5  and  C_6
REMARK    6  A    between atoms: C_5  and  N_52
REMARK    7  A    between atoms: C_6  and  C_7
REMARK    8  A    between atoms: C_7  and  N_8
REMARK    9  A    between atoms: C_9  and  C_24
REMARK                            x       y       z     vdW  Elec       q    Type
REMARK                         _______ _______ _______ _____ _____    ______ ____
ROOT
ATOM      1  N   UNL     1       2.705   4.130  -0.891  0.00  0.00    -0.281 N 
ATOM      2  C   UNL     1       1.553   4.342  -0.005  0.00  0.00    +0.180 C 
ATOM      3  C   UNL     1       2.123   4.557   1.373  0.00  0.00    +0.075 A 
ATOM      4  C   UNL     1       1.502   4.816   2.675  0.00  0.00    +0.199 A 
ATOM      5  O   UNL     1       0.293   4.897   2.802  0.00  0.00    -0.287 OA
ATOM      6  C   UNL     1       2.415   4.975   3.824  0.00  0.00    +0.064 A 
ATOM      7  C   UNL     1       1.932   5.226   5.107  0.00  0.00    +0.015 A 
ATOM      8  C   UNL     1       2.811   5.367   6.145  0.00  0.00    +0.001 A 
ATOM      9  C   UNL     1       4.178   5.263   5.926  0.00  0.00    +0.004 A 
ATOM     10  C   UNL     1       4.673   5.015   4.664  0.00  0.00    +0.047 A 
ATOM     11  C   UNL     1       3.797   4.867   3.592  0.00  0.00    +0.139 A 
ATOM     12  O   UNL     1       4.264   4.626   2.354  0.00  0.00    -0.450 OA
ATOM     13  C   UNL     1       3.472   4.474   1.273  0.00  0.00    +0.199 A 
ATOM     14  C   UNL     1       3.820   4.208  -0.145  0.00  0.00    +0.283 C 
ATOM     15  O   UNL     1       4.951   4.077  -0.570  0.00  0.00    -0.267 OA
ENDROOT
BRANCH   2  16
ATOM     16  C   UNL     1       0.661   3.127  -0.014  0.00  0.00    +0.130 A 
ATOM     17  C   UNL     1      -0.684   3.139  -0.016  0.00  0.00    +0.047 A 
ATOM     18  C   UNL     1      -1.105   1.790  -0.031  0.00  0.00    +0.041 A 
ATOM     19  C   UNL     1       0.008   1.034  -0.029  0.00  0.00    +0.195 A 
ATOM     20  O   UNL     1       1.075   1.849  -0.022  0.00  0.00    -0.466 OA
ENDBRANCH   2  16
BRANCH   1  21
ATOM     21  C   UNL     1       2.648   3.879  -2.333  0.00  0.00    +0.107 C 
BRANCH  21  22
ATOM     22  C   UNL     1       2.697   5.211  -3.085  0.00  0.00    +0.000 C 
BRANCH  22  23
ATOM     23  C   UNL     1       2.637   4.948  -4.591  0.00  0.00    -0.077 C 
BRANCH  23  24
ATOM     24  N   UNL     1       2.542   6.245  -5.294  0.00  0.00    +0.379 N 
ATOM     25  H   UNL     1       1.885   6.851  -4.788  0.00  0.00    -0.082 HD
BRANCH  24  27
ATOM     26  C   UNL     1       3.700   8.324  -5.859  0.00  0.00    -0.017 C 
ATOM     27  C   UNL     1       3.867   6.898  -5.331  0.00  0.00    -0.082 C 
ENDBRANCH  24  27
BRANCH  24  28
ATOM     28  C   UNL     1       2.042   6.038  -6.670  0.00  0.00    -0.082 C 
ATOM     29  C   UNL     1       0.531   5.806  -6.612  0.00  0.00    -0.017 C 
ENDBRANCH  24  28
ENDBRANCH  23  24
ENDBRANCH  22  23
ENDBRANCH  21  22
ENDBRANCH   1  21
TORSDOF 7
