REMARK  Name = ZINC36652257
REMARK  4 active torsions:
REMARK  status: ('A' for Active; 'I' for Inactive)
REMARK    1  A    between atoms: C_1  and  C_2
REMARK    2  A    between atoms: N_5  and  C_8
REMARK    3  A    between atoms: C_8  and  C_9
REMARK    4  A    between atoms: C_15  and  C_17
REMARK                            x       y       z     vdW  Elec       q    Type
REMARK                         _______ _______ _______ _____ _____    ______ ____
ROOT
ATOM      1  C   UNL     1      -0.143  -4.380   2.730  0.00  0.00    +0.034 A 
ATOM      2  C   UNL     1      -0.911  -4.617   3.821  0.00  0.00    +0.070 A 
ATOM      3  S   UNL     1       0.338  -5.073   5.014  0.00  0.00    -0.060 S 
ATOM      4  C   UNL     1       1.682  -4.917   4.014  0.00  0.00    +0.165 A 
ATOM      5  N   UNL     1       1.160  -4.547   2.864  0.00  0.00    -0.231 NA
ATOM      6  N   UNL     1       3.019  -5.132   4.325  0.00  0.00    -0.260 N 
ATOM      7  C   UNL     1       3.368  -5.518   5.568  0.00  0.00    +0.256 C 
ATOM      8  O   UNL     1       2.511  -5.678   6.418  0.00  0.00    -0.269 OA
ATOM      9  H   UNL     1       3.701  -5.004   3.647  0.00  0.00    +0.157 HD
ENDROOT
BRANCH   7  10
ATOM     10  C   UNL     1       4.778  -5.744   5.896  0.00  0.00    +0.074 A 
ATOM     11  C   UNL     1       5.342  -6.145   7.098  0.00  0.00    +0.021 A 
ATOM     12  C   UNL     1       6.710  -6.274   7.101  0.00  0.00    +0.008 A 
ATOM     13  C   UNL     1       7.400  -6.010   5.964  0.00  0.00    +0.046 A 
ATOM     14  S   UNL     1       6.214  -5.584   4.853  0.00  0.00    -0.092 S 
ENDBRANCH   7  10
BRANCH   1  15
ATOM     15  C   UNL     1      -0.750  -3.952   1.419  0.00  0.00    -0.022 C 
BRANCH  15  20
ATOM     16  C   UNL     1      -0.019   1.526   0.010  0.00  0.00    +0.007 C 
ATOM     17  C   UNL     1       0.002  -0.004   0.002  0.00  0.00    -0.018 C 
ATOM     18  C   UNL     1      -1.434  -0.536   0.023  0.00  0.00    -0.016 C 
ATOM     19  C   UNL     1      -1.405  -2.064   0.095  0.00  0.00    -0.078 C 
ATOM     20  N   UNL     1      -0.707  -2.487   1.315  0.00  0.00    +0.383 N 
ATOM     21  C   UNL     1       0.691  -2.042   1.269  0.00  0.00    -0.078 C 
ATOM     22  C   UNL     1       0.743  -0.513   1.242  0.00  0.00    -0.016 C 
ATOM     23  H   UNL     1      -1.162  -2.082   2.119  0.00  0.00    -0.081 HD
ENDBRANCH  15  20
ENDBRANCH   1  15
TORSDOF 3
