REMARK  Name = ZINC13341356
REMARK  5 active torsions:
REMARK  status: ('A' for Active; 'I' for Inactive)
REMARK    1  A    between atoms: C_1  and  C_2
REMARK    2  A    between atoms: C_8  and  N_10
REMARK    3  A    between atoms: N_10  and  S_11
REMARK    4  A    between atoms: S_11  and  C_14
REMARK    5  A    between atoms: C_16  and  C_22
REMARK                            x       y       z     vdW  Elec       q    Type
REMARK                         _______ _______ _______ _____ _____    ______ ____
ROOT
ATOM      1  S   UNL     1       4.270   2.363  -2.710  0.00  0.00    +0.060 S 
ATOM      2  O   UNL     1       3.501   3.260  -3.499  0.00  0.00    -0.153 OA
ATOM      3  O   UNL     1       5.603   2.651  -2.310  0.00  0.00    -0.153 OA
ENDROOT
BRANCH   1   4
ATOM      4  C   UNL     1       4.327   0.838  -3.590  0.00  0.00    +0.124 A 
ATOM      5  C   UNL     1       3.720   0.734  -4.824  0.00  0.00    +0.046 A 
ATOM      6  C   UNL     1       3.766  -0.475  -5.521  0.00  0.00    +0.083 A 
ATOM      7  C   UNL     1       4.428  -1.573  -4.963  0.00  0.00    +0.057 A 
ATOM      8  C   UNL     1       5.032  -1.454  -3.727  0.00  0.00    +0.042 A 
ATOM      9  C   UNL     1       4.987  -0.251  -3.044  0.00  0.00    +0.069 A 
ATOM     10 CL   UNL     1       5.754  -0.108  -1.494  0.00  0.00    -0.081 Cl
ATOM     11 CL   UNL     1       4.491  -3.081  -5.821  0.00  0.00    -0.083 Cl
BRANCH   6  12
ATOM     12  C   UNL     1       3.118  -0.594  -6.842  0.00  0.00    +0.388 C 
ATOM     13  O   UNL     1       3.159  -1.647  -7.446  0.00  0.00    -0.241 OA
ATOM     14  O   UNL     1       2.480   0.465  -7.377  0.00  0.00    -0.241 OA
ENDBRANCH   6  12
ENDBRANCH   1   4
BRANCH   1  15
ATOM     15  N   UNL     1       3.407   2.095  -1.322  0.00  0.00    -0.187 NA
ATOM     16  H   UNL     1       3.844   2.165  -0.458  0.00  0.00    +0.148 HD
BRANCH  15  23
ATOM     17  C   UNL     1       1.405   3.913  -0.284  0.00  0.00    +0.009 C 
ATOM     18  C   UNL     1       1.242   2.393  -0.224  0.00  0.00    +0.005 C 
ATOM     19  C   UNL     1      -0.243   2.035  -0.304  0.00  0.00    +0.005 C 
ATOM     20  C   UNL     1      -0.406   0.515  -0.243  0.00  0.00    +0.000 C 
ATOM     21  C   UNL     1       0.337  -0.125  -1.418  0.00  0.00    +0.002 C 
ATOM     22  C   UNL     1       1.822   0.233  -1.338  0.00  0.00    +0.020 C 
ATOM     23  C   UNL     1       1.985   1.753  -1.399  0.00  0.00    +0.079 C 
ENDBRANCH  15  23
ENDBRANCH   1  15
TORSDOF 4
