REMARK  Name = ZINC39948554
REMARK  7 active torsions:
REMARK  status: ('A' for Active; 'I' for Inactive)
REMARK    1  A    between atoms: C_1  and  C_2
REMARK    2  A    between atoms: C_5  and  C_16
REMARK    3  A    between atoms: C_6  and  C_15
REMARK    4  A    between atoms: N_7  and  C_8
REMARK    5  A    between atoms: N_18  and  N_19
REMARK    6  A    between atoms: C_20  and  C_21
REMARK    7  A    between atoms: C_29  and  C_31
REMARK                            x       y       z     vdW  Elec       q    Type
REMARK                         _______ _______ _______ _____ _____    ______ ____
ROOT
ATOM      1  C   UNL     1      -2.426  -2.399   1.538  0.00  0.00    +0.261 C 
ATOM      2  O   UNL     1      -2.236  -3.284   2.353  0.00  0.00    -0.269 OA
ATOM      3  N   UNL     1      -3.634  -2.269   0.954  0.00  0.00    -0.203 N 
ATOM      4  H   UNL     1      -3.785  -1.565   0.304  0.00  0.00    +0.178 HD
ENDROOT
BRANCH   1   8
ATOM      5  C   UNL     1      -0.173   1.699   0.560  0.00  0.00    +0.029 C 
ATOM      6  C   UNL     1      -0.044   0.217   0.202  0.00  0.00    +0.080 C 
ATOM      7  C   UNL     1      -1.435  -0.443   0.132  0.00  0.00    +0.064 C 
ATOM      8  C   UNL     1      -1.381  -1.510   1.204  0.00  0.00    +0.035 C 
ATOM      9  C   UNL     1      -0.170  -1.467   1.786  0.00  0.00    +0.016 C 
ATOM     10  N   UNL     1       0.651  -0.512   1.272  0.00  0.00    -0.300 N 
ATOM     11  C   UNL     1       0.240  -2.391   2.903  0.00  0.00    +0.061 C 
BRANCH  10  12
ATOM     12  C   UNL     1       1.960  -0.260   1.696  0.00  0.00    +0.034 A 
ATOM     13  C   UNL     1       3.029  -0.530   0.851  0.00  0.00    +0.026 A 
ATOM     14  C   UNL     1       4.320  -0.280   1.272  0.00  0.00    +0.040 A 
ATOM     15  C   UNL     1       4.550   0.239   2.535  0.00  0.00    +0.124 A 
ATOM     16  C   UNL     1       3.485   0.508   3.379  0.00  0.00    +0.040 A 
ATOM     17  C   UNL     1       2.192   0.265   2.961  0.00  0.00    +0.026 A 
ATOM     18  F   UNL     1       5.814   0.482   2.946  0.00  0.00    -0.205 F 
ENDBRANCH  10  12
ENDBRANCH   1   8
BRANCH   3  19
ATOM     19  N   UNL     1      -4.670  -3.152   1.284  0.00  0.00    -0.188 NA
ATOM     20  C   UNL     1      -5.845  -3.025   0.717  0.00  0.00    +0.136 C 
BRANCH  20  21
ATOM     21  C   UNL     1      -6.881  -3.908   1.047  0.00  0.00    +0.003 C 
ATOM     22  C   UNL     1      -6.832  -4.962   1.958  0.00  0.00    +0.005 A 
ATOM     23  C   UNL     1      -5.803  -5.459   2.787  0.00  0.00    +0.010 A 
ATOM     24  C   UNL     1      -6.043  -6.526   3.591  0.00  0.00    +0.001 A 
ATOM     25  C   UNL     1      -7.292  -7.153   3.623  0.00  0.00    +0.002 A 
ATOM     26  C   UNL     1      -8.324  -6.730   2.854  0.00  0.00    +0.026 A 
ATOM     27  C   UNL     1      -8.150  -5.619   1.987  0.00  0.00    +0.043 A 
ATOM     28  N   UNL     1      -8.979  -5.025   1.154  0.00  0.00    -0.377 N 
ATOM     29  C   UNL     1      -8.290  -3.911   0.496  0.00  0.00    +0.109 C 
ATOM     30  C   UNL     1      -8.263  -4.132  -1.018  0.00  0.00    +0.035 C 
ATOM     31  H   UNL     1      -9.902  -5.282   1.002  0.00  0.00    +0.160 HD
ENDBRANCH  20  21
ENDBRANCH   3  19
TORSDOF 4
