REMARK  Name = ZINC15947171
REMARK  6 active torsions:
REMARK  status: ('A' for Active; 'I' for Inactive)
REMARK    1  A    between atoms: C_1  and  C_2
REMARK    2  A    between atoms: C_2  and  N_51
REMARK    3  A    between atoms: C_13  and  C_16
REMARK    4  A    between atoms: C_20  and  O_22
REMARK    5  A    between atoms: O_22  and  C_23
REMARK    6  A    between atoms: C_23  and  C_25
REMARK                            x       y       z     vdW  Elec       q    Type
REMARK                         _______ _______ _______ _____ _____    ______ ____
ROOT
ATOM      1  C   UNL     1      -3.460  -1.128  -0.513  0.00  0.00    -0.074 C 
ATOM      2  C   UNL     1      -2.497  -0.018  -0.084  0.00  0.00    +0.018 C 
ATOM      3  C   UNL     1      -1.073  -0.553  -0.194  0.00  0.00    -0.027 A 
ATOM      4  C   UNL     1      -0.856  -1.887  -0.266  0.00  0.00    -0.021 A 
ATOM      5  S   UNL     1       0.903  -2.058  -0.386  0.00  0.00    -0.080 S 
ATOM      6  C   UNL     1       1.337  -0.402  -0.342  0.00  0.00    +0.080 A 
ATOM      7  C   UNL     1       0.115   0.281  -0.231  0.00  0.00    +0.068 A 
ATOM      8  C   UNL     1       0.162   1.760  -0.162  0.00  0.00    +0.248 C 
ATOM      9  O   UNL     1      -0.855   2.428  -0.184  0.00  0.00    -0.270 OA
ATOM     10  N   UNL     1       1.379   2.337  -0.081  0.00  0.00    -0.289 N 
ATOM     11  C   UNL     1       2.607   1.593   0.184  0.00  0.00    +0.190 C 
ATOM     12  N   UNL     1       2.547   0.239  -0.397  0.00  0.00    -0.316 N 
ATOM     13  C   UNL     1      -1.899  -2.960  -0.244  0.00  0.00    -0.035 C 
ATOM     14  H   UNL     1       1.442   3.297  -0.204  0.00  0.00    +0.151 HD
ATOM     15  H   UNL     1       3.326  -0.178  -0.798  0.00  0.00    +0.149 HD
ATOM     16  N   UNL     1      -3.161  -2.358   0.249  0.00  0.00    +0.383 N 
ATOM     17  H   UNL     1      -3.052  -2.118   1.241  0.00  0.00    -0.081 HD
ENDROOT
BRANCH  11  18
ATOM     18  C   UNL     1       2.805   1.482   1.673  0.00  0.00    -0.006 A 
ATOM     19  C   UNL     1       3.488   0.402   2.201  0.00  0.00    +0.007 A 
ATOM     20  C   UNL     1       3.677   0.301   3.567  0.00  0.00    +0.004 A 
ATOM     21  C   UNL     1       3.173   1.274   4.409  0.00  0.00    +0.046 A 
ATOM     22  C   UNL     1       2.483   2.356   3.883  0.00  0.00    +0.132 A 
ATOM     23  C   UNL     1       2.300   2.458   2.511  0.00  0.00    +0.053 A 
BRANCH  22  24
ATOM     24  O   UNL     1       1.988   3.314   4.709  0.00  0.00    -0.422 OA
BRANCH  24  25
ATOM     25  C   UNL     1       0.648   3.401   4.846  0.00  0.00    +0.351 C 
ATOM     26  O   UNL     1      -0.072   2.571   4.324  0.00  0.00    -0.244 OA
BRANCH  25  27
ATOM     27  C   UNL     1       0.062   4.494   5.624  0.00  0.00    +0.097 A 
ATOM     28  C   UNL     1      -1.274   4.763   5.885  0.00  0.00    +0.022 A 
ATOM     29  C   UNL     1      -1.551   5.867   6.651  0.00  0.00    +0.008 A 
ATOM     30  C   UNL     1      -0.524   6.630   7.110  0.00  0.00    +0.046 A 
ATOM     31  S   UNL     1       0.879   5.823   6.489  0.00  0.00    -0.090 S 
ENDBRANCH  25  27
ENDBRANCH  24  25
ENDBRANCH  22  24
ENDBRANCH  11  18
BRANCH  16  33
ATOM     32  C   UNL     1      -4.040  -4.490   1.070  0.00  0.00    -0.017 C 
ATOM     33  C   UNL     1      -4.272  -3.324   0.107  0.00  0.00    -0.082 C 
ENDBRANCH  16  33
TORSDOF 5
