REMARK  Name = ZINC08237573
REMARK  5 active torsions:
REMARK  status: ('A' for Active; 'I' for Inactive)
REMARK    1  A    between atoms: C_1  and  C_2
REMARK    2  A    between atoms: C_2  and  C_4
REMARK    3  A    between atoms: C_2  and  N_13
REMARK    4  A    between atoms: C_14  and  C_16
REMARK    5  A    between atoms: C_21  and  N_22
REMARK                            x       y       z     vdW  Elec       q    Type
REMARK                         _______ _______ _______ _____ _____    ______ ____
ROOT
ATOM      1  N   UNL     1      -2.815   0.012   0.399  0.00  0.00    -0.302 N 
ATOM      2  C   UNL     1      -2.663   1.339   0.223  0.00  0.00    +0.247 C 
ATOM      3  O   UNL     1      -3.640   2.059   0.151  0.00  0.00    -0.270 OA
ATOM      4  H   UNL     1      -2.035  -0.562   0.457  0.00  0.00    +0.150 HD
ENDROOT
BRANCH   2   5
ATOM      5  C   UNL     1      -1.308   1.920   0.116  0.00  0.00    +0.067 A 
ATOM      6  C   UNL     1      -0.190   1.085   0.061  0.00  0.00    +0.017 A 
ATOM      7  C   UNL     1       1.071   1.633  -0.044  0.00  0.00    +0.021 A 
ATOM      8  C   UNL     1       1.230   3.008  -0.090  0.00  0.00    +0.043 A 
ATOM      9  C   UNL     1       0.126   3.841  -0.029  0.00  0.00    +0.053 A 
ATOM     10  C   UNL     1      -1.141   3.305   0.075  0.00  0.00    +0.140 A 
ATOM     11 CL   UNL     1       2.821   3.690  -0.222  0.00  0.00    -0.083 Cl
BRANCH  10  12
ATOM     12  N   UNL     1      -2.321   4.197   0.139  0.00  0.00    +0.057 N 
ATOM     13  O   UNL     1      -2.462   5.079  -0.688  0.00  0.00    -0.126 OA
ATOM     14  O   UNL     1      -3.149   4.048   1.019  0.00  0.00    -0.126 OA
ENDBRANCH  10  12
ENDBRANCH   2   5
BRANCH   1  16
ATOM     15  C   UNL     1      -4.643  -0.464   1.953  0.00  0.00    +0.036 C 
ATOM     16  C   UNL     1      -4.158  -0.564   0.505  0.00  0.00    +0.136 C 
BRANCH  16  17
ATOM     17  C   UNL     1      -4.118  -2.011   0.087  0.00  0.00    +0.126 A 
ATOM     18  C   UNL     1      -5.058  -2.624  -0.646  0.00  0.00    +0.055 A 
ATOM     19  C   UNL     1      -4.609  -4.012  -0.809  0.00  0.00    +0.020 A 
ATOM     20  C   UNL     1      -5.127  -5.135  -1.452  0.00  0.00    +0.011 A 
ATOM     21  C   UNL     1      -4.438  -6.316  -1.414  0.00  0.00    +0.001 A 
ATOM     22  C   UNL     1      -3.230  -6.403  -0.738  0.00  0.00    +0.004 A 
ATOM     23  C   UNL     1      -2.703  -5.303  -0.096  0.00  0.00    +0.047 A 
ATOM     24  C   UNL     1      -3.386  -4.094  -0.123  0.00  0.00    +0.135 A 
ATOM     25  O   UNL     1      -3.132  -2.873   0.391  0.00  0.00    -0.458 OA
ENDBRANCH  16  17
ENDBRANCH   1  16
TORSDOF 4
