REMARK  Name = ZINC56083853
REMARK  5 active torsions:
REMARK  status: ('A' for Active; 'I' for Inactive)
REMARK    1  A    between atoms: C_1  and  C_2
REMARK    2  A    between atoms: C_5  and  C_8
REMARK    3  A    between atoms: C_9  and  C_10
REMARK    4  A    between atoms: C_9  and  C_12
REMARK    5  A    between atoms: C_18  and  C_21
REMARK                            x       y       z     vdW  Elec       q    Type
REMARK                         _______ _______ _______ _____ _____    ______ ____
ROOT
ATOM      1  C   UNL     1       0.308  -6.396   1.137  0.00  0.00    +0.257 C 
ATOM      2  O   UNL     1       0.665  -6.934   0.106  0.00  0.00    -0.269 OA
ATOM      3  N   UNL     1       0.324  -7.084   2.296  0.00  0.00    -0.296 N 
ATOM      4  C   UNL     1       0.315  -6.379   3.585  0.00  0.00    +0.108 C 
ATOM      5  C   UNL     1       1.494  -6.878   4.427  0.00  0.00    +0.020 C 
ATOM      6  C   UNL     1       1.424  -8.402   4.544  0.00  0.00    +0.016 C 
ATOM      7  C   UNL     1       1.527  -9.027   3.151  0.00  0.00    +0.093 C 
ATOM      8  C   UNL     1       0.343  -8.553   2.294  0.00  0.00    +0.120 C 
ENDROOT
BRANCH   7   9
ATOM      9  C   UNL     1       1.491 -10.529   3.270  0.00  0.00    +0.223 C 
ATOM     10  O   UNL     1       1.392 -11.049   4.361  0.00  0.00    -0.275 OA
ATOM     11  N   UNL     1       1.568 -11.295   2.163  0.00  0.00    -0.264 N 
ATOM     12  C   UNL     1       1.535 -12.680   2.273  0.00  0.00    +0.164 A 
ATOM     13  N   UNL     1       1.427 -13.412   3.361  0.00  0.00    -0.233 NA
ATOM     14  C   UNL     1       1.410 -14.730   3.298  0.00  0.00    +0.120 A 
ATOM     15  C   UNL     1       1.508 -15.289   2.067  0.00  0.00    +0.068 A 
ATOM     16  S   UNL     1       1.615 -13.829   1.046  0.00  0.00    -0.061 S 
ATOM     17  H   UNL     1       1.647 -10.879   1.290  0.00  0.00    +0.157 HD
ENDBRANCH   7   9
BRANCH   1  19
ATOM     18  C   UNL     1       0.006  -4.244  -0.014  0.00  0.00    +0.032 C 
ATOM     19  C   UNL     1      -0.141  -4.994   1.119  0.00  0.00    +0.114 C 
BRANCH  18  24
ATOM     20  C   UNL     1      -2.364   0.980  -0.328  0.00  0.00    +0.044 C 
ATOM     21  C   UNL     1      -1.742  -0.391  -0.246  0.00  0.00    -0.050 A 
ATOM     22  C   UNL     1      -0.554  -0.648  -0.908  0.00  0.00    +0.004 A 
ATOM     23  C   UNL     1       0.021  -1.899  -0.838  0.00  0.00    +0.008 A 
ATOM     24  C   UNL     1      -0.599  -2.910  -0.094  0.00  0.00    -0.024 A 
ATOM     25  C   UNL     1      -1.801  -2.640   0.574  0.00  0.00    +0.008 A 
ATOM     26  C   UNL     1      -2.360  -1.383   0.497  0.00  0.00    +0.004 A 
ENDBRANCH  18  24
BRANCH  19  27
ATOM     27  C   UNL     1      -0.731  -4.416   2.288  0.00  0.00    +0.104 C 
ATOM     28  N   UNL     1      -1.199  -3.958   3.216  0.00  0.00    -0.191 NA
ENDBRANCH  19  27
ENDBRANCH   1  19
TORSDOF 4
