REMARK  Name = ZINC20612080
REMARK  5 active torsions:
REMARK  status: ('A' for Active; 'I' for Inactive)
REMARK    1  A    between atoms: C_1  and  C_2
REMARK    2  A    between atoms: C_19  and  C_21
REMARK    3  A    between atoms: C_21  and  N_22
REMARK    4  A    between atoms: N_25  and  C_28
REMARK    5  A    between atoms: C_28  and  C_29
REMARK                            x       y       z     vdW  Elec       q    Type
REMARK                         _______ _______ _______ _____ _____    ______ ____
ROOT
ATOM      1  C   UNL     1      -3.853   3.648  -4.316  0.00  0.00    -0.064 C 
ENDROOT
BRANCH   1  17
ATOM      2  C   UNL     1      -2.704   3.371   0.109  0.00  0.00    +0.012 C 
ATOM      3  C   UNL     1      -2.883   1.855   0.004  0.00  0.00    -0.022 C 
ATOM      4  C   UNL     1      -2.213   1.175   1.197  0.00  0.00    +0.007 C 
ATOM      5  C   UNL     1      -0.736   1.583   1.264  0.00  0.00    +0.005 C 
ATOM      6  C   UNL     1      -0.013   1.086   0.008  0.00  0.00    +0.030 C 
ATOM      7  C   UNL     1      -0.751   1.590  -1.213  0.00  0.00    -0.073 C 
ATOM      8  C   UNL     1      -0.117   2.219  -2.172  0.00  0.00    +0.008 C 
ATOM      9  C   UNL     1      -2.240   1.347  -1.294  0.00  0.00    +0.021 C 
ATOM     10  C   UNL     1      -2.837   2.134  -2.458  0.00  0.00    +0.016 C 
ATOM     11  C   UNL     1      -4.341   1.874  -2.567  0.00  0.00    +0.042 C 
ATOM     12  C   UNL     1      -5.049   2.142  -1.226  0.00  0.00    +0.181 C 
ATOM     13  C   UNL     1      -4.369   1.501  -0.040  0.00  0.00    +0.052 C 
ATOM     14  O   UNL     1      -5.090   3.596  -1.147  0.00  0.00    -0.461 OA
ATOM     15  C   UNL     1      -5.391   4.053  -2.383  0.00  0.00    +0.309 C 
ATOM     16  O   UNL     1      -5.941   5.101  -2.627  0.00  0.00    -0.251 OA
ATOM     17  C   UNL     1      -4.930   3.041  -3.415  0.00  0.00    +0.088 C 
ENDBRANCH   1  17
BRANCH   1  18
ATOM     18  N   UNL     1      -4.441   4.725  -5.125  0.00  0.00    +0.382 N 
ATOM     19  C   UNL     1      -5.428   4.191  -6.075  0.00  0.00    -0.063 C 
ATOM     20  C   UNL     1      -6.073   5.348  -6.840  0.00  0.00    +0.066 C 
ATOM     21  N   UNL     1      -5.030   6.111  -7.541  0.00  0.00    -0.302 NA
ATOM     22  C   UNL     1      -4.044   6.644  -6.591  0.00  0.00    +0.066 C 
ATOM     23  C   UNL     1      -3.399   5.487  -5.826  0.00  0.00    -0.063 C 
ATOM     24  H   UNL     1      -4.964   5.411  -4.443  0.00  0.00    -0.082 HD
BRANCH  21  25
ATOM     25  C   UNL     1      -5.619   7.187  -8.350  0.00  0.00    +0.119 C 
BRANCH  25  26
ATOM     26  C   UNL     1      -6.433   6.588  -9.467  0.00  0.00    -0.030 A 
ATOM     27  C   UNL     1      -7.774   6.314  -9.274  0.00  0.00    +0.009 A 
ATOM     28  C   UNL     1      -8.525   5.764 -10.296  0.00  0.00    +0.050 A 
ATOM     29  C   UNL     1      -7.935   5.487 -11.519  0.00  0.00    +0.166 A 
ATOM     30  C   UNL     1      -6.584   5.763 -11.714  0.00  0.00    +0.167 A 
ATOM     31  C   UNL     1      -5.838   6.318 -10.686  0.00  0.00    +0.054 A 
ATOM     32  O   UNL     1      -6.244   5.405 -12.986  0.00  0.00    -0.453 OA
ATOM     33  C   UNL     1      -7.298   4.531 -13.433  0.00  0.00    +0.466 C 
ATOM     34  O   UNL     1      -8.442   4.956 -12.669  0.00  0.00    -0.453 OA
ENDBRANCH  25  26
ENDBRANCH  21  25
ENDBRANCH   1  18
TORSDOF 4
