REMARK  Name = ZINC63067917
REMARK  8 active torsions:
REMARK  status: ('A' for Active; 'I' for Inactive)
REMARK    1  A    between atoms: C_1  and  O_2
REMARK    2  A    between atoms: O_2  and  C_3
REMARK    3  A    between atoms: C_6  and  C_9
REMARK    4  A    between atoms: C_12  and  C_24
REMARK    5  A    between atoms: N_15  and  C_16
REMARK    6  A    between atoms: N_26  and  C_27
REMARK    7  A    between atoms: C_27  and  C_28
REMARK    8  A    between atoms: C_28  and  C_29
REMARK                            x       y       z     vdW  Elec       q    Type
REMARK                         _______ _______ _______ _____ _____    ______ ____
ROOT
ATOM      1  C   UNL     1       2.587  -2.550   4.310  0.00  0.00    +0.105 C 
ATOM      2  C   UNL     1       1.547  -3.124   5.307  0.00  0.00    +0.054 C 
ATOM      3  C   UNL     1       2.355  -4.279   5.955  0.00  0.00    +0.157 C 
ATOM      4  N   UNL     1       3.181  -4.797   4.843  0.00  0.00    -0.241 NA
ATOM      5  N   UNL     1       3.325  -3.744   3.842  0.00  0.00    -0.230 NA
ATOM      6  H   UNL     1       4.083  -5.104   5.175  0.00  0.00    +0.142 HD
ENDROOT
BRANCH   5   7
ATOM      7  C   UNL     1       4.740  -3.428   3.605  0.00  0.00    +0.096 C 
ATOM      8  C   UNL     1       5.459  -4.661   3.034  0.00  0.00    +0.044 C 
ATOM      9  C   UNL     1       6.992  -4.448   3.082  0.00  0.00    +0.167 C 
ATOM     10  S   UNL     1       7.196  -3.307   4.509  0.00  0.00    -0.029 S 
ATOM     11  O   UNL     1       7.742  -2.080   4.045  0.00  0.00    -0.174 OA
ATOM     12  O   UNL     1       7.839  -4.002   5.569  0.00  0.00    -0.174 OA
ATOM     13  C   UNL     1       5.426  -3.047   4.948  0.00  0.00    +0.186 C 
ENDBRANCH   5   7
BRANCH   1  17
ATOM     14  C   UNL     1       0.626  -0.618   1.042  0.00  0.00    +0.120 A 
ATOM     15  C   UNL     1       1.202   0.138   2.051  0.00  0.00    +0.046 A 
ATOM     16  C   UNL     1       1.835  -0.488   3.107  0.00  0.00    +0.009 A 
ATOM     17  C   UNL     1       1.895  -1.869   3.158  0.00  0.00    -0.029 A 
ATOM     18  C   UNL     1       1.322  -2.625   2.152  0.00  0.00    +0.009 A 
ATOM     19  C   UNL     1       0.682  -2.003   1.098  0.00  0.00    +0.046 A 
BRANCH  14  21
ATOM     20  C   UNL     1      -0.017   1.425   0.010  0.00  0.00    +0.277 C 
ATOM     21  O   UNL     1       0.002  -0.004   0.002  0.00  0.00    -0.495 OA
ENDBRANCH  14  21
ENDBRANCH   1  17
BRANCH   3  22
ATOM     22  C   UNL     1       1.427  -5.348   6.473  0.00  0.00    +0.231 C 
ATOM     23  O   UNL     1       1.243  -6.356   5.826  0.00  0.00    -0.274 OA
ATOM     24  N   UNL     1       0.803  -5.183   7.657  0.00  0.00    -0.314 N 
ATOM     25  H   UNL     1       0.951  -4.376   8.175  0.00  0.00    +0.149 HD
BRANCH  24  26
ATOM     26  C   UNL     1      -0.098  -6.222   8.160  0.00  0.00    +0.108 C 
BRANCH  26  27
ATOM     27  C   UNL     1      -0.671  -5.790   9.511  0.00  0.00    +0.065 C 
BRANCH  27  28
ATOM     28  C   UNL     1      -1.612  -6.875  10.037  0.00  0.00    +0.175 C 
ATOM     29  N   UNL     1      -2.754  -7.037   9.128  0.00  0.00    -0.363 N 
ATOM     30  C   UNL     1      -3.833  -6.765   9.804  0.00  0.00    +0.060 A 
ATOM     31  C   UNL     1      -5.258  -6.751   9.447  0.00  0.00    +0.027 A 
ATOM     32  C   UNL     1      -6.174  -6.422  10.379  0.00  0.00    +0.002 A 
ATOM     33  C   UNL     1      -5.825  -6.085  11.699  0.00  0.00    +0.002 A 
ATOM     34  C   UNL     1      -4.548  -6.066  12.131  0.00  0.00    +0.027 A 
ATOM     35  C   UNL     1      -3.463  -6.409  11.201  0.00  0.00    +0.060 A 
ATOM     36  N   UNL     1      -2.170  -6.474  11.335  0.00  0.00    -0.363 N 
ATOM     37  H   UNL     1      -2.711  -7.297   8.194  0.00  0.00    +0.162 HD
ATOM     38  H   UNL     1      -1.667  -6.290  12.144  0.00  0.00    +0.162 HD
ENDBRANCH  27  28
ENDBRANCH  26  27
ENDBRANCH  24  26
ENDBRANCH   3  22
TORSDOF 7
