REMARK  Name = ZINC40135611
REMARK  5 active torsions:
REMARK  status: ('A' for Active; 'I' for Inactive)
REMARK    1  A    between atoms: C_10  and  C_11
REMARK    2  A    between atoms: C_14  and  N_17
REMARK    3  A    between atoms: C_18  and  C_20
REMARK    4  A    between atoms: C_20  and  O_21
REMARK    5  A    between atoms: O_21  and  C_22
REMARK                            x       y       z     vdW  Elec       q    Type
REMARK                         _______ _______ _______ _____ _____    ______ ____
ROOT
ATOM      1  C   UNL     1       4.948   0.138  -0.044  0.00  0.00    +0.184 A 
ATOM      2  N   UNL     1       6.173  -0.399   0.036  0.00  0.00    -0.190 NA
ATOM      3  H   UNL     1       6.832   2.628  -0.153  0.00  0.00    +0.192 HD
ATOM      4  C   UNL     1       7.080   0.557   0.001  0.00  0.00    +0.250 A 
ATOM      5  N   UNL     1       6.429   1.747  -0.106  0.00  0.00    -0.243 N 
ATOM      6  N   UNL     1       5.058   1.446  -0.138  0.00  0.00    -0.151 NA
ENDROOT
BRANCH   1  16
ATOM      7  C   UNL     1       0.482   0.546   2.410  0.00  0.00    +0.001 A 
ATOM      8  C   UNL     1       1.671   1.274   2.418  0.00  0.00    +0.001 A 
ATOM      9  C   UNL     1       2.720   0.910   1.630  0.00  0.00    +0.009 A 
ATOM     10  C   UNL     1       2.606  -0.212   0.796  0.00  0.00    -0.007 A 
ATOM     11  C   UNL     1       1.399  -0.953   0.786  0.00  0.00    -0.017 A 
ATOM     12  C   UNL     1       0.337  -0.548   1.614  0.00  0.00    +0.008 A 
ATOM     13  C   UNL     1       1.284  -2.078  -0.048  0.00  0.00    +0.008 A 
ATOM     14  C   UNL     1       2.328  -2.450  -0.840  0.00  0.00    +0.001 A 
ATOM     15  C   UNL     1       3.519  -1.734  -0.841  0.00  0.00    +0.012 A 
ATOM     16  C   UNL     1       3.675  -0.620  -0.036  0.00  0.00    +0.029 A 
ENDBRANCH   1  16
BRANCH   4  17
ATOM     17  N   UNL     1       8.431   0.384   0.061  0.00  0.00    -0.173 NA
ATOM     18  C   UNL     1       8.930  -0.815   0.163  0.00  0.00    +0.287 C 
ATOM     19  O   UNL     1       8.112  -1.883   0.209  0.00  0.00    -0.267 OA
BRANCH  18  20
ATOM     20  C   UNL     1      10.424  -1.006   0.230  0.00  0.00    +0.329 C 
BRANCH  20  21
ATOM     21  O   UNL     1      11.070   0.267   0.163  0.00  0.00    -0.481 OA
BRANCH  21  22
ATOM     22  C   UNL     1      12.429   0.272   0.211  0.00  0.00    +0.140 A 
ATOM     23  C   UNL     1      13.125  -0.923   0.314  0.00  0.00    +0.050 A 
ATOM     24  C   UNL     1      14.505  -0.917   0.362  0.00  0.00    +0.042 A 
ATOM     25  C   UNL     1      15.195   0.282   0.308  0.00  0.00    +0.125 A 
ATOM     26  C   UNL     1      14.503   1.477   0.205  0.00  0.00    +0.062 A 
ATOM     27  C   UNL     1      13.122   1.473   0.151  0.00  0.00    +0.085 A 
ATOM     28 CL   UNL     1      12.254   2.970   0.016  0.00  0.00    -0.080 Cl
ATOM     29  F   UNL     1      16.546   0.287   0.355  0.00  0.00    -0.205 F 
ENDBRANCH  21  22
ENDBRANCH  20  21
ENDBRANCH  18  20
ENDBRANCH   4  17
TORSDOF 5
