REMARK  Name = ZINC09941047
REMARK  8 active torsions:
REMARK  status: ('A' for Active; 'I' for Inactive)
REMARK    1  A    between atoms: C_1  and  C_2
REMARK    2  A    between atoms: C_3  and  C_15
REMARK    3  A    between atoms: N_6  and  C_7
REMARK    4  A    between atoms: C_21  and  C_23
REMARK    5  A    between atoms: C_26  and  C_29
REMARK    6  A    between atoms: C_29  and  C_30
REMARK    7  A    between atoms: C_29  and  C_31
REMARK    8  A    between atoms: C_29  and  C_32
REMARK                            x       y       z     vdW  Elec       q    Type
REMARK                         _______ _______ _______ _____ _____    ______ ____
ROOT
ATOM      1  C   UNL     1      -0.029   0.044  -0.075  0.00  0.00    +0.192 A 
ATOM      2  N   UNL     1       1.143  -0.563  -0.069  0.00  0.00    -0.202 NA
ATOM      3  C   UNL     1       2.240   0.176  -0.116  0.00  0.00    +0.185 A 
ATOM      4  S   UNL     1       1.583   1.780  -0.172  0.00  0.00    +0.050 S 
ATOM      5  N   UNL     1      -0.076   1.361  -0.129  0.00  0.00    -0.186 NA
ATOM      6  N   UNL     1       3.567  -0.227  -0.120  0.00  0.00    -0.259 N 
ATOM      7  C   UNL     1       4.551   0.693  -0.174  0.00  0.00    +0.250 C 
ATOM      8  O   UNL     1       4.274   1.876  -0.218  0.00  0.00    -0.270 OA
ATOM      9  H   UNL     1       3.787  -1.171  -0.085  0.00  0.00    +0.157 HD
ENDROOT
BRANCH   1  12
ATOM     10  C   UNL     1      -2.927   1.217  -0.078  0.00  0.00    +0.068 C 
ATOM     11  C   UNL     1      -2.545  -0.239  -0.024  0.00  0.00    +0.073 A 
ATOM     12  C   UNL     1      -1.282  -0.749  -0.023  0.00  0.00    +0.153 A 
ATOM     13  N   UNL     1      -1.360  -2.087   0.028  0.00  0.00    -0.126 NA
ATOM     14  N   UNL     1      -2.594  -2.451   0.069  0.00  0.00    -0.060 NA
ATOM     15  N   UNL     1      -3.394  -1.300   0.034  0.00  0.00    -0.214 N 
BRANCH  15  16
ATOM     16  C   UNL     1      -4.797  -1.253   0.054  0.00  0.00    +0.103 A 
ATOM     17  C   UNL     1      -5.479  -0.452  -0.851  0.00  0.00    +0.033 A 
ATOM     18  C   UNL     1      -6.859  -0.410  -0.833  0.00  0.00    +0.040 A 
ATOM     19  C   UNL     1      -7.564  -1.157   0.096  0.00  0.00    +0.126 A 
ATOM     20  C   UNL     1      -6.888  -1.954   1.004  0.00  0.00    +0.078 A 
ATOM     21  C   UNL     1      -5.505  -2.003   0.986  0.00  0.00    +0.151 A 
ATOM     22  F   UNL     1      -4.845  -2.780   1.872  0.00  0.00    -0.203 F 
ATOM     23  F   UNL     1      -8.914  -1.110   0.115  0.00  0.00    -0.205 F 
ENDBRANCH  15  16
ENDBRANCH   1  12
BRANCH   7  24
ATOM     24  C   UNL     1       5.965   0.264  -0.178  0.00  0.00    +0.037 A 
ATOM     25  C   UNL     1       6.285  -1.094  -0.122  0.00  0.00    +0.013 A 
ATOM     26  C   UNL     1       7.607  -1.488  -0.132  0.00  0.00    +0.005 A 
ATOM     27  C   UNL     1       8.615  -0.541  -0.186  0.00  0.00    -0.042 A 
ATOM     28  C   UNL     1       8.304   0.806  -0.237  0.00  0.00    +0.005 A 
ATOM     29  C   UNL     1       6.986   1.214  -0.233  0.00  0.00    +0.013 A 
BRANCH  27  30
ATOM     30  C   UNL     1      10.057  -0.979  -0.190  0.00  0.00    -0.013 C 
ATOM     31  C   UNL     1      10.773  -0.386   1.025  0.00  0.00    +0.015 C 
ATOM     32  C   UNL     1      10.126  -2.506  -0.128  0.00  0.00    +0.015 C 
ATOM     33  C   UNL     1      10.735  -0.489  -1.471  0.00  0.00    +0.015 C 
ENDBRANCH  27  30
ENDBRANCH   7  24
TORSDOF 4
