REMARK  Name = ZINC63596791
REMARK  3 active torsions:
REMARK  status: ('A' for Active; 'I' for Inactive)
REMARK    1  A    between atoms: C_3  and  C_6
REMARK    2  A    between atoms: C_6  and  N_7
REMARK    3  A    between atoms: C_8  and  C_10
REMARK                            x       y       z     vdW  Elec       q    Type
REMARK                         _______ _______ _______ _____ _____    ______ ____
ROOT
ATOM      1  C   UNL     1       5.944   0.555   2.996  0.00  0.00    +0.205 C 
ATOM      2  C   UNL     1       7.324  -0.112   3.074  0.00  0.00    +0.142 A 
ATOM      3  N   UNL     1       7.518  -1.376   2.742  0.00  0.00    -0.193 NA
ATOM      4  C   UNL     1       8.708  -1.987   2.799  0.00  0.00    +0.281 A 
ATOM      5  O   UNL     1       8.836  -3.156   2.480  0.00  0.00    -0.265 OA
ATOM      6  C   UNL     1       9.857  -1.189   3.262  0.00  0.00    +0.066 A 
ATOM      7  C   UNL     1      11.140  -1.724   3.359  0.00  0.00    +0.035 A 
ATOM      8  C   UNL     1      12.172  -0.921   3.800  0.00  0.00    +0.042 A 
ATOM      9  C   UNL     1      11.936   0.404   4.142  0.00  0.00    +0.022 A 
ATOM     10  C   UNL     1      10.669   0.941   4.048  0.00  0.00    +0.028 A 
ATOM     11  C   UNL     1       9.620   0.145   3.606  0.00  0.00    +0.062 A 
ATOM     12  N   UNL     1       8.322   0.684   3.507  0.00  0.00    -0.284 N 
ATOM     13  C   UNL     1       8.093   1.990   3.845  0.00  0.00    +0.128 C 
ATOM     14  S   UNL     1       9.237   3.133   4.408  0.00  0.00    -0.025 S 
ATOM     15  S   UNL     1       6.353   2.247   3.575  0.00  0.00    -0.079 S 
ATOM     16 CL   UNL     1      13.776  -1.572   3.927  0.00  0.00    -0.084 Cl
ENDROOT
BRANCH   1  18
ATOM     17  N   UNL     1       4.101   0.607   1.347  0.00  0.00    -0.307 N 
ATOM     18  C   UNL     1       5.428   0.575   1.580  0.00  0.00    +0.234 C 
ATOM     19  O   UNL     1       6.207   0.561   0.650  0.00  0.00    -0.274 OA
ATOM     20  H   UNL     1       3.478   0.617   2.090  0.00  0.00    +0.149 HD
BRANCH  17  21
ATOM     21  C   UNL     1       3.599   0.625  -0.029  0.00  0.00    +0.178 C 
BRANCH  21  24
ATOM     22  C   UNL     1      -0.016   1.341   0.009  0.00  0.00    +0.041 A 
ATOM     23  C   UNL     1       1.331   1.769  -0.001  0.00  0.00    +0.046 A 
ATOM     24  C   UNL     1       2.092   0.660  -0.014  0.00  0.00    +0.122 A 
ATOM     25  O   UNL     1       1.282  -0.411  -0.012  0.00  0.00    -0.466 OA
ATOM     26  C   UNL     1       0.002  -0.004   0.002  0.00  0.00    +0.195 A 
ENDBRANCH  21  24
ENDBRANCH  17  21
ENDBRANCH   1  18
TORSDOF 3
