REMARK  Name = ZINC05274591
REMARK  7 active torsions:
REMARK  status: ('A' for Active; 'I' for Inactive)
REMARK    1  A    between atoms: C_1  and  O_2
REMARK    2  A    between atoms: O_2  and  C_3
REMARK    3  A    between atoms: C_8  and  N_9
REMARK    4  A    between atoms: C_13  and  N_47
REMARK    5  A    between atoms: C_17  and  C_18
REMARK    6  A    between atoms: C_17  and  N_47
REMARK    7  A    between atoms: C_18  and  C_19
REMARK                            x       y       z     vdW  Elec       q    Type
REMARK                         _______ _______ _______ _____ _____    ______ ____
ROOT
ATOM      1  N   UNL     1       3.103   0.495   1.191  0.00  0.00    +0.387 N 
ATOM      2  H   UNL     1       2.540   0.151   1.978  0.00  0.00    -0.085 HD
ATOM      3  H   UNL     1       3.461   1.432   1.409  0.00  0.00    -0.085 HD
ENDROOT
BRANCH   1   8
ATOM      4  N   UNL     1       0.002  -0.004   0.002  0.00  0.00    -0.208 N 
ATOM      5  C   UNL     1      -0.016   1.335   0.009  0.00  0.00    +0.225 C 
ATOM      6  O   UNL     1      -1.014   2.023   0.018  0.00  0.00    -0.275 OA
ATOM      7  C   UNL     1       1.406   1.852  -0.001  0.00  0.00    +0.090 C 
ATOM      8  C   UNL     1       2.258   0.566  -0.017  0.00  0.00    +0.026 C 
ATOM      9  C   UNL     1       1.228  -0.542  -0.013  0.00  0.00    +0.213 C 
ATOM     10  O   UNL     1       1.474  -1.729  -0.021  0.00  0.00    -0.277 OA
BRANCH   4  16
ATOM     11  C   UNL     1      -1.738  -1.172   1.217  0.00  0.00    +0.142 A 
ATOM     12  C   UNL     1      -2.893  -1.938   1.218  0.00  0.00    +0.047 A 
ATOM     13  C   UNL     1      -3.477  -2.309   0.022  0.00  0.00    +0.004 A 
ATOM     14  C   UNL     1      -2.912  -1.919  -1.178  0.00  0.00    +0.002 A 
ATOM     15  C   UNL     1      -1.762  -1.152  -1.188  0.00  0.00    +0.027 A 
ATOM     16  C   UNL     1      -1.168  -0.780   0.009  0.00  0.00    +0.085 A 
BRANCH  11  18
ATOM     17  C   UNL     1      -1.802  -1.245   3.593  0.00  0.00    +0.277 C 
ATOM     18  O   UNL     1      -1.162  -0.806   2.393  0.00  0.00    -0.493 OA
ENDBRANCH  11  18
ENDBRANCH   4  16
ENDBRANCH   1   8
BRANCH   1  19
ATOM     19  C   UNL     1       4.238  -0.420   0.968  0.00  0.00    -0.077 C 
BRANCH  19  20
ATOM     20  C   UNL     1       5.095  -0.474   2.234  0.00  0.00    +0.018 C 
BRANCH  20  21
ATOM     21  C   UNL     1       6.258  -1.407   2.014  0.00  0.00    -0.024 A 
ATOM     22  C   UNL     1       6.314  -2.706   2.350  0.00  0.00    +0.087 A 
ATOM     23  N   UNL     1       7.528  -3.227   1.995  0.00  0.00    -0.360 N 
ATOM     24  H   UNL     1       7.802  -4.147   2.136  0.00  0.00    +0.165 HD
ATOM     25  C   UNL     1       8.303  -2.252   1.407  0.00  0.00    +0.047 A 
ATOM     26  C   UNL     1       7.539  -1.071   1.389  0.00  0.00    +0.004 A 
ATOM     27  C   UNL     1       8.073   0.097   0.841  0.00  0.00    +0.030 A 
ATOM     28  C   UNL     1       9.347   0.082   0.317  0.00  0.00    +0.042 A 
ATOM     29  C   UNL     1      10.100  -1.085   0.332  0.00  0.00    +0.022 A 
ATOM     30  C   UNL     1       9.588  -2.243   0.877  0.00  0.00    +0.027 A 
ATOM     31 CL   UNL     1      10.017   1.531  -0.366  0.00  0.00    -0.084 Cl
ENDBRANCH  20  21
ENDBRANCH  19  20
ENDBRANCH   1  19
TORSDOF 6
