REMARK  Name = ZINC20842080
REMARK  4 active torsions:
REMARK  status: ('A' for Active; 'I' for Inactive)
REMARK    1  A    between atoms: C_1  and  C_2
REMARK    2  A    between atoms: C_5  and  N_8
REMARK    3  A    between atoms: N_18  and  N_19
REMARK    4  A    between atoms: N_21  and  C_24
REMARK                            x       y       z     vdW  Elec       q    Type
REMARK                         _______ _______ _______ _____ _____    ______ ____
ROOT
ATOM      1  N   UNL     1       1.156   2.090  -0.224  0.00  0.00    -0.248 N 
ATOM      2  C   UNL     1       1.175   3.246   0.465  0.00  0.00    +0.268 A 
ATOM      3  O   UNL     1       2.228   3.703   0.876  0.00  0.00    -0.266 OA
ATOM      4  C   UNL     1      -0.058   3.930   0.711  0.00  0.00    +0.076 A 
ATOM      5  C   UNL     1      -0.272   5.185   1.429  0.00  0.00    -0.020 A 
ATOM      6  C   UNL     1      -1.544   5.628   1.527  0.00  0.00    +0.010 A 
ATOM      7  S   UNL     1      -2.518   4.416   0.678  0.00  0.00    -0.072 S 
ATOM      8  C   UNL     1      -1.211   3.316   0.195  0.00  0.00    +0.118 A 
ATOM      9  N   UNL     1      -1.161   2.175  -0.484  0.00  0.00    -0.207 NA
ATOM     10  C   UNL     1      -0.014   1.563  -0.692  0.00  0.00    +0.218 A 
ATOM     11  N   UNL     1       0.007   0.382  -1.392  0.00  0.00    -0.253 N 
ATOM     12  C   UNL     1      -2.005   6.877   2.213  0.00  0.00    +0.126 C 
ATOM     13  N   UNL     1      -0.908   7.365   3.068  0.00  0.00    -0.300 NA
ATOM     14  C   UNL     1       0.354   7.412   2.316  0.00  0.00    +0.089 C 
ATOM     15  C   UNL     1       0.863   5.992   2.055  0.00  0.00    +0.052 C 
ATOM     16  C   UNL     1      -1.230   8.681   3.637  0.00  0.00    +0.105 C 
ATOM     17  H   UNL     1       0.947  -0.178  -1.497  0.00  0.00    +0.169 HD
ENDROOT
BRANCH   1  22
ATOM     18  C   UNL     1       6.032  -0.640  -1.210  0.00  0.00    +0.044 C 
ATOM     19  C   UNL     1       4.737   0.084  -0.949  0.00  0.00    -0.050 A 
ATOM     20  C   UNL     1       4.274   1.020  -1.856  0.00  0.00    +0.005 A 
ATOM     21  C   UNL     1       3.088   1.686  -1.619  0.00  0.00    +0.026 A 
ATOM     22  C   UNL     1       2.359   1.416  -0.468  0.00  0.00    +0.053 A 
ATOM     23  C   UNL     1       2.829   0.479   0.443  0.00  0.00    +0.026 A 
ATOM     24  C   UNL     1       4.013  -0.188   0.198  0.00  0.00    +0.005 A 
ENDBRANCH   1  22
BRANCH  11  25
ATOM     25  N   UNL     1      -1.141  -0.096  -1.958  0.00  0.00    -0.254 NA
ATOM     26  H   UNL     1      -0.927  -1.045  -2.473  0.00  0.00    +0.140 HD
ATOM     27  H   UNL     1      -1.893  -0.265  -1.175  0.00  0.00    +0.140 HD
ENDBRANCH  11  25
TORSDOF 2
