REMARK  Name = ZINC13327366
REMARK  5 active torsions:
REMARK  status: ('A' for Active; 'I' for Inactive)
REMARK    1  A    between atoms: C_1  and  C_2
REMARK    2  A    between atoms: C_4  and  C_8
REMARK    3  A    between atoms: C_5  and  C_7
REMARK    4  A    between atoms: N_10  and  C_11
REMARK    5  A    between atoms: C_12  and  C_20
REMARK                            x       y       z     vdW  Elec       q    Type
REMARK                         _______ _______ _______ _____ _____    ______ ____
ROOT
ATOM      1  C   UNL     1      -2.277   7.221  -2.923  0.00  0.00    +0.252 C 
ATOM      2  O   UNL     1      -2.259   6.337  -3.757  0.00  0.00    -0.270 OA
ATOM      3  N   UNL     1      -1.964   6.946  -1.641  0.00  0.00    -0.275 N 
ATOM      4  H   UNL     1      -1.978   7.651  -0.976  0.00  0.00    +0.156 HD
ENDROOT
BRANCH   3   5
ATOM      5  C   UNL     1      -1.620   5.653  -1.274  0.00  0.00    +0.090 A 
ATOM      6  C   UNL     1      -1.270   5.178  -0.019  0.00  0.00    +0.084 A 
ATOM      7  C   UNL     1      -0.951   3.765   0.100  0.00  0.00    -0.018 A 
ATOM      8  C   UNL     1      -1.032   3.059  -1.049  0.00  0.00    -0.004 A 
ATOM      9  S   UNL     1      -1.524   4.240  -2.273  0.00  0.00    -0.077 S 
ATOM     10  C   UNL     1      -0.761   1.597  -1.232  0.00  0.00    +0.043 C 
ATOM     11  C   UNL     1      -0.013   1.086   0.008  0.00  0.00    +0.005 C 
ATOM     12  C   UNL     1      -0.735   1.583   1.264  0.00  0.00    +0.005 C 
ATOM     13  C   UNL     1      -0.550   3.094   1.407  0.00  0.00    +0.037 C 
BRANCH   6  14
ATOM     14  C   UNL     1      -1.225   6.047   1.118  0.00  0.00    +0.102 C 
ATOM     15  N   UNL     1      -1.188   6.737   2.020  0.00  0.00    -0.191 NA
ENDBRANCH   6  14
ENDBRANCH   3   5
BRANCH   1  19
ATOM     16  C   UNL     1      -3.294  12.219  -2.781  0.00  0.00    +0.086 C 
ATOM     17  C   UNL     1      -3.086  10.795  -3.231  0.00  0.00    +0.103 A 
ATOM     18  C   UNL     1      -2.721   9.775  -2.439  0.00  0.00    +0.057 A 
ATOM     19  C   UNL     1      -2.642   8.595  -3.312  0.00  0.00    +0.078 A 
ATOM     20  C   UNL     1      -2.983   9.036  -4.558  0.00  0.00    +0.114 A 
ATOM     21  O   UNL     1      -3.243  10.345  -4.485  0.00  0.00    -0.464 OA
ATOM     22  C   UNL     1      -3.055   8.190  -5.803  0.00  0.00    +0.087 C 
ENDBRANCH   1  19
TORSDOF 3
