REMARK  Name = ZINC41637563
REMARK  5 active torsions:
REMARK  status: ('A' for Active; 'I' for Inactive)
REMARK    1  A    between atoms: C_1  and  C_2
REMARK    2  A    between atoms: C_5  and  C_7
REMARK    3  A    between atoms: C_7  and  C_9
REMARK    4  A    between atoms: C_7  and  N_18
REMARK    5  A    between atoms: C_22  and  C_25
REMARK                            x       y       z     vdW  Elec       q    Type
REMARK                         _______ _______ _______ _____ _____    ______ ____
ROOT
ATOM      1  C   UNL     1       1.684  -3.245  -0.023  0.00  0.00    +0.042 C 
ENDROOT
BRANCH   1   2
ATOM      2  C   UNL     1       2.197  -3.490   1.373  0.00  0.00    +0.053 A 
ATOM      3  C   UNL     1       2.005  -4.547   2.171  0.00  0.00    +0.282 A 
ATOM      4  N   UNL     1       2.561  -4.587   3.426  0.00  0.00    -0.170 N 
ATOM      5  C   UNL     1       3.306  -3.515   3.813  0.00  0.00    +0.199 A 
ATOM      6  S   UNL     1       3.228  -2.448   2.394  0.00  0.00    -0.050 S 
ATOM      7  N   UNL     1       3.759  -3.710   5.021  0.00  0.00    -0.208 NA
ATOM      8  C   UNL     1       3.337  -4.892   5.465  0.00  0.00    +0.246 A 
ATOM      9  N   UNL     1       2.610  -5.463   4.542  0.00  0.00    -0.150 NA
ATOM     10  O   UNL     1       1.250  -5.592   1.734  0.00  0.00    -0.265 OA
ENDBRANCH   1   2
BRANCH   1  11
ATOM     11  N   UNL     1       2.814  -2.960  -0.917  0.00  0.00    +0.390 N 
ATOM     12  C   UNL     1       2.312  -2.713  -2.274  0.00  0.00    -0.077 C 
ATOM     13  C   UNL     1       3.477  -2.336  -3.192  0.00  0.00    -0.018 C 
ATOM     14  C   UNL     1       4.489  -3.485  -3.221  0.00  0.00    -0.001 C 
ATOM     15  C   UNL     1       4.950  -3.783  -1.791  0.00  0.00    -0.031 C 
ATOM     16  C   UNL     1       3.731  -4.107  -0.925  0.00  0.00    -0.074 C 
ATOM     17  C   UNL     1       5.903  -4.980  -1.801  0.00  0.00    +0.005 C 
ATOM     18  H   UNL     1       3.304  -2.142  -0.587  0.00  0.00    -0.080 HD
ENDBRANCH   1  11
BRANCH   1  23
ATOM     19  C   UNL     1      -0.018   1.503   0.010  0.00  0.00    +0.086 C 
ATOM     20  C   UNL     1       0.002  -0.004   0.002  0.00  0.00    +0.102 A 
ATOM     21  C   UNL     1      -1.078  -0.805   0.003  0.00  0.00    +0.044 A 
ATOM     22  C   UNL     1      -0.601  -2.136  -0.007  0.00  0.00    +0.043 A 
ATOM     23  C   UNL     1       0.742  -2.069  -0.013  0.00  0.00    +0.097 A 
ATOM     24  O   UNL     1       1.102  -0.775  -0.013  0.00  0.00    -0.466 OA
ENDBRANCH   1  23
TORSDOF 3
