REMARK  Name = ZINC16849926
REMARK  4 active torsions:
REMARK  status: ('A' for Active; 'I' for Inactive)
REMARK    1  A    between atoms: C_1  and  N_2
REMARK    2  A    between atoms: C_11  and  C_13
REMARK    3  A    between atoms: C_13  and  C_14
REMARK    4  A    between atoms: N_21  and  C_24
REMARK                            x       y       z     vdW  Elec       q    Type
REMARK                         _______ _______ _______ _____ _____    ______ ____
ROOT
ATOM      1  C   UNL     1      -2.484   1.377   0.170  0.00  0.00    +0.143 C 
ATOM      2  N   UNL     1      -1.136   1.942   0.083  0.00  0.00    -0.227 N 
ATOM      3  C   UNL     1      -0.871   3.261  -0.024  0.00  0.00    +0.247 C 
ATOM      4  O   UNL     1      -1.673   4.169  -0.064  0.00  0.00    -0.273 OA
ATOM      5  C   UNL     1       0.635   3.367  -0.088  0.00  0.00    +0.118 C 
ATOM      6  C   UNL     1       1.068   3.987  -1.412  0.00  0.00    +0.054 C 
ATOM      7  C   UNL     1       2.599   4.024  -1.482  0.00  0.00    +0.110 C 
ATOM      8  N   UNL     1       3.109   4.704  -0.284  0.00  0.00    -0.301 N 
ATOM      9  C   UNL     1       2.693   4.218   1.038  0.00  0.00    +0.110 C 
ATOM     10  C   UNL     1       1.161   4.181   1.089  0.00  0.00    +0.054 C 
ATOM     11  C   UNL     1       3.945   5.756  -0.397  0.00  0.00    +0.220 C 
ATOM     12  O   UNL     1       4.360   6.309   0.599  0.00  0.00    -0.275 OA
ATOM     13  N   UNL     1       1.095   1.975   0.002  0.00  0.00    -0.274 N 
ATOM     14  C   UNL     1      -0.012   1.214   0.103  0.00  0.00    +0.311 C 
ATOM     15  O   UNL     1       0.007   0.003   0.196  0.00  0.00    -0.252 OA
ATOM     16  C   UNL     1       2.483   1.507  -0.014  0.00  0.00    +0.134 C 
ENDROOT
BRANCH  11  17
ATOM     17  C   UNL     1       4.364   6.243  -1.760  0.00  0.00    +0.131 C 
BRANCH  17  18
ATOM     18  C   UNL     1       5.293   7.420  -1.609  0.00  0.00    -0.039 A 
ATOM     19  C   UNL     1       4.781   8.703  -1.568  0.00  0.00    +0.005 A 
ATOM     20  C   UNL     1       5.632   9.783  -1.424  0.00  0.00    +0.020 A 
ATOM     21  C   UNL     1       6.998   9.579  -1.333  0.00  0.00    +0.041 A 
ATOM     22  C   UNL     1       7.510   8.295  -1.380  0.00  0.00    +0.020 A 
ATOM     23  C   UNL     1       6.657   7.216  -1.518  0.00  0.00    +0.005 A 
ATOM     24 CL   UNL     1       8.068  10.935  -1.159  0.00  0.00    -0.084 Cl
ENDBRANCH  17  18
ENDBRANCH  11  17
TORSDOF 2
