REMARK  Name = ZINC42097977
REMARK  7 active torsions:
REMARK  status: ('A' for Active; 'I' for Inactive)
REMARK    1  A    between atoms: C_1  and  O_2
REMARK    2  A    between atoms: O_2  and  C_3
REMARK    3  A    between atoms: C_3  and  C_5
REMARK    4  A    between atoms: C_7  and  S_25
REMARK    5  A    between atoms: C_10  and  N_11
REMARK    6  A    between atoms: C_15  and  C_18
REMARK    7  A    between atoms: S_25  and  N_28
REMARK                            x       y       z     vdW  Elec       q    Type
REMARK                         _______ _______ _______ _____ _____    ______ ____
ROOT
ATOM      1  C   UNL     1      -1.247  -2.104   0.003  0.00  0.00    +0.082 A 
ATOM      2  C   UNL     1      -0.068  -2.854  -0.007  0.00  0.00    +0.045 A 
ATOM      3  C   UNL     1      -0.128  -4.230  -0.014  0.00  0.00    +0.106 A 
ATOM      4  C   UNL     1      -1.354  -4.877  -0.011  0.00  0.00    +0.030 A 
ATOM      5  C   UNL     1      -2.527  -4.152  -0.002  0.00  0.00    +0.026 A 
ATOM      6  C   UNL     1      -2.487  -2.763   0.011  0.00  0.00    +0.044 A 
ENDROOT
BRANCH   6   7
ATOM      7  N   UNL     1      -3.667  -2.031   0.026  0.00  0.00    -0.324 N 
ATOM      8  C   UNL     1      -4.325  -1.630  -1.227  0.00  0.00    +0.133 C 
ATOM      9  C   UNL     1      -5.802  -2.035  -1.148  0.00  0.00    +0.179 C 
ATOM     10  O   UNL     1      -6.368  -1.521   0.059  0.00  0.00    -0.369 OA
ATOM     11  C   UNL     1      -5.773  -2.039   1.252  0.00  0.00    +0.165 C 
ATOM     12  C   UNL     1      -4.298  -1.638   1.296  0.00  0.00    +0.141 C 
BRANCH  11  13
ATOM     13  C   UNL     1      -6.486  -1.478   2.455  0.00  0.00    -0.017 A 
ATOM     14  C   UNL     1      -6.978  -0.186   2.426  0.00  0.00    +0.009 A 
ATOM     15  C   UNL     1      -7.633   0.330   3.528  0.00  0.00    +0.039 A 
ATOM     16  C   UNL     1      -7.796  -0.448   4.662  0.00  0.00    +0.123 A 
ATOM     17  C   UNL     1      -7.302  -1.742   4.690  0.00  0.00    +0.039 A 
ATOM     18  C   UNL     1      -6.653  -2.257   3.585  0.00  0.00    +0.009 A 
ATOM     19  F   UNL     1      -8.435   0.055   5.741  0.00  0.00    -0.205 F 
ENDBRANCH  11  13
ENDBRANCH   6   7
BRANCH   3  20
ATOM     20  S   UNL     1       1.361  -5.172  -0.026  0.00  0.00    +0.056 S 
ATOM     21  O   UNL     1       1.035  -6.439  -0.582  0.00  0.00    -0.153 OA
ATOM     22  O   UNL     1       2.367  -4.334  -0.578  0.00  0.00    -0.153 OA
BRANCH  20  23
ATOM     23  N   UNL     1       1.783  -5.442   1.552  0.00  0.00    -0.204 NA
ATOM     24  H   UNL     1       1.229  -5.093   2.268  0.00  0.00    +0.144 HD
ATOM     25  H   UNL     1       2.583  -5.949   1.760  0.00  0.00    +0.144 HD
ENDBRANCH  20  23
ENDBRANCH   3  20
BRANCH   1  26
ATOM     26  C   UNL     1      -1.190  -0.632   0.010  0.00  0.00    +0.341 C 
ATOM     27  O   UNL     1      -2.218   0.016   0.023  0.00  0.00    -0.245 OA
BRANCH  26  29
ATOM     28  C   UNL     1      -0.017   1.425   0.010  0.00  0.00    +0.280 C 
ATOM     29  O   UNL     1       0.002  -0.004   0.002  0.00  0.00    -0.464 OA
ENDBRANCH  26  29
ENDBRANCH   1  26
TORSDOF 6
