REMARK  Name = ZINC00094389
REMARK  4 active torsions:
REMARK  status: ('A' for Active; 'I' for Inactive)
REMARK    1  A    between atoms: C_1  and  O_2
REMARK    2  A    between atoms: O_2  and  C_3
REMARK    3  A    between atoms: C_6  and  C_12
REMARK    4  A    between atoms: C_8  and  N_9
REMARK                            x       y       z     vdW  Elec       q    Type
REMARK                         _______ _______ _______ _____ _____    ______ ____
ROOT
ATOM      1  C   UNL     1       1.422   2.055  -0.001  0.00  0.00    +0.105 C 
ATOM      2  C   UNL     1      -0.019   1.539   0.011  0.00  0.00    +0.029 C 
ATOM      3  C   UNL     1      -0.630   1.805  -1.394  0.00  0.00    +0.033 C 
ATOM      4  C   UNL     1      -0.134   0.637  -2.224  0.00  0.00    -0.030 C 
ATOM      5  C   UNL     1       0.211  -0.362  -1.451  0.00  0.00    -0.023 C 
ATOM      6  C   UNL     1       0.002  -0.004   0.002  0.00  0.00    +0.049 C 
ATOM      7  C   UNL     1       1.119  -0.544   0.845  0.00  0.00    -0.017 A 
ATOM      8  C   UNL     1       1.168  -1.916   1.060  0.00  0.00    +0.006 A 
ATOM      9  C   UNL     1       2.172  -2.474   1.824  0.00  0.00    +0.003 A 
ATOM     10  C   UNL     1       3.145  -1.667   2.386  0.00  0.00    +0.040 A 
ATOM     11  C   UNL     1       3.104  -0.302   2.180  0.00  0.00    +0.144 A 
ATOM     12  C   UNL     1       2.089   0.265   1.408  0.00  0.00    +0.067 A 
ATOM     13  N   UNL     1       2.093   1.650   1.235  0.00  0.00    -0.334 N 
ATOM     14  F   UNL     1       4.053   0.488   2.729  0.00  0.00    -0.204 F 
ATOM     15  H   UNL     1       1.690   2.115   2.035  0.00  0.00    +0.147 HD
ENDROOT
BRANCH   1  19
ATOM     16  C   UNL     1       1.407   6.319  -0.283  0.00  0.00    +0.150 A 
ATOM     17  C   UNL     1       1.181   5.703   0.940  0.00  0.00    +0.048 A 
ATOM     18  C   UNL     1       1.187   4.324   1.028  0.00  0.00    +0.009 A 
ATOM     19  C   UNL     1       1.417   3.559  -0.100  0.00  0.00    -0.025 A 
ATOM     20  C   UNL     1       1.647   4.171  -1.318  0.00  0.00    +0.042 A 
ATOM     21  C   UNL     1       1.636   5.549  -1.413  0.00  0.00    +0.168 A 
BRANCH  21  22
ATOM     22  N   UNL     1       1.877   6.203  -2.719  0.00  0.00    +0.060 N 
ATOM     23  O   UNL     1       2.079   5.527  -3.711  0.00  0.00    -0.126 OA
ATOM     24  O   UNL     1       1.873   7.419  -2.801  0.00  0.00    -0.126 OA
ENDBRANCH  21  22
BRANCH  16  26
ATOM     25  C   UNL     1       1.157   8.404   0.832  0.00  0.00    +0.277 C 
ATOM     26  O   UNL     1       1.401   7.675  -0.372  0.00  0.00    -0.493 OA
ENDBRANCH  16  26
ENDBRANCH   1  19
TORSDOF 3
