REMARK  Name = ZINC43532776
REMARK  7 active torsions:
REMARK  status: ('A' for Active; 'I' for Inactive)
REMARK    1  A    between atoms: C_1  and  C_2
REMARK    2  A    between atoms: C_2  and  C_3
REMARK    3  A    between atoms: C_3  and  C_5
REMARK    4  A    between atoms: C_3  and  C_6
REMARK    5  A    between atoms: C_9  and  S_12
REMARK    6  A    between atoms: S_12  and  N_15
REMARK    7  A    between atoms: C_23  and  C_28
REMARK                            x       y       z     vdW  Elec       q    Type
REMARK                         _______ _______ _______ _____ _____    ______ ____
ROOT
ATOM      1  N   UNL     1      -1.149  -6.927  -0.989  0.00  0.00    -0.174 NA
ATOM      2  C   UNL     1      -1.148  -7.428   0.393  0.00  0.00    +0.128 C 
ATOM      3  C   UNL     1      -2.110  -6.572   1.225  0.00  0.00    +0.123 C 
ATOM      4  N   UNL     1      -3.390  -6.473   0.509  0.00  0.00    -0.312 N 
ATOM      5  C   UNL     1      -3.392  -5.972  -0.872  0.00  0.00    +0.123 C 
ATOM      6  C   UNL     1      -2.430  -6.823  -1.703  0.00  0.00    +0.128 C 
ATOM      7  C   UNL     1      -4.573  -6.845   1.126  0.00  0.00    +0.127 A 
ATOM      8  C   UNL     1      -4.604  -7.113   2.497  0.00  0.00    +0.066 A 
ATOM      9  C   UNL     1      -5.806  -7.481   3.069  0.00  0.00    +0.045 A 
ATOM     10  N   UNL     1      -6.887  -7.568   2.307  0.00  0.00    -0.220 NA
ATOM     11  C   UNL     1      -6.828  -7.308   1.009  0.00  0.00    +0.214 A 
ATOM     12  N   UNL     1      -5.696  -6.947   0.423  0.00  0.00    -0.200 NA
ATOM     13  N   UNL     1      -7.980  -7.410   0.248  0.00  0.00    -0.327 N 
ATOM     14  C   UNL     1      -5.888  -7.780   4.543  0.00  0.00    +0.066 C 
ATOM     15  H   UNL     1      -8.816  -7.669   0.666  0.00  0.00    +0.145 HD
ATOM     16  H   UNL     1      -7.950  -7.222  -0.703  0.00  0.00    +0.145 HD
ENDROOT
BRANCH   1  17
ATOM     17  S   UNL     1       0.265  -6.482  -1.726  0.00  0.00    +0.061 S 
ATOM     18  O   UNL     1       0.044  -6.586  -3.126  0.00  0.00    -0.153 OA
ATOM     19  O   UNL     1       1.307  -7.187  -1.065  0.00  0.00    -0.153 OA
BRANCH  17  23
ATOM     20  C   UNL     1       0.913  -2.090  -0.842  0.00  0.00    -0.044 A 
ATOM     21  C   UNL     1       1.420  -3.049   0.014  0.00  0.00    +0.006 A 
ATOM     22  C   UNL     1       1.222  -4.391  -0.256  0.00  0.00    +0.029 A 
ATOM     23  C   UNL     1       0.516  -4.772  -1.381  0.00  0.00    +0.105 A 
ATOM     24  C   UNL     1       0.009  -3.813  -2.237  0.00  0.00    +0.029 A 
ATOM     25  C   UNL     1       0.203  -2.471  -1.965  0.00  0.00    +0.006 A 
BRANCH  20  26
ATOM     26  C   UNL     1       1.129  -0.628  -0.547  0.00  0.00    +0.016 C 
ATOM     27  C   UNL     1       2.629  -0.330  -0.514  0.00  0.00    +0.012 C 
BRANCH  26  29
ATOM     28  C   UNL     1       0.619   1.223   1.052  0.00  0.00    +0.004 C 
ATOM     29  C   UNL     1       0.511  -0.284   0.809  0.00  0.00    +0.004 C 
ENDBRANCH  26  29
ENDBRANCH  20  26
ENDBRANCH  17  23
ENDBRANCH   1  17
TORSDOF 4
