REMARK  Name = ZINC58166131
REMARK  9 active torsions:
REMARK  status: ('A' for Active; 'I' for Inactive)
REMARK    1  A    between atoms: C_1  and  C_2
REMARK    2  A    between atoms: C_2  and  C_3
REMARK    3  A    between atoms: C_6  and  C_9
REMARK    4  A    between atoms: C_9  and  C_11
REMARK    5  A    between atoms: C_9  and  N_12
REMARK    6  A    between atoms: N_15  and  C_16
REMARK    7  A    between atoms: N_19  and  C_22
REMARK    8  A    between atoms: C_22  and  C_23
REMARK    9  A    between atoms: N_25  and  C_26
REMARK                            x       y       z     vdW  Elec       q    Type
REMARK                         _______ _______ _______ _____ _____    ______ ____
ROOT
ATOM      1  N   UNL     1       2.257  -1.263   5.877  0.00  0.00    -0.293 N 
ATOM      2  C   UNL     1       3.021  -1.139   6.981  0.00  0.00    +0.300 C 
ATOM      3  O   UNL     1       4.157  -1.571   6.986  0.00  0.00    -0.253 OA
ATOM      4  N   UNL     1       2.525  -0.535   8.079  0.00  0.00    -0.297 N 
ATOM      5  H   UNL     1       1.351  -0.918   5.873  0.00  0.00    +0.151 HD
ATOM      6  H   UNL     1       1.618  -0.190   8.075  0.00  0.00    +0.151 HD
ENDROOT
BRANCH   4   7
ATOM      7  C   UNL     1       3.354  -0.401   9.279  0.00  0.00    +0.071 C 
ATOM      8  C   UNL     1       3.247  -1.675  10.122  0.00  0.00    +0.004 C 
ATOM      9  C   UNL     1       4.052  -1.496  11.411  0.00  0.00    -0.076 C 
ATOM     10  N   UNL     1       3.520  -0.359  12.171  0.00  0.00    +0.385 N 
ATOM     11  C   UNL     1       3.685   0.878  11.398  0.00  0.00    -0.076 C 
ATOM     12  C   UNL     1       2.866   0.791  10.108  0.00  0.00    +0.004 C 
ATOM     13  H   UNL     1       2.540  -0.509  12.357  0.00  0.00    -0.081 HD
BRANCH  10  14
ATOM     14  C   UNL     1       4.245  -0.240  13.443  0.00  0.00    +0.019 C 
BRANCH  14  15
ATOM     15  C   UNL     1       3.620   0.849  14.277  0.00  0.00    +0.196 C 
ATOM     16  O   UNL     1       2.665   1.464  13.854  0.00  0.00    -0.278 OA
ATOM     17  N   UNL     1       4.123   1.137  15.494  0.00  0.00    -0.320 N 
ATOM     18  C   UNL     1       3.515   2.196  16.305  0.00  0.00    +0.128 C 
ATOM     19  H   UNL     1       4.887   0.645  15.833  0.00  0.00    +0.148 HD
ENDBRANCH  14  15
ENDBRANCH  10  14
ENDBRANCH   4   7
BRANCH   1  20
ATOM     20  C   UNL     1       2.797  -1.919   4.683  0.00  0.00    +0.102 C 
ATOM     21  C   UNL     1       2.610  -3.433   4.805  0.00  0.00    +0.033 C 
BRANCH  20  25
ATOM     22  C   UNL     1       0.731  -0.503   1.223  0.00  0.00    -0.048 A 
ATOM     23  C   UNL     1       2.097  -0.710   1.176  0.00  0.00    +0.004 A 
ATOM     24  C   UNL     1       2.766  -1.167   2.296  0.00  0.00    +0.006 A 
ATOM     25  C   UNL     1       2.068  -1.419   3.463  0.00  0.00    -0.027 A 
ATOM     26  C   UNL     1       0.702  -1.212   3.510  0.00  0.00    +0.006 A 
ATOM     27  C   UNL     1       0.034  -0.750   2.391  0.00  0.00    +0.004 A 
BRANCH  22  29
ATOM     28  C   UNL     1      -0.019   1.526   0.010  0.00  0.00    +0.009 C 
ATOM     29  C   UNL     1       0.002  -0.004   0.002  0.00  0.00    +0.032 C 
ENDBRANCH  22  29
ENDBRANCH  20  25
ENDBRANCH   1  20
TORSDOF 6
