REMARK  Name = ZINC03119092
REMARK  3 active torsions:
REMARK  status: ('A' for Active; 'I' for Inactive)
REMARK    1  A    between atoms: C_10  and  C_12
REMARK    2  A    between atoms: C_14  and  C_16
REMARK    3  A    between atoms: C_19  and  N_22
REMARK                            x       y       z     vdW  Elec       q    Type
REMARK                         _______ _______ _______ _____ _____    ______ ____
ROOT
ATOM      1  C   UNL     1      -3.951   5.330   2.642  0.00  0.00    +0.001 A 
ATOM      2  C   UNL     1      -2.822   6.046   2.284  0.00  0.00    +0.000 A 
ATOM      3  C   UNL     1      -1.895   5.501   1.412  0.00  0.00    +0.007 A 
ATOM      4  C   UNL     1      -2.094   4.238   0.898  0.00  0.00    -0.006 A 
ATOM      5  C   UNL     1      -3.218   3.500   1.276  0.00  0.00    -0.018 A 
ATOM      6  C   UNL     1      -4.157   4.061   2.140  0.00  0.00    +0.008 A 
ATOM      7  C   UNL     1      -3.406   2.141   0.733  0.00  0.00    +0.024 C 
ATOM      8  C   UNL     1      -2.386   1.537   0.112  0.00  0.00    +0.080 C 
ATOM      9  N   UNL     1      -1.163   2.185   0.012  0.00  0.00    -0.254 N 
ATOM     10  C   UNL     1      -1.121   3.649  -0.086  0.00  0.00    +0.214 C 
ATOM     11  C   UNL     1      -0.018   1.474   0.010  0.00  0.00    +0.252 C 
ATOM     12  O   UNL     1       1.054   2.047  -0.017  0.00  0.00    -0.270 OA
ENDROOT
BRANCH  11  13
ATOM     13  C   UNL     1      -0.066  -0.003   0.034  0.00  0.00    +0.037 A 
ATOM     14  C   UNL     1      -1.057  -0.661   0.765  0.00  0.00    +0.015 A 
ATOM     15  C   UNL     1      -1.099  -2.039   0.780  0.00  0.00    +0.033 A 
ATOM     16  C   UNL     1      -0.155  -2.771   0.080  0.00  0.00    +0.126 A 
ATOM     17  C   UNL     1       0.833  -2.125  -0.642  0.00  0.00    +0.033 A 
ATOM     18  C   UNL     1       0.883  -0.747  -0.669  0.00  0.00    +0.015 A 
BRANCH  16  19
ATOM     19  N   UNL     1      -0.203  -4.250   0.105  0.00  0.00    +0.056 N 
ATOM     20  O   UNL     1       0.627  -4.896  -0.509  0.00  0.00    -0.126 OA
ATOM     21  O   UNL     1      -1.072  -4.821   0.740  0.00  0.00    -0.126 OA
ENDBRANCH  16  19
ENDBRANCH  11  13
BRANCH  10  22
ATOM     22  C   UNL     1      -1.493   4.062  -1.448  0.00  0.00    +0.090 C 
ATOM     23  N   UNL     1      -1.781   4.382  -2.500  0.00  0.00    -0.194 NA
ENDBRANCH  10  22
TORSDOF 3
