REMARK  Name = ZINC08336282
REMARK  9 active torsions:
REMARK  status: ('A' for Active; 'I' for Inactive)
REMARK    1  A    between atoms: C_1  and  C_2
REMARK    2  A    between atoms: C_4  and  O_9
REMARK    3  A    between atoms: O_9  and  C_10
REMARK    4  A    between atoms: C_10  and  C_11
REMARK    5  A    between atoms: C_10  and  C_12
REMARK    6  A    between atoms: N_14  and  N_15
REMARK    7  A    between atoms: N_15  and  C_16
REMARK    8  A    between atoms: C_16  and  N_18
REMARK    9  A    between atoms: N_18  and  C_19
REMARK                            x       y       z     vdW  Elec       q    Type
REMARK                         _______ _______ _______ _____ _____    ______ ____
ROOT
ATOM      1  C   UNL     1      -0.579  -4.783  -3.541  0.00  0.00    +0.270 C 
ATOM      2  O   UNL     1      -1.215  -4.090  -4.307  0.00  0.00    -0.270 OA
ATOM      3  N   UNL     1      -0.617  -6.125  -3.658  0.00  0.00    -0.232 N 
ATOM      4  H   UNL     1      -0.109  -6.680  -3.045  0.00  0.00    +0.173 HD
ENDROOT
BRANCH   1   5
ATOM      5  C   UNL     1       0.252  -4.144  -2.458  0.00  0.00    +0.257 C 
ATOM      6  C   UNL     1       1.732  -4.437  -2.712  0.00  0.00    +0.062 C 
BRANCH   5   7
ATOM      7  O   UNL     1       0.038  -2.731  -2.466  0.00  0.00    -0.480 OA
BRANCH   7  11
ATOM      8  C   UNL     1       0.312   1.499  -0.046  0.00  0.00    +0.045 C 
ATOM      9  C   UNL     1       0.444  -0.001  -0.095  0.00  0.00    -0.029 A 
ATOM     10  C   UNL     1       0.178  -0.680  -1.268  0.00  0.00    +0.050 A 
ATOM     11  C   UNL     1       0.300  -2.061  -1.312  0.00  0.00    +0.122 A 
ATOM     12  C   UNL     1       0.688  -2.758  -0.177  0.00  0.00    +0.047 A 
ATOM     13  C   UNL     1       0.954  -2.076   0.994  0.00  0.00    +0.024 A 
ATOM     14  C   UNL     1       0.837  -0.697   1.034  0.00  0.00    +0.044 A 
ATOM     15 CL   UNL     1       1.178   0.159   2.506  0.00  0.00    -0.083 Cl
ENDBRANCH   7  11
ENDBRANCH   5   7
ENDBRANCH   1   5
BRANCH   3  16
ATOM     16  N   UNL     1      -1.389  -6.720  -4.664  0.00  0.00    -0.246 N 
ATOM     17  H   UNL     1      -1.897  -6.165  -5.277  0.00  0.00    +0.172 HD
BRANCH  16  18
ATOM     18  C   UNL     1      -1.427  -8.062  -4.781  0.00  0.00    +0.151 C 
ATOM     19  S   UNL     1      -2.370  -8.788  -6.011  0.00  0.00    -0.017 S 
BRANCH  18  20
ATOM     20  N   UNL     1      -0.721  -8.832  -3.930  0.00  0.00    -0.294 N 
ATOM     21  H   UNL     1      -0.220  -8.423  -3.207  0.00  0.00    +0.154 HD
BRANCH  20  22
ATOM     22  C   UNL     1      -0.711 -10.224  -4.089  0.00  0.00    +0.068 A 
ATOM     23  C   UNL     1      -0.663 -10.778  -5.360  0.00  0.00    +0.029 A 
ATOM     24  C   UNL     1      -0.653 -12.151  -5.515  0.00  0.00    +0.040 A 
ATOM     25  C   UNL     1      -0.690 -12.976  -4.403  0.00  0.00    +0.126 A 
ATOM     26  C   UNL     1      -0.737 -12.427  -3.133  0.00  0.00    +0.078 A 
ATOM     27  C   UNL     1      -0.742 -11.053  -2.973  0.00  0.00    +0.147 A 
ATOM     28  F   UNL     1      -0.783 -10.517  -1.733  0.00  0.00    -0.203 F 
ATOM     29  F   UNL     1      -0.681 -14.318  -4.558  0.00  0.00    -0.205 F 
ENDBRANCH  20  22
ENDBRANCH  18  20
ENDBRANCH  16  18
ENDBRANCH   3  16
TORSDOF 7
