REMARK  Name = ZINC63433841
REMARK  5 active torsions:
REMARK  status: ('A' for Active; 'I' for Inactive)
REMARK    1  A    between atoms: C_1  and  C_2
REMARK    2  A    between atoms: C_11  and  C_13
REMARK    3  A    between atoms: N_15  and  C_16
REMARK    4  A    between atoms: N_19  and  C_22
REMARK    5  A    between atoms: C_22  and  C_23
REMARK                            x       y       z     vdW  Elec       q    Type
REMARK                         _______ _______ _______ _____ _____    ______ ____
ROOT
ATOM      1  C   UNL     1       2.217  -0.938   3.167  0.00  0.00    +0.300 C 
ATOM      2  O   UNL     1       1.527  -1.713   3.796  0.00  0.00    -0.265 OA
ATOM      3  N   UNL     1       3.478  -0.679   3.569  0.00  0.00    -0.305 N 
ATOM      4  H   UNL     1       4.029  -0.060   3.066  0.00  0.00    +0.149 HD
ENDROOT
BRANCH   1  15
ATOM      5  C   UNL     1       0.308  -3.018   2.028  0.00  0.00    +0.029 C 
ATOM      6  C   UNL     1      -0.399  -1.662   2.050  0.00  0.00    +0.083 C 
ATOM      7  C   UNL     1      -1.647  -1.697   1.153  0.00  0.00    +0.059 C 
ATOM      8  C   UNL     1      -1.386  -0.646   0.097  0.00  0.00    -0.024 A 
ATOM      9  C   UNL     1      -2.151  -0.229  -0.976  0.00  0.00    +0.005 A 
ATOM     10  C   UNL     1      -1.686   0.767  -1.814  0.00  0.00    +0.000 A 
ATOM     11  C   UNL     1      -0.453   1.346  -1.577  0.00  0.00    +0.002 A 
ATOM     12  C   UNL     1       0.314   0.934  -0.508  0.00  0.00    +0.024 A 
ATOM     13  C   UNL     1      -0.148  -0.072   0.343  0.00  0.00    +0.040 A 
ATOM     14  N   UNL     1       0.463  -0.630   1.468  0.00  0.00    -0.260 N 
ATOM     15  C   UNL     1       1.670  -0.270   1.949  0.00  0.00    +0.306 C 
ATOM     16  O   UNL     1       2.312   0.596   1.391  0.00  0.00    -0.265 OA
ENDBRANCH   1  15
BRANCH   3  17
ATOM     17  C   UNL     1       4.014  -1.334   4.764  0.00  0.00    +0.070 C 
ATOM     18  C   UNL     1       3.620  -0.532   6.008  0.00  0.00    +0.003 C 
ATOM     19  C   UNL     1       4.250  -1.177   7.245  0.00  0.00    -0.077 C 
ATOM     20  N   UNL     1       5.712  -1.182   7.107  0.00  0.00    +0.380 N 
ATOM     21  C   UNL     1       6.101  -2.009   5.958  0.00  0.00    -0.077 C 
ATOM     22  C   UNL     1       5.542  -1.396   4.672  0.00  0.00    +0.003 C 
ATOM     23  H   UNL     1       6.039  -0.238   6.967  0.00  0.00    -0.082 HD
BRANCH  20  24
ATOM     24  C   UNL     1       6.315  -1.731   8.329  0.00  0.00    -0.075 C 
BRANCH  24  25
ATOM     25  C   UNL     1       5.991  -0.816   9.512  0.00  0.00    -0.028 C 
ATOM     26  C   UNL     1       6.657   0.561   9.314  0.00  0.00    +0.002 C 
ATOM     27  C   UNL     1       7.102   0.976  10.738  0.00  0.00    +0.000 C 
ATOM     28  C   UNL     1       7.576  -0.364  11.353  0.00  0.00    +0.000 C 
ATOM     29  C   UNL     1       6.575  -1.405  10.809  0.00  0.00    +0.002 C 
ENDBRANCH  24  25
ENDBRANCH  20  24
ENDBRANCH   3  17
TORSDOF 4
