REMARK  Name = ZINC45681783
REMARK  12 active torsions:
REMARK  status: ('A' for Active; 'I' for Inactive)
REMARK    1  A    between atoms: C_1  and  C_2
REMARK    2  A    between atoms: C_2  and  C_4
REMARK    3  A    between atoms: C_2  and  N_17
REMARK    4  A    between atoms: N_6  and  C_7
REMARK    5  A    between atoms: C_10  and  C_13
REMARK    6  A    between atoms: C_13  and  C_14
REMARK    7  A    between atoms: C_13  and  C_15
REMARK    8  A    between atoms: C_13  and  C_16
REMARK    9  A    between atoms: N_20  and  C_23
REMARK   10  A    between atoms: C_23  and  C_25
REMARK   11  A    between atoms: C_23  and  C_26
REMARK   12  A    between atoms: N_28  and  C_29
REMARK                            x       y       z     vdW  Elec       q    Type
REMARK                         _______ _______ _______ _____ _____    ______ ____
ROOT
ATOM      1  C   UNL     1      -1.625   2.122   0.884  0.00  0.00    -0.004 C 
ATOM      2  C   UNL     1      -0.367   1.267   1.050  0.00  0.00    +0.017 C 
ENDROOT
BRANCH   2   3
ATOM      3  N   UNL     1      -0.687  -0.137   0.758  0.00  0.00    +0.389 N 
ATOM      4  C   UNL     1       0.492  -0.973   1.020  0.00  0.00    -0.062 C 
ATOM      5  C   UNL     1       0.164  -2.432   0.698  0.00  0.00    +0.066 C 
ATOM      6  N   UNL     1      -0.965  -2.873   1.530  0.00  0.00    -0.295 NA
ATOM      7  C   UNL     1      -2.145  -2.030   1.296  0.00  0.00    +0.066 C 
ATOM      8  C   UNL     1      -1.799  -0.573   1.613  0.00  0.00    -0.062 C 
ATOM      9  H   UNL     1      -0.954  -0.226  -0.211  0.00  0.00    -0.081 HD
BRANCH   6  10
ATOM     10  C   UNL     1      -1.274  -4.289   1.291  0.00  0.00    +0.140 C 
ATOM     11  C   UNL     1      -1.332  -4.551  -0.216  0.00  0.00    +0.034 C 
BRANCH  10  12
ATOM     12  C   UNL     1      -0.201  -5.149   1.909  0.00  0.00    +0.230 C 
ATOM     13  O   UNL     1       0.820  -4.641   2.322  0.00  0.00    -0.274 OA
ATOM     14  N   UNL     1      -0.377  -6.482   2.003  0.00  0.00    -0.311 N 
ATOM     15  H   UNL     1      -1.193  -6.888   1.672  0.00  0.00    +0.149 HD
BRANCH  14  16
ATOM     16  C   UNL     1       0.666  -7.317   2.604  0.00  0.00    +0.073 C 
ATOM     17  C   UNL     1       1.013  -8.630   1.899  0.00  0.00    +0.024 C 
ATOM     18  C   UNL     1       0.236  -8.652   3.216  0.00  0.00    +0.024 C 
ENDBRANCH  14  16
ENDBRANCH  10  12
ENDBRANCH   6  10
ENDBRANCH   2   3
BRANCH   2  19
ATOM     19  C   UNL     1       0.697   1.748   0.096  0.00  0.00    +0.203 C 
ATOM     20  O   UNL     1       0.828   1.214  -0.985  0.00  0.00    -0.277 OA
ATOM     21  N   UNL     1       1.501   2.771   0.445  0.00  0.00    -0.287 N 
ATOM     22  H   UNL     1       1.440   3.155   1.334  0.00  0.00    +0.155 HD
BRANCH  21  23
ATOM     23  C   UNL     1       2.425   3.280  -0.474  0.00  0.00    +0.033 A 
ATOM     24  C   UNL     1       2.133   3.269  -1.832  0.00  0.00    +0.023 A 
ATOM     25  C   UNL     1       3.047   3.772  -2.737  0.00  0.00    +0.006 A 
ATOM     26  C   UNL     1       4.252   4.285  -2.293  0.00  0.00    -0.042 A 
ATOM     27  C   UNL     1       4.546   4.297  -0.942  0.00  0.00    +0.006 A 
ATOM     28  C   UNL     1       3.633   3.801  -0.031  0.00  0.00    +0.023 A 
BRANCH  26  29
ATOM     29  C   UNL     1       5.247   4.833  -3.283  0.00  0.00    -0.013 C 
ATOM     30  C   UNL     1       4.612   5.992  -4.056  0.00  0.00    +0.015 C 
ATOM     31  C   UNL     1       6.485   5.335  -2.538  0.00  0.00    +0.015 C 
ATOM     32  C   UNL     1       5.653   3.729  -4.262  0.00  0.00    +0.015 C 
ENDBRANCH  26  29
ENDBRANCH  21  23
ENDBRANCH   2  19
TORSDOF 7
