REMARK  Name = ZINC04864471
REMARK  8 active torsions:
REMARK  status: ('A' for Active; 'I' for Inactive)
REMARK    1  A    between atoms: C_1  and  C_2
REMARK    2  A    between atoms: C_2  and  O_3
REMARK    3  A    between atoms: O_3  and  C_4
REMARK    4  A    between atoms: C_4  and  C_6
REMARK    5  A    between atoms: C_7  and  C_27
REMARK    6  A    between atoms: C_12  and  C_14
REMARK    7  A    between atoms: C_19  and  C_26
REMARK    8  A    between atoms: C_20  and  C_25
REMARK                            x       y       z     vdW  Elec       q    Type
REMARK                         _______ _______ _______ _____ _____    ______ ____
ROOT
ATOM      1  C   UNL     1      -0.582   1.558   1.354  0.00  0.00    +0.078 C 
ATOM      2  C   UNL     1      -1.731   2.265   1.397  0.00  0.00    +0.021 C 
ATOM      3  N   UNL     1      -2.430   2.541   0.257  0.00  0.00    -0.273 N 
ATOM      4  C   UNL     1      -2.046   2.147  -0.964  0.00  0.00    +0.304 C 
ATOM      5  O   UNL     1      -2.735   2.442  -1.921  0.00  0.00    -0.252 OA
ATOM      6  N   UNL     1      -0.921   1.434  -1.166  0.00  0.00    -0.288 N 
ATOM      7  C   UNL     1      -0.094   1.083   0.001  0.00  0.00    +0.149 C 
ATOM      8  C   UNL     1      -2.251   2.756   2.723  0.00  0.00    +0.061 C 
ATOM      9  H   UNL     1      -3.251   3.052   0.335  0.00  0.00    +0.156 HD
ATOM     10  H   UNL     1      -0.661   1.159  -2.059  0.00  0.00    +0.151 HD
ENDROOT
BRANCH   7  11
ATOM     11  C   UNL     1       1.286   1.648  -0.220  0.00  0.00    +0.042 A 
ATOM     12  C   UNL     1       1.670   2.784   0.428  0.00  0.00    +0.021 A 
ATOM     13  C   UNL     1       2.968   3.278   0.194  0.00  0.00    -0.001 A 
ATOM     14  C   UNL     1       3.434   4.437   0.836  0.00  0.00    +0.010 A 
ATOM     15  C   UNL     1       4.699   4.878   0.593  0.00  0.00    +0.004 A 
ATOM     16  C   UNL     1       5.536   4.199  -0.290  0.00  0.00    -0.046 A 
ATOM     17  C   UNL     1       5.115   3.076  -0.933  0.00  0.00    -0.024 A 
ATOM     18  C   UNL     1       3.816   2.589  -0.708  0.00  0.00    +0.052 A 
ATOM     19  N   UNL     1       3.382   1.479  -1.314  0.00  0.00    -0.322 N 
ATOM     20  C   UNL     1       2.174   1.006  -1.091  0.00  0.00    +0.254 A 
ATOM     21  O   UNL     1       1.779  -0.126  -1.724  0.00  0.00    -0.268 OA
ATOM     22  C   UNL     1       6.038   2.357  -1.883  0.00  0.00    +0.046 C 
ATOM     23  C   UNL     1       6.931   4.716  -0.535  0.00  0.00    +0.044 C 
ATOM     24  H   UNL     1       3.987   0.998  -1.949  0.00  0.00    +0.169 HD
ENDBRANCH   7  11
BRANCH   1  25
ATOM     25  C   UNL     1       0.142   1.270   2.535  0.00  0.00    +0.339 C 
ATOM     26  O   UNL     1      -0.216   1.740   3.599  0.00  0.00    -0.245 OA
BRANCH  25  27
ATOM     27  O   UNL     1       1.230   0.472   2.482  0.00  0.00    -0.462 OA
BRANCH  27  29
ATOM     28  C   UNL     1       3.110  -0.693   3.455  0.00  0.00    +0.048 C 
ATOM     29  C   UNL     1       1.912   0.224   3.713  0.00  0.00    +0.229 C 
ENDBRANCH  27  29
ENDBRANCH  25  27
ENDBRANCH   1  25
TORSDOF 4
