REMARK  Name = ZINC01104131
REMARK  8 active torsions:
REMARK  status: ('A' for Active; 'I' for Inactive)
REMARK    1  A    between atoms: C_1  and  C_2
REMARK    2  A    between atoms: C_2  and  N_3
REMARK    3  A    between atoms: C_7  and  C_8
REMARK    4  A    between atoms: C_10  and  O_24
REMARK    5  A    between atoms: C_11  and  O_15
REMARK    6  A    between atoms: O_15  and  C_16
REMARK    7  A    between atoms: C_16  and  C_17
REMARK    8  A    between atoms: O_24  and  C_25
REMARK                            x       y       z     vdW  Elec       q    Type
REMARK                         _______ _______ _______ _____ _____    ______ ____
ROOT
ATOM      1  C   UNL     1       1.577   6.157  -0.127  0.00  0.00    -0.019 A 
ATOM      2  C   UNL     1       1.125   5.437   0.986  0.00  0.00    +0.057 A 
ATOM      3  C   UNL     1       0.746   4.117   0.841  0.00  0.00    +0.163 A 
ATOM      4  C   UNL     1       0.812   3.504  -0.409  0.00  0.00    +0.176 A 
ATOM      5  C   UNL     1       1.265   4.216  -1.513  0.00  0.00    +0.064 A 
ATOM      6  C   UNL     1       1.641   5.535  -1.380  0.00  0.00    +0.027 A 
ATOM      7 BR   UNL     1       1.359   3.374  -3.204  0.00  0.00    -0.046 Br
ENDROOT
BRANCH   1  12
ATOM      8  N   UNL     1       3.849   9.880  -2.151  0.00  0.00    -0.229 N 
ATOM      9  C   UNL     1       3.110   9.575  -1.098  0.00  0.00    +0.260 C 
ATOM     10  O   UNL     1       2.770  10.419  -0.290  0.00  0.00    -0.269 OA
ATOM     11  C   UNL     1       2.723   8.158  -0.949  0.00  0.00    +0.080 C 
ATOM     12  C   UNL     1       1.983   7.561   0.020  0.00  0.00    +0.028 C 
ATOM     13  S   UNL     1       3.490   7.447  -2.398  0.00  0.00    -0.026 S 
ATOM     14  C   UNL     1       4.218   8.943  -3.048  0.00  0.00    +0.286 C 
ATOM     15  O   UNL     1       4.886   9.082  -4.055  0.00  0.00    -0.262 OA
BRANCH   8  17
ATOM     16  C   UNL     1       3.217  12.005  -3.183  0.00  0.00    +0.025 C 
ATOM     17  C   UNL     1       4.270  11.268  -2.353  0.00  0.00    +0.114 C 
ENDBRANCH   8  17
ENDBRANCH   1  12
BRANCH   3  18
ATOM     18  O   UNL     1       0.306   3.415   1.920  0.00  0.00    -0.491 OA
ATOM     19  C   UNL     1       0.264   4.105   3.170  0.00  0.00    +0.277 C 
ENDBRANCH   3  18
BRANCH   4  20
ATOM     20  O   UNL     1       0.438   2.205  -0.548  0.00  0.00    -0.483 OA
BRANCH  20  21
ATOM     21  C   UNL     1      -0.934   1.955  -0.859  0.00  0.00    +0.264 C 
BRANCH  21  22
ATOM     22  C   UNL     1      -1.160   0.469  -0.973  0.00  0.00    -0.010 A 
ATOM     23  C   UNL     1      -1.013  -0.160  -2.196  0.00  0.00    +0.010 A 
ATOM     24  C   UNL     1      -1.216  -1.523  -2.301  0.00  0.00    +0.039 A 
ATOM     25  C   UNL     1      -1.575  -2.257  -1.183  0.00  0.00    +0.123 A 
ATOM     26  C   UNL     1      -1.727  -1.625   0.040  0.00  0.00    +0.039 A 
ATOM     27  C   UNL     1      -1.519  -0.263   0.143  0.00  0.00    +0.010 A 
ATOM     28  F   UNL     1      -1.778  -3.588  -1.286  0.00  0.00    -0.205 F 
ENDBRANCH  21  22
ENDBRANCH  20  21
ENDBRANCH   4  20
TORSDOF 6
