REMARK  Name = ZINC05179419
REMARK  2 active torsions:
REMARK  status: ('A' for Active; 'I' for Inactive)
REMARK    1  A    between atoms: C_4  and  N_10
REMARK    2  A    between atoms: C_6  and  N_7
REMARK                            x       y       z     vdW  Elec       q    Type
REMARK                         _______ _______ _______ _____ _____    ______ ____
ROOT
ATOM      1  N   UNL     1       3.672   1.909  -0.093  0.00  0.00    -0.207 N 
ATOM      2  C   UNL     1       3.299   1.309  -1.271  0.00  0.00    +0.231 C 
ATOM      3  O   UNL     1       3.968   0.574  -1.965  0.00  0.00    -0.274 OA
ATOM      4  C   UNL     1       1.894   1.751  -1.516  0.00  0.00    +0.095 C 
ATOM      5  C   UNL     1       0.787   0.846  -2.043  0.00  0.00    +0.025 C 
ATOM      6  C   UNL     1      -0.424   1.738  -1.516  0.00  0.00    +0.016 C 
ATOM      7  C   UNL     1      -0.019   1.559   0.011  0.00  0.00    +0.025 C 
ATOM      8  C   UNL     1       1.460   1.764  -0.002  0.00  0.00    +0.095 C 
ATOM      9  C   UNL     1       2.592   2.400   0.620  0.00  0.00    +0.231 C 
ATOM     10  O   UNL     1       2.587   3.193   1.536  0.00  0.00    -0.274 OA
ATOM     11  C   UNL     1       0.002  -0.004   0.002  0.00  0.00    -0.027 C 
ATOM     12  C   UNL     1       0.535  -0.359  -1.153  0.00  0.00    -0.027 C 
ENDROOT
BRANCH   1  16
ATOM     13  C   UNL     1       7.628   2.216   1.194  0.00  0.00    +0.035 A 
ATOM     14  C   UNL     1       6.872   1.114   1.550  0.00  0.00    +0.042 A 
ATOM     15  C   UNL     1       5.560   1.009   1.125  0.00  0.00    +0.145 A 
ATOM     16  C   UNL     1       5.003   2.012   0.340  0.00  0.00    +0.081 A 
ATOM     17  C   UNL     1       5.767   3.113  -0.019  0.00  0.00    +0.059 A 
ATOM     18  C   UNL     1       7.076   3.215   0.413  0.00  0.00    +0.128 A 
ATOM     19  F   UNL     1       4.821  -0.068   1.472  0.00  0.00    -0.204 F 
BRANCH  18  20
ATOM     20  N   UNL     1       7.889   4.392   0.036  0.00  0.00    +0.056 N 
ATOM     21  O   UNL     1       9.044   4.481   0.413  0.00  0.00    -0.126 OA
ATOM     22  O   UNL     1       7.403   5.272  -0.652  0.00  0.00    -0.126 OA
ENDBRANCH  18  20
ENDBRANCH   1  16
TORSDOF 2
