REMARK  Name = ZINC04626546
REMARK  7 active torsions:
REMARK  status: ('A' for Active; 'I' for Inactive)
REMARK    1  A    between atoms: C_1  and  C_2
REMARK    2  A    between atoms: C_2  and  O_3
REMARK    3  A    between atoms: O_3  and  C_4
REMARK    4  A    between atoms: C_4  and  C_6
REMARK    5  A    between atoms: C_7  and  N_27
REMARK    6  A    between atoms: C_11  and  C_15
REMARK    7  A    between atoms: N_23  and  C_26
REMARK                            x       y       z     vdW  Elec       q    Type
REMARK                         _______ _______ _______ _____ _____    ______ ____
ROOT
ATOM      1  C   UNL     1       1.445  -2.321  -2.454  0.00  0.00    +0.117 C 
ATOM      2  C   UNL     1       1.601  -3.665  -2.561  0.00  0.00    +0.198 C 
ATOM      3  O   UNL     1       2.183  -4.267  -3.616  0.00  0.00    -0.424 OA
ATOM      4  C   UNL     1       2.874  -3.493  -4.489  0.00  0.00    +0.223 A 
ATOM      5  C   UNL     1       2.787  -2.127  -4.492  0.00  0.00    +0.061 A 
ATOM      6  C   UNL     1       3.612  -1.646  -5.500  0.00  0.00    +0.068 A 
ATOM      7  N   UNL     1       4.178  -2.673  -6.088  0.00  0.00    -0.176 NA
ATOM      8  N   UNL     1       3.725  -3.846  -5.465  0.00  0.00    -0.246 N 
ATOM      9  H   UNL     1       3.982  -4.752  -5.698  0.00  0.00    +0.192 HD
ATOM     10  C   UNL     1       3.820  -0.197  -5.856  0.00  0.00    +0.068 C 
ATOM     11  C   UNL     1       1.912  -1.376  -3.527  0.00  0.00    +0.142 C 
ATOM     12  C   UNL     1       0.757  -0.729  -4.222  0.00  0.00    -0.002 A 
ATOM     13  C   UNL     1      -0.285  -1.258  -4.953  0.00  0.00    +0.007 A 
ATOM     14  C   UNL     1      -1.209  -0.361  -5.475  0.00  0.00    +0.000 A 
ATOM     15  C   UNL     1      -1.087   0.998  -5.269  0.00  0.00    +0.002 A 
ATOM     16  C   UNL     1      -0.043   1.538  -4.535  0.00  0.00    +0.024 A 
ATOM     17  C   UNL     1       0.892   0.648  -4.005  0.00  0.00    +0.041 A 
ATOM     18  N   UNL     1       2.017   0.907  -3.242  0.00  0.00    -0.273 N 
ATOM     19  C   UNL     1       2.678  -0.224  -2.914  0.00  0.00    +0.240 C 
ATOM     20  O   UNL     1       3.692  -0.302  -2.254  0.00  0.00    -0.274 OA
ATOM     21  C   UNL     1       2.442   2.249  -2.837  0.00  0.00    +0.138 C 
ENDROOT
BRANCH   2  22
ATOM     22  N   UNL     1       1.140  -4.452  -1.540  0.00  0.00    -0.329 N 
ATOM     23  H   UNL     1       0.636  -4.057  -0.812  0.00  0.00    +0.145 HD
ATOM     24  H   UNL     1       1.318  -5.406  -1.545  0.00  0.00    +0.145 HD
ENDBRANCH   2  22
BRANCH   1  25
ATOM     25  C   UNL     1       0.824  -1.798  -1.310  0.00  0.00    +0.342 C 
ATOM     26  O   UNL     1      -0.344  -1.455  -1.354  0.00  0.00    -0.245 OA
BRANCH  25  27
ATOM     27  O   UNL     1       1.522  -1.674  -0.160  0.00  0.00    -0.462 OA
BRANCH  27  29
ATOM     28  C   UNL     1       1.772  -1.071   2.167  0.00  0.00    +0.048 C 
ATOM     29  C   UNL     1       0.827  -1.134   0.965  0.00  0.00    +0.229 C 
ENDBRANCH  27  29
ENDBRANCH  25  27
ENDBRANCH   1  25
TORSDOF 4
