REMARK  Name = ZINC09345129
REMARK  6 active torsions:
REMARK  status: ('A' for Active; 'I' for Inactive)
REMARK    1  A    between atoms: C_1  and  O_2
REMARK    2  A    between atoms: O_2  and  C_3
REMARK    3  A    between atoms: C_6  and  C_11
REMARK    4  A    between atoms: C_7  and  O_9
REMARK    5  A    between atoms: O_9  and  C_10
REMARK    6  A    between atoms: C_28  and  C_30
REMARK                            x       y       z     vdW  Elec       q    Type
REMARK                         _______ _______ _______ _____ _____    ______ ____
ROOT
ATOM      1  C   UNL     1       2.507  -2.495  -4.390  0.00  0.00    +0.238 C 
ATOM      2  C   UNL     1       3.957  -2.716  -4.075  0.00  0.00    +0.028 C 
ATOM      3  C   UNL     1       4.877  -1.774  -4.373  0.00  0.00    +0.083 C 
ATOM      4  C   UNL     1       4.397  -0.532  -5.029  0.00  0.00    +0.042 A 
ATOM      5  C   UNL     1       5.183   0.611  -5.082  0.00  0.00    +0.013 A 
ATOM      6  C   UNL     1       4.696   1.746  -5.700  0.00  0.00    +0.001 A 
ATOM      7  C   UNL     1       3.431   1.745  -6.263  0.00  0.00    +0.004 A 
ATOM      8  C   UNL     1       2.643   0.610  -6.215  0.00  0.00    +0.046 A 
ATOM      9  C   UNL     1       3.118  -0.534  -5.600  0.00  0.00    +0.131 A 
ATOM     10  O   UNL     1       2.372  -1.662  -5.543  0.00  0.00    -0.479 OA
ATOM     11  N   UNL     1       6.189  -1.957  -4.088  0.00  0.00    -0.216 NA
ATOM     12  C   UNL     1       6.678  -3.037  -3.519  0.00  0.00    +0.209 C 
ATOM     13  N   UNL     1       7.955  -3.388  -3.166  0.00  0.00    -0.275 N 
ATOM     14  C   UNL     1       7.915  -4.640  -2.603  0.00  0.00    +0.208 C 
ATOM     15  N   UNL     1       6.692  -5.066  -2.593  0.00  0.00    -0.169 NA
ATOM     16  N   UNL     1       5.880  -4.084  -3.161  0.00  0.00    -0.182 N 
ATOM     17  C   UNL     1       4.435  -3.991  -3.417  0.00  0.00    +0.163 C 
ATOM     18  H   UNL     1       8.749  -2.846  -3.293  0.00  0.00    +0.156 HD
ENDROOT
BRANCH  17  19
ATOM     19  C   UNL     1       4.038  -5.150  -4.296  0.00  0.00    -0.021 A 
ATOM     20  C   UNL     1       4.798  -5.465  -5.407  0.00  0.00    +0.008 A 
ATOM     21  C   UNL     1       4.436  -6.527  -6.214  0.00  0.00    +0.038 A 
ATOM     22  C   UNL     1       3.312  -7.276  -5.909  0.00  0.00    +0.123 A 
ATOM     23  C   UNL     1       2.552  -6.959  -4.796  0.00  0.00    +0.038 A 
ATOM     24  C   UNL     1       2.919  -5.899  -3.988  0.00  0.00    +0.008 A 
ATOM     25  F   UNL     1       2.957  -8.314  -6.697  0.00  0.00    -0.205 F 
ENDBRANCH  17  19
BRANCH   1  29
ATOM     26  C   UNL     1       0.606  -0.607  -1.056  0.00  0.00    +0.124 A 
ATOM     27  C   UNL     1       1.090   0.158  -2.108  0.00  0.00    +0.046 A 
ATOM     28  C   UNL     1       1.704  -0.455  -3.183  0.00  0.00    +0.015 A 
ATOM     29  C   UNL     1       1.837  -1.830  -3.215  0.00  0.00    +0.039 A 
ATOM     30  C   UNL     1       1.355  -2.599  -2.165  0.00  0.00    +0.131 A 
ATOM     31  C   UNL     1       0.744  -1.986  -1.082  0.00  0.00    +0.091 A 
BRANCH  26  33
ATOM     32  C   UNL     1      -0.106   1.420  -0.038  0.00  0.00    +0.277 C 
ATOM     33  O   UNL     1       0.002  -0.004   0.002  0.00  0.00    -0.495 OA
ENDBRANCH  26  33
BRANCH  30  34
ATOM     34  O   UNL     1       1.487  -3.951  -2.196  0.00  0.00    -0.495 OA
ATOM     35  C   UNL     1       0.968  -4.679  -1.082  0.00  0.00    +0.277 C 
ENDBRANCH  30  34
ENDBRANCH   1  29
TORSDOF 4
