REMARK  Name = ZINC13114298
REMARK  6 active torsions:
REMARK  status: ('A' for Active; 'I' for Inactive)
REMARK    1  A    between atoms: C_1  and  C_2
REMARK    2  A    between atoms: C_15  and  C_17
REMARK    3  A    between atoms: C_17  and  S_18
REMARK    4  A    between atoms: S_18  and  C_19
REMARK    5  A    between atoms: C_22  and  C_27
REMARK    6  A    between atoms: N_23  and  C_24
REMARK                            x       y       z     vdW  Elec       q    Type
REMARK                         _______ _______ _______ _____ _____    ______ ____
ROOT
ATOM      1  C   UNL     1      -1.773   1.805   0.644  0.00  0.00    +0.173 C 
ENDROOT
BRANCH   1  15
ATOM      2  C   UNL     1       0.518  -2.160  -0.022  0.00  0.00    +0.029 C 
ATOM      3  C   UNL     1       0.378  -1.310   1.242  0.00  0.00    +0.087 C 
ATOM      4  C   UNL     1       0.166  -2.223   2.454  0.00  0.00    +0.118 C 
ATOM      5  C   UNL     1      -0.368  -1.430   3.618  0.00  0.00    +0.219 C 
ATOM      6  O   UNL     1       0.367  -1.142   4.539  0.00  0.00    -0.275 OA
ATOM      7  N   UNL     1      -1.660  -1.036   3.642  0.00  0.00    -0.284 N 
ATOM      8  C   UNL     1      -2.496  -1.276   2.546  0.00  0.00    +0.055 A 
ATOM      9  C   UNL     1      -3.758  -1.820   2.721  0.00  0.00    +0.025 A 
ATOM     10  C   UNL     1      -4.588  -1.997   1.629  0.00  0.00    +0.002 A 
ATOM     11  C   UNL     1      -4.162  -1.633   0.364  0.00  0.00    +0.002 A 
ATOM     12  C   UNL     1      -2.900  -1.099   0.180  0.00  0.00    +0.025 A 
ATOM     13  C   UNL     1      -2.059  -0.927   1.267  0.00  0.00    +0.058 A 
ATOM     14  N   UNL     1      -0.768  -0.409   1.098  0.00  0.00    -0.266 N 
ATOM     15  C   UNL     1      -0.584   0.893   0.802  0.00  0.00    +0.230 C 
ATOM     16  O   UNL     1       0.538   1.329   0.657  0.00  0.00    -0.274 OA
ATOM     17  H   UNL     1      -2.011  -0.584   4.425  0.00  0.00    +0.155 HD
ENDBRANCH   1  15
BRANCH   1  18
ATOM     18  S   UNL     1      -1.203   3.477   0.252  0.00  0.00    -0.077 S 
BRANCH  18  19
ATOM     19  C   UNL     1      -2.753   4.307   0.126  0.00  0.00    +0.193 A 
ATOM     20  N   UNL     1      -3.941   3.768   0.284  0.00  0.00    -0.122 NA
ATOM     21  N   UNL     1      -4.854   4.658   0.127  0.00  0.00    -0.128 NA
ATOM     22  C   UNL     1      -4.306   5.818  -0.151  0.00  0.00    +0.168 A 
ATOM     23  N   UNL     1      -2.943   5.629  -0.160  0.00  0.00    -0.299 N 
BRANCH  22  24
ATOM     24  C   UNL     1      -5.018   7.088  -0.405  0.00  0.00    +0.054 A 
ATOM     25  C   UNL     1      -4.301   8.275  -0.562  0.00  0.00    +0.014 A 
ATOM     26  C   UNL     1      -4.971   9.456  -0.805  0.00  0.00    +0.001 A 
ATOM     27  C   UNL     1      -6.353   9.469  -0.883  0.00  0.00    +0.003 A 
ATOM     28  C   UNL     1      -7.072   8.299  -0.723  0.00  0.00    +0.039 A 
ATOM     29  C   UNL     1      -6.413   7.107  -0.485  0.00  0.00    +0.134 A 
ATOM     30  F   UNL     1      -7.116   5.964  -0.328  0.00  0.00    -0.205 F 
ENDBRANCH  22  24
BRANCH  23  31
ATOM     31  C   UNL     1      -1.911   6.635  -0.423  0.00  0.00    +0.091 C 
ATOM     32  C   UNL     1      -1.705   7.074  -1.874  0.00  0.00    +0.027 C 
ATOM     33  C   UNL     1      -0.665   6.186  -1.188  0.00  0.00    +0.027 C 
ENDBRANCH  23  31
ENDBRANCH  18  19
ENDBRANCH   1  18
TORSDOF 5
