REMARK  Name = ZINC59203194
REMARK  7 active torsions:
REMARK  status: ('A' for Active; 'I' for Inactive)
REMARK    1  A    between atoms: C_1  and  C_2
REMARK    2  A    between atoms: C_5  and  N_9
REMARK    3  A    between atoms: C_6  and  C_8
REMARK    4  A    between atoms: C_10  and  C_12
REMARK    5  A    between atoms: C_12  and  S_13
REMARK    6  A    between atoms: S_13  and  C_14
REMARK    7  A    between atoms: N_20  and  C_21
REMARK                            x       y       z     vdW  Elec       q    Type
REMARK                         _______ _______ _______ _____ _____    ______ ____
ROOT
ATOM      1  C   UNL     1      -0.374  -8.691  -2.727  0.00  0.00    +0.180 A 
ATOM      2  N   UNL     1      -0.349  -9.227  -1.524  0.00  0.00    -0.184 NA
ATOM      3  C   UNL     1      -0.406 -10.551  -1.355  0.00  0.00    +0.278 A 
ATOM      4  C   UNL     1      -0.492 -11.383  -2.459  0.00  0.00    +0.142 A 
ATOM      5  C   UNL     1      -0.519 -10.809  -3.735  0.00  0.00    +0.263 A 
ATOM      6  O   UNL     1      -0.595 -11.512  -4.731  0.00  0.00    -0.267 OA
ATOM      7  N   UNL     1      -0.465  -9.465  -3.846  0.00  0.00    -0.256 N 
ATOM      8  O   UNL     1      -0.377 -11.078  -0.109  0.00  0.00    -0.266 OA
ENDROOT
BRANCH   7   9
ATOM      9  C   UNL     1      -0.496  -8.865  -5.112  0.00  0.00    +0.052 A 
ATOM     10  C   UNL     1       0.617  -8.182  -5.585  0.00  0.00    +0.029 A 
ATOM     11  C   UNL     1       0.584  -7.592  -6.834  0.00  0.00    +0.040 A 
ATOM     12  C   UNL     1      -0.557  -7.681  -7.613  0.00  0.00    +0.124 A 
ATOM     13  C   UNL     1      -1.668  -8.362  -7.143  0.00  0.00    +0.040 A 
ATOM     14  C   UNL     1      -1.637  -8.958  -5.898  0.00  0.00    +0.029 A 
ATOM     15  F   UNL     1      -0.587  -7.102  -8.834  0.00  0.00    -0.205 F 
ENDBRANCH   7   9
BRANCH   1  16
ATOM     16  S   UNL     1      -0.297  -6.938  -2.893  0.00  0.00    -0.078 S 
BRANCH  16  17
ATOM     17  C   UNL     1      -0.196  -6.339  -1.184  0.00  0.00    +0.173 C 
BRANCH  17  19
ATOM     18  N   UNL     1      -0.042  -4.164  -0.016  0.00  0.00    -0.285 N 
ATOM     19  C   UNL     1      -0.124  -4.834  -1.183  0.00  0.00    +0.227 C 
ATOM     20  O   UNL     1      -0.139  -4.225  -2.232  0.00  0.00    -0.275 OA
ATOM     21  H   UNL     1       0.031  -4.652   0.819  0.00  0.00    +0.155 HD
BRANCH  18  26
ATOM     22  C   UNL     1      -0.126   1.508   0.009  0.00  0.00    +0.044 C 
ATOM     23  C   UNL     1      -0.104   0.001   0.003  0.00  0.00    -0.050 A 
ATOM     24  C   UNL     1       0.507  -0.675  -1.038  0.00  0.00    +0.005 A 
ATOM     25  C   UNL     1       0.529  -2.056  -1.047  0.00  0.00    +0.024 A 
ATOM     26  C   UNL     1      -0.062  -2.765  -0.009  0.00  0.00    +0.036 A 
ATOM     27  C   UNL     1      -0.674  -2.083   1.034  0.00  0.00    -0.029 A 
ATOM     28  C   UNL     1      -0.688  -0.702   1.040  0.00  0.00    +0.008 A 
ATOM     29  C   UNL     1      -1.316  -2.849   2.162  0.00  0.00    +0.045 C 
ENDBRANCH  18  26
ENDBRANCH  17  19
ENDBRANCH  16  17
ENDBRANCH   1  16
TORSDOF 5
