REMARK  Name = ZINC36922532
REMARK  5 active torsions:
REMARK  status: ('A' for Active; 'I' for Inactive)
REMARK    1  A    between atoms: C_1  and  C_2
REMARK    2  A    between atoms: C_5  and  C_7
REMARK    3  A    between atoms: C_7  and  C_9
REMARK    4  A    between atoms: C_7  and  N_10
REMARK    5  A    between atoms: N_10  and  C_11
REMARK                            x       y       z     vdW  Elec       q    Type
REMARK                         _______ _______ _______ _____ _____    ______ ____
ROOT
ATOM      1  C   UNL     1       3.534  -4.028   1.434  0.00  0.00    +0.050 A 
ATOM      2  C   UNL     1       3.170  -5.340   1.161  0.00  0.00    +0.073 A 
ATOM      3  C   UNL     1       3.878  -6.388   1.727  0.00  0.00    +0.164 A 
ATOM      4  C   UNL     1       4.953  -6.125   2.568  0.00  0.00    +0.164 A 
ATOM      5  C   UNL     1       5.313  -4.814   2.842  0.00  0.00    +0.071 A 
ATOM      6  C   UNL     1       4.610  -3.768   2.272  0.00  0.00    +0.065 A 
ATOM      7 CL   UNL     1       5.069  -2.128   2.611  0.00  0.00    -0.082 Cl
ATOM      8  O   UNL     1       5.665  -7.142   3.128  0.00  0.00    -0.485 OA
ATOM      9  C   UNL     1       5.048  -8.434   3.131  0.00  0.00    +0.270 C 
ATOM     10  C   UNL     1       4.467  -8.692   1.734  0.00  0.00    +0.270 C 
ATOM     11  O   UNL     1       3.507  -7.669   1.452  0.00  0.00    -0.485 OA
ENDROOT
BRANCH   1  12
ATOM     12  N   UNL     1       2.819  -2.969   0.861  0.00  0.00    -0.333 N 
ATOM     13  H   UNL     1       3.076  -2.053   1.050  0.00  0.00    +0.147 HD
BRANCH  12  14
ATOM     14  C   UNL     1       1.684  -3.245  -0.023  0.00  0.00    +0.133 C 
ATOM     15  C   UNL     1       2.192  -3.480  -1.447  0.00  0.00    +0.036 C 
BRANCH  14  20
ATOM     16  C   UNL     1      -0.018   1.503   0.010  0.00  0.00    +0.086 C 
ATOM     17  C   UNL     1       0.002  -0.004   0.002  0.00  0.00    +0.102 A 
ATOM     18  C   UNL     1      -1.078  -0.805   0.003  0.00  0.00    +0.045 A 
ATOM     19  C   UNL     1      -0.601  -2.136  -0.007  0.00  0.00    +0.047 A 
ATOM     20  C   UNL     1       0.742  -2.069  -0.013  0.00  0.00    +0.125 A 
ATOM     21  O   UNL     1       1.102  -0.775  -0.013  0.00  0.00    -0.463 OA
ENDBRANCH  14  20
ENDBRANCH  12  14
ENDBRANCH   1  12
TORSDOF 3
