REMARK  Name = ZINC05036433
REMARK  5 active torsions:
REMARK  status: ('A' for Active; 'I' for Inactive)
REMARK    1  A    between atoms: C_1  and  C_2
REMARK    2  A    between atoms: C_7  and  N_12
REMARK    3  A    between atoms: C_9  and  C_11
REMARK    4  A    between atoms: C_13  and  C_15
REMARK    5  A    between atoms: N_19  and  C_20
REMARK                            x       y       z     vdW  Elec       q    Type
REMARK                         _______ _______ _______ _____ _____    ______ ____
ROOT
ATOM      1  N   UNL     1      -0.686   2.630  -0.979  0.00  0.00    -0.307 N 
ATOM      2  C   UNL     1      -2.032   2.571  -1.009  0.00  0.00    +0.261 C 
ATOM      3  O   UNL     1      -2.649   2.235  -0.014  0.00  0.00    -0.269 OA
ATOM      4  H   UNL     1      -0.191   2.818  -1.791  0.00  0.00    +0.149 HD
ENDROOT
BRANCH   2   5
ATOM      5  C   UNL     1      -2.753   2.910  -2.238  0.00  0.00    +0.106 A 
ATOM      6  C   UNL     1      -2.176   3.225  -3.449  0.00  0.00    +0.048 A 
ATOM      7  C   UNL     1      -3.205   3.479  -4.342  0.00  0.00    +0.038 A 
ATOM      8  C   UNL     1      -4.434   3.323  -3.690  0.00  0.00    +0.057 A 
ATOM      9  N   UNL     1      -4.123   2.963  -2.381  0.00  0.00    -0.339 N 
ATOM     10  C   UNL     1      -5.098   2.686  -1.323  0.00  0.00    +0.149 C 
ATOM     11  C   UNL     1      -5.574   3.550  -4.473  0.00  0.00    +0.034 A 
ATOM     12  C   UNL     1      -5.446   3.895  -5.772  0.00  0.00    +0.048 A 
ATOM     13  S   UNL     1      -3.675   3.927  -5.994  0.00  0.00    -0.095 S 
ENDBRANCH   2   5
BRANCH   1  19
ATOM     14  C   UNL     1       3.494   3.578   1.485  0.00  0.00    +0.008 C 
ATOM     15  C   UNL     1       2.135   2.878   1.541  0.00  0.00    -0.009 C 
ATOM     16  C   UNL     1       2.342   1.377   1.753  0.00  0.00    +0.003 C 
ATOM     17  C   UNL     1       0.983   0.677   1.809  0.00  0.00    +0.002 C 
ATOM     18  C   UNL     1       0.236   0.908   0.493  0.00  0.00    +0.022 C 
ATOM     19  C   UNL     1       0.029   2.409   0.281  0.00  0.00    +0.076 C 
ATOM     20  C   UNL     1       1.388   3.108   0.225  0.00  0.00    +0.009 C 
ATOM     21  C   UNL     1       2.208   2.538  -0.933  0.00  0.00    +0.009 C 
ENDBRANCH   1  19
TORSDOF 2
