REMARK  Name = ZINC63648866
REMARK  8 active torsions:
REMARK  status: ('A' for Active; 'I' for Inactive)
REMARK    1  A    between atoms: C_1  and  C_2
REMARK    2  A    between atoms: C_2  and  C_3
REMARK    3  A    between atoms: C_3  and  N_4
REMARK    4  A    between atoms: C_12  and  C_25
REMARK    5  A    between atoms: N_16  and  C_17
REMARK    6  A    between atoms: C_22  and  O_23
REMARK    7  A    between atoms: O_23  and  C_24
REMARK    8  A    between atoms: C_25  and  C_26
REMARK                            x       y       z     vdW  Elec       q    Type
REMARK                         _______ _______ _______ _____ _____    ______ ____
ROOT
ATOM      1  N   UNL     1       0.797  -3.171   0.209  0.00  0.00    -0.299 NA
ATOM      2  C   UNL     1       1.705  -4.278  -0.120  0.00  0.00    +0.103 C 
ATOM      3  C   UNL     1       1.774  -4.441  -1.642  0.00  0.00    +0.123 C 
ATOM      4  N   UNL     1       0.405  -4.584  -2.160  0.00  0.00    -0.302 N 
ATOM      5  C   UNL     1      -0.598  -3.586  -1.760  0.00  0.00    +0.123 C 
ATOM      6  C   UNL     1      -0.574  -3.456  -0.233  0.00  0.00    +0.103 C 
ATOM      7  C   UNL     1       0.072  -5.623  -2.996  0.00  0.00    +0.171 C 
ATOM      8  N   UNL     1      -1.068  -6.240  -2.956  0.00  0.00    -0.349 N 
ATOM      9  C   UNL     1      -1.047  -7.281  -3.995  0.00  0.00    +0.173 C 
ATOM     10  C   UNL     1       0.322  -7.135  -4.630  0.00  0.00    +0.249 C 
ATOM     11  O   UNL     1       0.786  -7.788  -5.540  0.00  0.00    -0.273 OA
ATOM     12  N   UNL     1       0.910  -6.117  -3.968  0.00  0.00    -0.208 N 
ATOM     13  H   UNL     1      -1.802  -6.050  -2.350  0.00  0.00    +0.163 HD
ENDROOT
BRANCH  12  14
ATOM     14  C   UNL     1       2.199  -5.631  -4.233  0.00  0.00    +0.085 A 
ATOM     15  C   UNL     1       3.295  -6.174  -3.579  0.00  0.00    +0.027 A 
ATOM     16  C   UNL     1       4.564  -5.694  -3.841  0.00  0.00    +0.002 A 
ATOM     17  C   UNL     1       4.745  -4.672  -4.755  0.00  0.00    +0.004 A 
ATOM     18  C   UNL     1       3.658  -4.125  -5.410  0.00  0.00    +0.047 A 
ATOM     19  C   UNL     1       2.383  -4.605  -5.157  0.00  0.00    +0.142 A 
BRANCH  19  20
ATOM     20  O   UNL     1       1.313  -4.072  -5.805  0.00  0.00    -0.493 OA
ATOM     21  C   UNL     1       1.577  -3.023  -6.739  0.00  0.00    +0.277 C 
ENDBRANCH  19  20
ENDBRANCH  12  14
BRANCH   1  22
ATOM     22  C   UNL     1       0.834  -2.870   1.647  0.00  0.00    +0.084 C 
BRANCH  22  24
ATOM     23  C   UNL     1       2.258  -2.025   3.518  0.00  0.00    +0.005 C 
ATOM     24  C   UNL     1       2.219  -2.338   2.021  0.00  0.00    +0.012 C 
ENDBRANCH  22  24
ENDBRANCH   1  22
BRANCH   9  25
ATOM     25  C   UNL     1      -1.206  -8.668  -3.370  0.00  0.00    +0.069 C 
BRANCH  25  26
ATOM     26  C   UNL     1      -2.570  -8.781  -2.738  0.00  0.00    -0.045 A 
ATOM     27  C   UNL     1      -2.753  -8.412  -1.419  0.00  0.00    +0.004 A 
ATOM     28  C   UNL     1      -4.004  -8.516  -0.840  0.00  0.00    +0.000 A 
ATOM     29  C   UNL     1      -5.072  -8.987  -1.580  0.00  0.00    +0.000 A 
ATOM     30  C   UNL     1      -4.889  -9.354  -2.900  0.00  0.00    +0.000 A 
ATOM     31  C   UNL     1      -3.639  -9.247  -3.481  0.00  0.00    +0.004 A 
ENDBRANCH  25  26
ENDBRANCH   9  25
TORSDOF 6
