REMARK  Name = ZINC04749232
REMARK  4 active torsions:
REMARK  status: ('A' for Active; 'I' for Inactive)
REMARK    1  A    between atoms: C_1  and  C_2
REMARK    2  A    between atoms: C_4  and  C_7
REMARK    3  A    between atoms: N_9  and  C_10
REMARK    4  A    between atoms: C_15  and  N_16
REMARK                            x       y       z     vdW  Elec       q    Type
REMARK                         _______ _______ _______ _____ _____    ______ ____
ROOT
ATOM      1  C   UNL     1      -1.736  -3.307  -0.023  0.00  0.00    +0.249 C 
ATOM      2  O   UNL     1      -2.910  -2.989  -0.002  0.00  0.00    -0.270 OA
ATOM      3  N   UNL     1      -1.391  -4.609  -0.030  0.00  0.00    -0.280 N 
ATOM      4  H   UNL     1      -0.458  -4.863  -0.112  0.00  0.00    +0.155 HD
ENDROOT
BRANCH   1   8
ATOM      5  C   UNL     1       0.006   1.492  -0.052  0.00  0.00    +0.051 C 
ATOM      6  C   UNL     1       0.021  -0.015  -0.053  0.00  0.00    -0.013 A 
ATOM      7  C   UNL     1      -1.025  -0.864  -0.035  0.00  0.00    +0.024 A 
ATOM      8  C   UNL     1      -0.694  -2.269  -0.042  0.00  0.00    +0.044 A 
ATOM      9  C   UNL     1       0.645  -2.592  -0.065  0.00  0.00    +0.058 A 
ATOM     10  S   UNL     1       1.426  -1.107  -0.086  0.00  0.00    -0.101 S 
ENDBRANCH   1   8
BRANCH   3  11
ATOM     11  C   UNL     1      -2.377  -5.595   0.082  0.00  0.00    +0.064 A 
ATOM     12  C   UNL     1      -3.622  -5.403  -0.503  0.00  0.00    +0.025 A 
ATOM     13  C   UNL     1      -4.593  -6.379  -0.391  0.00  0.00    +0.002 A 
ATOM     14  C   UNL     1      -4.327  -7.546   0.302  0.00  0.00    +0.002 A 
ATOM     15  C   UNL     1      -3.088  -7.740   0.885  0.00  0.00    +0.034 A 
ATOM     16  C   UNL     1      -2.111  -6.770   0.772  0.00  0.00    +0.147 A 
BRANCH  16  17
ATOM     17  N   UNL     1      -0.783  -6.981   1.392  0.00  0.00    +0.058 N 
ATOM     18  O   UNL     1      -0.518  -8.042   1.909  0.00  0.00    -0.126 OA
ATOM     19  O   UNL     1       0.037  -6.093   1.381  0.00  0.00    -0.126 OA
ENDBRANCH  16  17
ENDBRANCH   3  11
TORSDOF 3
