REMARK  Name = ZINC19799243
REMARK  3 active torsions:
REMARK  status: ('A' for Active; 'I' for Inactive)
REMARK    1  A    between atoms: C_1  and  C_2
REMARK    2  A    between atoms: C_3  and  C_12
REMARK    3  A    between atoms: C_12  and  N_13
REMARK                            x       y       z     vdW  Elec       q    Type
REMARK                         _______ _______ _______ _____ _____    ______ ____
ROOT
ATOM      1  C   UNL     1       4.737   2.528  -0.032  0.00  0.00    +0.067 C 
ATOM      2  C   UNL     1       3.231   2.488  -0.017  0.00  0.00    +0.062 A 
ATOM      3  C   UNL     1       2.473   1.369  -0.015  0.00  0.00    +0.063 A 
ATOM      4  N   UNL     1       1.164   1.768   0.000  0.00  0.00    -0.300 N 
ATOM      5  C   UNL     1      -0.013   1.076   0.008  0.00  0.00    +0.113 A 
ATOM      6  C   UNL     1      -1.195   1.729   0.017  0.00  0.00    +0.058 A 
ATOM      7  C   UNL     1      -1.228   3.134   0.031  0.00  0.00    +0.025 A 
ATOM      8  C   UNL     1      -0.062   3.835   0.024  0.00  0.00    +0.048 A 
ATOM      9  C   UNL     1       1.163   3.139   0.008  0.00  0.00    +0.138 A 
ATOM     10  N   UNL     1       2.423   3.550  -0.003  0.00  0.00    -0.233 NA
ATOM     11 CL   UNL     1      -2.679   0.829   0.019  0.00  0.00    -0.082 Cl
ENDROOT
BRANCH   3  12
ATOM     12  C   UNL     1       2.974  -0.052  -0.027  0.00  0.00    +0.158 C 
BRANCH  12  13
ATOM     13  N   UNL     1       3.123  -0.505  -1.412  0.00  0.00    -0.321 N 
ATOM     14  C   UNL     1       3.575  -1.794  -1.677  0.00  0.00    +0.162 A 
ATOM     15  C   UNL     1       3.939  -2.783  -0.724  0.00  0.00    +0.087 A 
ATOM     16  C   UNL     1       4.301  -3.845  -1.479  0.00  0.00    +0.232 A 
ATOM     17  O   UNL     1       4.159  -3.472  -2.759  0.00  0.00    -0.361 OA
ATOM     18  N   UNL     1       3.757  -2.336  -2.853  0.00  0.00    -0.064 NA
ATOM     19  H   UNL     1       2.876   0.172  -2.242  0.00  0.00    +0.148 HD
ENDBRANCH  12  13
ENDBRANCH   3  12
TORSDOF 2
