REMARK  Name = ZINC35848992
REMARK  4 active torsions:
REMARK  status: ('A' for Active; 'I' for Inactive)
REMARK    1  A    between atoms: C_1  and  O_2
REMARK    2  A    between atoms: O_2  and  C_3
REMARK    3  A    between atoms: C_3  and  C_4
REMARK    4  A    between atoms: C_23  and  C_25
REMARK                            x       y       z     vdW  Elec       q    Type
REMARK                         _______ _______ _______ _____ _____    ______ ____
ROOT
ATOM      1  C   UNL     1      -2.153  -3.246   0.543  0.00  0.00    +0.158 A 
ATOM      2  N   UNL     1      -2.078  -3.844  -0.633  0.00  0.00    -0.214 NA
ATOM      3  C   UNL     1      -0.924  -4.041  -1.251  0.00  0.00    +0.134 A 
ATOM      4  C   UNL     1       0.277  -3.596  -0.632  0.00  0.00    +0.051 A 
ATOM      5  C   UNL     1       1.653  -3.704  -1.119  0.00  0.00    -0.025 A 
ATOM      6  C   UNL     1       2.622  -3.195  -0.332  0.00  0.00    -0.004 A 
ATOM      7  S   UNL     1       1.776  -2.550   1.086  0.00  0.00    -0.073 S 
ATOM      8  C   UNL     1       0.116  -2.967   0.619  0.00  0.00    +0.114 A 
ATOM      9  N   UNL     1      -1.075  -2.806   1.162  0.00  0.00    -0.222 NA
ATOM     10  C   UNL     1       4.096  -3.181  -0.601  0.00  0.00    +0.043 C 
ATOM     11  C   UNL     1       4.391  -4.167  -1.740  0.00  0.00    +0.005 C 
ATOM     12  C   UNL     1       3.397  -3.912  -2.878  0.00  0.00    +0.005 C 
ATOM     13  C   UNL     1       1.997  -4.359  -2.454  0.00  0.00    +0.037 C 
ATOM     14  N   UNL     1      -0.887  -4.672  -2.481  0.00  0.00    -0.312 N 
ATOM     15  C   UNL     1      -0.639  -6.118  -2.573  0.00  0.00    +0.125 C 
ATOM     16  C   UNL     1      -1.788  -6.763  -3.359  0.00  0.00    +0.126 C 
ATOM     17  N   UNL     1      -1.996  -5.999  -4.598  0.00  0.00    -0.298 N 
ATOM     18  C   UNL     1      -2.243  -4.554  -4.506  0.00  0.00    +0.126 C 
ATOM     19  C   UNL     1      -1.101  -3.910  -3.719  0.00  0.00    +0.125 C 
ATOM     20  C   UNL     1      -1.959  -6.614  -5.797  0.00  0.00    +0.219 C 
ATOM     21  O   UNL     1      -2.033  -5.960  -6.816  0.00  0.00    -0.275 OA
ENDROOT
BRANCH  20  22
ATOM     22  C   UNL     1      -1.827  -8.113  -5.871  0.00  0.00    +0.075 C 
ATOM     23  C   UNL     1      -3.136  -8.797  -5.404  0.00  0.00    +0.013 C 
ATOM     24  C   UNL     1      -3.063 -10.182  -6.094  0.00  0.00    +0.001 C 
ATOM     25  C   UNL     1      -2.449  -9.884  -7.477  0.00  0.00    +0.001 C 
ATOM     26  C   UNL     1      -1.663  -8.569  -7.336  0.00  0.00    +0.013 C 
ENDBRANCH  20  22
BRANCH   1  27
ATOM     27  C   UNL     1      -3.502  -3.056   1.188  0.00  0.00    +0.235 C 
BRANCH  27  29
ATOM     28  C   UNL     1      -5.343  -1.528   1.329  0.00  0.00    +0.194 C 
ATOM     29  O   UNL     1      -4.057  -1.807   0.772  0.00  0.00    -0.375 OA
ENDBRANCH  27  29
ENDBRANCH   1  27
TORSDOF 3
