REMARK  Name = ZINC41014094
REMARK  8 active torsions:
REMARK  status: ('A' for Active; 'I' for Inactive)
REMARK    1  A    between atoms: C_1  and  C_2
REMARK    2  A    between atoms: C_4  and  C_28
REMARK    3  A    between atoms: C_6  and  O_8
REMARK    4  A    between atoms: O_8  and  C_9
REMARK    5  A    between atoms: C_9  and  C_11
REMARK    6  A    between atoms: C_9  and  C_12
REMARK    7  A    between atoms: N_14  and  C_15
REMARK    8  A    between atoms: C_24  and  C_27
REMARK                            x       y       z     vdW  Elec       q    Type
REMARK                         _______ _______ _______ _____ _____    ______ ____
ROOT
ATOM      1  C   UNL     1       0.845  -2.843   4.640  0.00  0.00    +0.258 C 
ATOM      2  O   UNL     1       1.174  -3.991   4.431  0.00  0.00    -0.271 OA
ATOM      3  N   UNL     1       1.211  -2.235   5.786  0.00  0.00    -0.282 N 
ATOM      4  H   UNL     1       0.888  -1.343   5.986  0.00  0.00    +0.155 HD
ENDROOT
BRANCH   3   5
ATOM      5  C   UNL     1       2.059  -2.892   6.687  0.00  0.00    +0.035 A 
ATOM      6  C   UNL     1       3.042  -3.751   6.215  0.00  0.00    +0.027 A 
ATOM      7  C   UNL     1       3.882  -4.401   7.101  0.00  0.00    +0.049 A 
ATOM      8  C   UNL     1       3.742  -4.196   8.462  0.00  0.00    +0.143 A 
ATOM      9  C   UNL     1       2.755  -3.335   8.940  0.00  0.00    +0.077 A 
ATOM     10  C   UNL     1       1.919  -2.679   8.052  0.00  0.00    +0.050 A 
ATOM     11  N   UNL     1       2.626  -3.139  10.322  0.00  0.00    -0.279 N 
ATOM     12  C   UNL     1       3.634  -3.524  11.135  0.00  0.00    +0.258 C 
ATOM     13  O   UNL     1       3.532  -3.392  12.336  0.00  0.00    -0.271 OA
ATOM     14  C   UNL     1       4.887  -4.117  10.543  0.00  0.00    +0.256 C 
ATOM     15  O   UNL     1       4.562  -4.828   9.345  0.00  0.00    -0.478 OA
ATOM     16  C   UNL     1       5.520  -5.080  11.550  0.00  0.00    +0.062 C 
ATOM     17  H   UNL     1       1.825  -2.733  10.689  0.00  0.00    +0.155 HD
ENDBRANCH   3   5
BRANCH   1  18
ATOM     18  C   UNL     1       0.027  -2.095   3.619  0.00  0.00    +0.256 C 
ATOM     19  C   UNL     1      -1.299  -1.660   4.247  0.00  0.00    +0.062 C 
BRANCH  18  20
ATOM     20  O   UNL     1      -0.232  -2.946   2.501  0.00  0.00    -0.480 OA
BRANCH  20  26
ATOM     21  C   UNL     1      -0.956   1.153  -0.048  0.00  0.00    +0.044 C 
ATOM     22  C   UNL     1      -0.838  -0.348   0.028  0.00  0.00    -0.047 A 
ATOM     23  C   UNL     1      -0.981  -1.110  -1.117  0.00  0.00    +0.007 A 
ATOM     24  C   UNL     1      -0.874  -2.487  -1.051  0.00  0.00    -0.047 A 
ATOM     25  C   UNL     1      -0.623  -3.104   0.159  0.00  0.00    +0.049 A 
ATOM     26  C   UNL     1      -0.479  -2.342   1.309  0.00  0.00    +0.122 A 
ATOM     27  C   UNL     1      -0.582  -0.960   1.239  0.00  0.00    +0.049 A 
ATOM     28  C   UNL     1      -1.030  -3.315  -2.300  0.00  0.00    +0.044 C 
ENDBRANCH  20  26
ENDBRANCH  18  20
ENDBRANCH   1  18
TORSDOF 4
