REMARK  Name = ZINC15075321
REMARK  5 active torsions:
REMARK  status: ('A' for Active; 'I' for Inactive)
REMARK    1  A    between atoms: C_1  and  N_58
REMARK    2  A    between atoms: C_2  and  C_3
REMARK    3  A    between atoms: C_2  and  N_58
REMARK    4  A    between atoms: C_4  and  C_13
REMARK    5  A    between atoms: C_25  and  N_58
REMARK                            x       y       z     vdW  Elec       q    Type
REMARK                         _______ _______ _______ _____ _____    ______ ____
ROOT
ATOM      1  C   UNL     1      -2.825  -2.459  -0.192  0.00  0.00    +0.039 A 
ATOM      2  C   UNL     1      -3.672  -2.817   0.818  0.00  0.00    +0.146 A 
ATOM      3  N   UNL     1      -4.829  -3.228   0.269  0.00  0.00    -0.223 NA
ATOM      4  C   UNL     1      -4.737  -3.140  -1.048  0.00  0.00    +0.139 A 
ATOM      5  N   UNL     1      -3.493  -2.655  -1.363  0.00  0.00    -0.303 N 
ATOM      6  C   UNL     1      -3.136  -2.460  -2.668  0.00  0.00    +0.113 A 
ATOM      7  C   UNL     1      -4.002  -2.738  -3.666  0.00  0.00    +0.058 A 
ATOM      8  C   UNL     1      -5.286  -3.233  -3.374  0.00  0.00    +0.025 A 
ATOM      9  C   UNL     1      -5.651  -3.440  -2.082  0.00  0.00    +0.048 A 
ATOM     10 CL   UNL     1      -3.528  -2.483  -5.316  0.00  0.00    -0.082 Cl
ENDROOT
BRANCH   2  11
ATOM     11  C   UNL     1      -3.370  -2.763   2.262  0.00  0.00    +0.267 C 
ATOM     12  O   UNL     1      -2.249  -2.479   2.638  0.00  0.00    -0.268 OA
ATOM     13  N   UNL     1      -4.337  -3.028   3.163  0.00  0.00    -0.292 N 
ATOM     14  C   UNL     1      -4.087  -2.914   4.609  0.00  0.00    +0.113 C 
ATOM     15  C   UNL     1      -4.983  -1.794   5.149  0.00  0.00    +0.054 C 
ATOM     16  C   UNL     1      -6.395  -1.951   4.650  0.00  0.00    -0.041 A 
ATOM     17  C   UNL     1      -7.402  -1.299   5.351  0.00  0.00    +0.004 A 
ATOM     18  C   UNL     1      -8.716  -1.391   4.941  0.00  0.00    +0.000 A 
ATOM     19  C   UNL     1      -9.036  -2.138   3.823  0.00  0.00    +0.000 A 
ATOM     20  C   UNL     1      -8.039  -2.791   3.127  0.00  0.00    +0.005 A 
ATOM     21  C   UNL     1      -6.717  -2.701   3.541  0.00  0.00    -0.027 A 
ATOM     22  C   UNL     1      -5.678  -3.447   2.742  0.00  0.00    +0.143 C 
ENDBRANCH   2  11
BRANCH   1  23
ATOM     23  C   UNL     1      -1.419  -1.938  -0.039  0.00  0.00    -0.022 C 
BRANCH  23  25
ATOM     24  C   UNL     1      -2.115  -0.046   1.301  0.00  0.00    -0.095 C 
ATOM     25  N   UNL     1      -1.463  -0.463   0.042  0.00  0.00    +0.384 N 
ATOM     26  H   UNL     1      -2.006  -0.102  -0.751  0.00  0.00    -0.081 HD
BRANCH  25  27
ATOM     27  C   UNL     1      -0.092   0.087  -0.024  0.00  0.00    -0.064 C 
ATOM     28  C   UNL     1      -0.171   1.617  -0.038  0.00  0.00    +0.013 C 
ATOM     29  C   UNL     1       1.248   2.192  -0.051  0.00  0.00    +0.158 C 
ATOM     30  O   UNL     1       1.965   1.713   1.089  0.00  0.00    -0.380 OA
ATOM     31  C   UNL     1       2.111   0.292   1.131  0.00  0.00    +0.158 C 
ATOM     32  C   UNL     1       0.727  -0.360   1.191  0.00  0.00    +0.013 C 
ENDBRANCH  25  27
ENDBRANCH  23  25
ENDBRANCH   1  23
TORSDOF 4
