REMARK  Name = ZINC14755264
REMARK  6 active torsions:
REMARK  status: ('A' for Active; 'I' for Inactive)
REMARK    1  A    between atoms: C_1  and  N_2
REMARK    2  A    between atoms: N_5  and  C_24
REMARK    3  A    between atoms: C_13  and  N_64
REMARK    4  A    between atoms: C_24  and  C_25
REMARK    5  A    between atoms: C_25  and  C_26
REMARK    6  A    between atoms: C_26  and  C_27
REMARK                            x       y       z     vdW  Elec       q    Type
REMARK                         _______ _______ _______ _____ _____    ______ ____
ROOT
ATOM      1  C   UNL     1       6.480   4.456   3.196  0.00  0.00    +0.134 C 
ATOM      2  N   UNL     1       7.424   5.128   2.299  0.00  0.00    -0.274 N 
ATOM      3  C   UNL     1       8.515   5.831   2.655  0.00  0.00    +0.312 C 
ATOM      4  O   UNL     1       8.864   6.001   3.807  0.00  0.00    -0.252 OA
ATOM      5  N   UNL     1       9.174   6.323   1.598  0.00  0.00    -0.224 N 
ATOM      6  C   UNL     1       8.573   5.986   0.438  0.00  0.00    +0.247 C 
ATOM      7  O   UNL     1       8.927   6.279  -0.684  0.00  0.00    -0.273 OA
ATOM      8  C   UNL     1       7.366   5.167   0.832  0.00  0.00    +0.112 C 
ATOM      9  C   UNL     1       6.083   5.847   0.365  0.00  0.00    +0.017 C 
ATOM     10  C   UNL     1       4.881   4.982   0.754  0.00  0.00    -0.076 C 
ATOM     11  C   UNL     1       6.218   2.962   0.647  0.00  0.00    -0.076 C 
ATOM     12  C   UNL     1       7.465   3.759   0.254  0.00  0.00    +0.017 C 
ATOM     13  N   UNL     1       5.022   3.654   0.120  0.00  0.00    +0.382 N 
ATOM     14  H   UNL     1       5.130   3.779  -0.894  0.00  0.00    -0.081 HD
ENDROOT
BRANCH  13  15
ATOM     15  C   UNL     1       3.815   2.841   0.376  0.00  0.00    -0.064 C 
ATOM     16  C   UNL     1       2.623   3.475  -0.350  0.00  0.00    -0.010 C 
ATOM     17  C   UNL     1       1.452   2.496  -0.299  0.00  0.00    +0.034 C 
ATOM     18  C   UNL     1       1.210   2.032   1.113  0.00  0.00    -0.044 A 
ATOM     19  C   UNL     1      -0.016   1.446   1.401  0.00  0.00    +0.004 A 
ATOM     20  C   UNL     1      -0.296   0.994   2.674  0.00  0.00    +0.000 A 
ATOM     21  C   UNL     1       0.656   1.115   3.670  0.00  0.00    +0.000 A 
ATOM     22  C   UNL     1       1.873   1.698   3.386  0.00  0.00    +0.004 A 
ATOM     23  C   UNL     1       2.154   2.161   2.107  0.00  0.00    -0.046 A 
ATOM     24  C   UNL     1       3.499   2.795   1.870  0.00  0.00    +0.020 C 
ENDBRANCH  13  15
BRANCH   5  25
ATOM     25  C   UNL     1      10.396   7.126   1.690  0.00  0.00    +0.118 C 
BRANCH  25  26
ATOM     26  C   UNL     1      10.026   8.608   1.786  0.00  0.00    +0.024 C 
BRANCH  26  27
ATOM     27  C   UNL     1      11.302   9.447   1.882  0.00  0.00    +0.037 C 
BRANCH  27  28
ATOM     28  C   UNL     1      10.937  10.906   1.976  0.00  0.00    -0.044 A 
ATOM     29  C   UNL     1      10.805  11.680   0.833  0.00  0.00    +0.023 A 
ATOM     30  C   UNL     1      10.465  13.013   0.958  0.00  0.00    +0.111 A 
ATOM     31  N   UNL     1      10.278  13.553   2.146  0.00  0.00    -0.263 NA
ATOM     32  C   UNL     1      10.400  12.849   3.255  0.00  0.00    +0.111 A 
ATOM     33  C   UNL     1      10.732  11.508   3.208  0.00  0.00    +0.023 A 
ENDBRANCH  27  28
ENDBRANCH  26  27
ENDBRANCH  25  26
ENDBRANCH   5  25
TORSDOF 5
