REMARK  Name = ZINC44764722
REMARK  3 active torsions:
REMARK  status: ('A' for Active; 'I' for Inactive)
REMARK    1  A    between atoms: C_3  and  N_9
REMARK    2  A    between atoms: C_10  and  C_12
REMARK    3  A    between atoms: C_12  and  C_18
REMARK                            x       y       z     vdW  Elec       q    Type
REMARK                         _______ _______ _______ _____ _____    ______ ____
ROOT
ATOM      1  N   UNL     1       3.584   2.127  -0.021  0.00  0.00    -0.283 N 
ATOM      2  C   UNL     1       3.568   3.471  -0.116  0.00  0.00    +0.237 C 
ATOM      3  O   UNL     1       2.512   4.067  -0.103  0.00  0.00    -0.274 OA
ATOM      4  H   UNL     1       4.429   1.656   0.049  0.00  0.00    +0.155 HD
ENDROOT
BRANCH   1   7
ATOM      5  C   UNL     1       0.065   1.243  -0.620  0.00  0.00    +0.022 A 
ATOM      6  C   UNL     1       1.250   1.953  -0.618  0.00  0.00    +0.026 A 
ATOM      7  C   UNL     1       2.381   1.410  -0.024  0.00  0.00    +0.052 A 
ATOM      8  C   UNL     1       2.318   0.154   0.567  0.00  0.00    +0.064 A 
ATOM      9  C   UNL     1       1.129  -0.551   0.562  0.00  0.00    +0.041 A 
ATOM     10  C   UNL     1       0.004  -0.007  -0.031  0.00  0.00    +0.042 A 
ATOM     11 CL   UNL     1      -1.488  -0.895  -0.035  0.00  0.00    -0.083 Cl
ATOM     12 CL   UNL     1       3.730  -0.528   1.311  0.00  0.00    -0.082 Cl
ENDBRANCH   1   7
BRANCH   2  13
ATOM     13  C   UNL     1       4.862   4.234  -0.238  0.00  0.00    +0.137 C 
ATOM     14  C   UNL     1       5.731   3.970   0.995  0.00  0.00    +0.059 C 
ATOM     15  C   UNL     1       7.008   4.809   0.900  0.00  0.00    +0.162 C 
ATOM     16  O   UNL     1       6.660   6.191   0.786  0.00  0.00    -0.380 OA
ATOM     17  C   UNL     1       5.888   6.505  -0.374  0.00  0.00    +0.162 C 
ATOM     18  C   UNL     1       4.566   5.734  -0.330  0.00  0.00    +0.059 C 
BRANCH  13  19
ATOM     19  C   UNL     1       5.578   3.799  -1.449  0.00  0.00    +0.079 C 
ATOM     20  N   UNL     1       6.130   3.463  -2.383  0.00  0.00    -0.195 NA
ENDBRANCH  13  19
ENDBRANCH   2  13
TORSDOF 3
