REMARK  Name = ZINC39312308
REMARK  5 active torsions:
REMARK  status: ('A' for Active; 'I' for Inactive)
REMARK    1  A    between atoms: C_1  and  C_2
REMARK    2  A    between atoms: C_7  and  C_12
REMARK    3  A    between atoms: C_19  and  C_20
REMARK    4  A    between atoms: C_20  and  O_22
REMARK    5  A    between atoms: O_22  and  C_23
REMARK                            x       y       z     vdW  Elec       q    Type
REMARK                         _______ _______ _______ _____ _____    ______ ____
ROOT
ATOM      1  C   UNL     1      -0.019   1.526   0.010  0.00  0.00    +0.019 C 
ATOM      2  C   UNL     1       0.002  -0.004   0.002  0.00  0.00    +0.077 C 
ATOM      3  C   UNL     1      -1.394  -0.558   0.078  0.00  0.00    +0.025 C 
ATOM      4  C   UNL     1      -1.447  -1.275   1.240  0.00  0.00    +0.050 C 
ATOM      5  C   UNL     1      -2.716  -1.985   1.667  0.00  0.00    +0.064 C 
ATOM      6  C   UNL     1      -3.909  -1.238   1.061  0.00  0.00    +0.032 C 
ATOM      7  C   UNL     1      -3.766  -1.145  -0.459  0.00  0.00    +0.088 C 
ATOM      8  C   UNL     1      -2.482  -0.422  -0.808  0.00  0.00    +0.162 C 
ATOM      9  O   UNL     1      -2.393   0.250  -1.815  0.00  0.00    -0.292 OA
ATOM     10  N   UNL     1      -0.280  -1.241   1.880  0.00  0.00    -0.248 NA
ATOM     11  C   UNL     1       0.643  -0.542   1.271  0.00  0.00    +0.132 C 
ENDROOT
BRANCH   6  12
ATOM     12  C   UNL     1      -5.180  -1.974   1.397  0.00  0.00    -0.044 A 
ATOM     13  C   UNL     1      -5.351  -3.282   0.983  0.00  0.00    +0.004 A 
ATOM     14  C   UNL     1      -6.517  -3.957   1.291  0.00  0.00    +0.000 A 
ATOM     15  C   UNL     1      -7.512  -3.325   2.013  0.00  0.00    +0.000 A 
ATOM     16  C   UNL     1      -7.341  -2.017   2.427  0.00  0.00    +0.000 A 
ATOM     17  C   UNL     1      -6.173  -1.343   2.123  0.00  0.00    +0.004 A 
ENDBRANCH   6  12
BRANCH  11  18
ATOM     18  C   UNL     1       2.032  -0.318   1.723  0.00  0.00    +0.354 C 
ATOM     19  O   UNL     1       2.786   0.358   1.054  0.00  0.00    -0.244 OA
BRANCH  18  20
ATOM     20  O   UNL     1       2.460  -0.863   2.878  0.00  0.00    -0.457 OA
BRANCH  20  21
ATOM     21  C   UNL     1       3.815  -0.605   3.255  0.00  0.00    +0.177 C 
ATOM     22  C   UNL     1       4.721  -1.692   2.675  0.00  0.00    +0.044 C 
ATOM     23  C   UNL     1       6.171  -1.416   3.077  0.00  0.00    +0.004 C 
ATOM     24  C   UNL     1       6.286  -1.417   4.603  0.00  0.00    +0.000 C 
ATOM     25  C   UNL     1       5.379  -0.329   5.183  0.00  0.00    +0.004 C 
ATOM     26  C   UNL     1       3.929  -0.606   4.780  0.00  0.00    +0.044 C 
ENDBRANCH  20  21
ENDBRANCH  18  20
ENDBRANCH  11  18
TORSDOF 4
