REMARK  Name = ZINC64537396
REMARK  4 active torsions:
REMARK  status: ('A' for Active; 'I' for Inactive)
REMARK    1  A    between atoms: C_1  and  C_2
REMARK    2  A    between atoms: C_2  and  C_20
REMARK    3  A    between atoms: N_7  and  C_8
REMARK    4  A    between atoms: C_8  and  N_9
REMARK                            x       y       z     vdW  Elec       q    Type
REMARK                         _______ _______ _______ _____ _____    ______ ____
ROOT
ATOM      1  N   UNL     1       2.876  -1.180   1.902  0.00  0.00    -0.261 N 
ATOM      2  C   UNL     1       3.150  -1.233   3.268  0.00  0.00    +0.093 A 
ATOM      3  C   UNL     1       2.815  -0.418   4.338  0.00  0.00    +0.049 A 
ATOM      4  C   UNL     1       3.247  -0.742   5.611  0.00  0.00    +0.043 A 
ATOM      5  C   UNL     1       4.011  -1.879   5.818  0.00  0.00    +0.024 A 
ATOM      6  C   UNL     1       4.348  -2.695   4.755  0.00  0.00    +0.050 A 
ATOM      7  C   UNL     1       3.919  -2.377   3.476  0.00  0.00    +0.157 A 
ATOM      8  O   UNL     1       4.090  -2.973   2.270  0.00  0.00    -0.407 OA
ATOM      9  C   UNL     1       3.457  -2.253   1.330  0.00  0.00    +0.422 A 
ATOM     10  O   UNL     1       3.417  -2.526   0.146  0.00  0.00    -0.223 OA
ATOM     11 CL   UNL     1       2.829   0.277   6.952  0.00  0.00    -0.083 Cl
ENDROOT
BRANCH   1  12
ATOM     12  C   UNL     1       2.095  -0.148   1.214  0.00  0.00    +0.216 C 
BRANCH  12  19
ATOM     13  C   UNL     1       0.007   1.619   0.248  0.00  0.00    +0.030 C 
ATOM     14  C   UNL     1      -0.027   0.100   0.072  0.00  0.00    +0.041 C 
ATOM     15  C   UNL     1      -1.480  -0.381   0.051  0.00  0.00    +0.181 C 
ATOM     16  O   UNL     1      -2.091  -0.092   1.312  0.00  0.00    -0.377 OA
ATOM     17  C   UNL     1      -1.429  -0.700   2.425  0.00  0.00    +0.175 C 
ATOM     18  C   UNL     1       0.025  -0.222   2.470  0.00  0.00    +0.114 C 
ATOM     19  N   UNL     1       0.679  -0.540   1.192  0.00  0.00    -0.275 NA
ATOM     20  C   UNL     1       0.656  -0.277  -1.244  0.00  0.00    +0.030 C 
ENDBRANCH  12  19
ENDBRANCH   1  12
TORSDOF 2
