REMARK  Name = ZINC07191853
REMARK  8 active torsions:
REMARK  status: ('A' for Active; 'I' for Inactive)
REMARK    1  A    between atoms: C_1  and  C_2
REMARK    2  A    between atoms: C_2  and  N_3
REMARK    3  A    between atoms: C_7  and  S_22
REMARK    4  A    between atoms: C_11  and  C_12
REMARK    5  A    between atoms: C_12  and  N_63
REMARK    6  A    between atoms: C_14  and  C_21
REMARK    7  A    between atoms: C_17  and  C_20
REMARK    8  A    between atoms: S_22  and  N_25
REMARK                            x       y       z     vdW  Elec       q    Type
REMARK                         _______ _______ _______ _____ _____    ______ ____
ROOT
ATOM      1  N   UNL     1      -0.117   2.212   2.439  0.00  0.00    -0.329 N 
ATOM      2  C   UNL     1      -1.097   2.634   3.316  0.00  0.00    +0.069 A 
ATOM      3  C   UNL     1      -1.098   3.034   4.645  0.00  0.00    +0.030 A 
ATOM      4  C   UNL     1      -2.283   3.405   5.245  0.00  0.00    +0.030 A 
ATOM      5  C   UNL     1      -3.472   3.380   4.530  0.00  0.00    +0.108 A 
ATOM      6  C   UNL     1      -3.490   2.988   3.222  0.00  0.00    +0.058 A 
ATOM      7  C   UNL     1      -2.301   2.608   2.592  0.00  0.00    +0.091 A 
ATOM      8  N   UNL     1      -2.000   2.187   1.337  0.00  0.00    -0.234 NA
ATOM      9  C   UNL     1      -0.723   1.951   1.250  0.00  0.00    +0.094 A 
ENDROOT
BRANCH   5  10
ATOM     10  S   UNL     1      -4.973   3.858   5.318  0.00  0.00    +0.061 S 
ATOM     11  O   UNL     1      -6.027   3.229   4.601  0.00  0.00    -0.153 OA
ATOM     12  O   UNL     1      -4.780   3.666   6.713  0.00  0.00    -0.153 OA
BRANCH  10  13
ATOM     13  N   UNL     1      -5.151   5.488   5.086  0.00  0.00    -0.177 NA
ATOM     14  C   UNL     1      -4.603   6.447   6.056  0.00  0.00    +0.109 C 
ATOM     15  C   UNL     1      -3.709   7.445   5.304  0.00  0.00    +0.017 C 
ATOM     16  C   UNL     1      -4.512   8.087   4.171  0.00  0.00    +0.003 C 
ATOM     17  C   UNL     1      -4.960   7.006   3.185  0.00  0.00    +0.017 C 
ATOM     18  C   UNL     1      -5.864   6.003   3.909  0.00  0.00    +0.109 C 
ENDBRANCH  10  13
ENDBRANCH   5  10
BRANCH   1  20
ATOM     19  C   UNL     1       2.026   3.390   2.427  0.00  0.00    +0.027 C 
ATOM     20  C   UNL     1       1.311   2.073   2.736  0.00  0.00    +0.120 C 
ENDBRANCH   1  20
BRANCH   9  21
ATOM     21  C   UNL     1      -0.018   1.465   0.010  0.00  0.00    -0.003 C 
BRANCH  21  29
ATOM     22  C   UNL     1       0.822  -0.525   1.103  0.00  0.00    -0.075 C 
ATOM     23  C   UNL     1       0.702  -2.050   1.153  0.00  0.00    -0.031 C 
ATOM     24  C   UNL     1       1.173  -2.637  -0.181  0.00  0.00    +0.003 C 
ATOM     25  C   UNL     1       0.336  -2.042  -1.316  0.00  0.00    -0.031 C 
ATOM     26  C   UNL     1       0.466  -0.517  -1.294  0.00  0.00    -0.075 C 
ATOM     27  C   UNL     1       0.839  -2.577  -2.658  0.00  0.00    +0.005 C 
ATOM     28  C   UNL     1      -0.757  -2.441   1.395  0.00  0.00    +0.005 C 
ATOM     29  N   UNL     1      -0.026  -0.013   0.006  0.00  0.00    +0.385 N 
ATOM     30  H   UNL     1      -0.989  -0.341   0.148  0.00  0.00    -0.081 HD
ENDBRANCH  21  29
ENDBRANCH   9  21
TORSDOF 5
