REMARK  Name = ZINC61692388
REMARK  3 active torsions:
REMARK  status: ('A' for Active; 'I' for Inactive)
REMARK    1  A    between atoms: C_3  and  N_21
REMARK    2  A    between atoms: C_4  and  C_8
REMARK    3  A    between atoms: N_12  and  C_13
REMARK                            x       y       z     vdW  Elec       q    Type
REMARK                         _______ _______ _______ _____ _____    ______ ____
ROOT
ATOM      1  C   UNL     1       3.692  -0.699  -0.071  0.00  0.00    +0.189 A 
ATOM      2  N   UNL     1       4.892  -0.161  -0.153  0.00  0.00    -0.108 NA
ATOM      3  N   UNL     1       5.798  -1.069  -0.099  0.00  0.00    -0.022 NA
ATOM      4  N   UNL     1       5.263  -2.236   0.018  0.00  0.00    -0.039 NA
ATOM      5  N   UNL     1       3.870  -2.047   0.048  0.00  0.00    -0.191 N 
ENDROOT
BRANCH   5   6
ATOM      6  C   UNL     1       2.879  -3.030   0.171  0.00  0.00    +0.089 A 
ATOM      7  C   UNL     1       1.797  -3.039  -0.699  0.00  0.00    +0.044 A 
ATOM      8  C   UNL     1       0.822  -4.010  -0.576  0.00  0.00    +0.020 A 
ATOM      9  C   UNL     1       0.923  -4.973   0.413  0.00  0.00    +0.017 A 
ATOM     10  C   UNL     1       1.999  -4.967   1.280  0.00  0.00    +0.023 A 
ATOM     11  C   UNL     1       2.981  -4.002   1.159  0.00  0.00    +0.067 A 
ATOM     12 CL   UNL     1       4.335  -3.998   2.245  0.00  0.00    -0.081 Cl
ATOM     13 BR   UNL     1      -0.653  -4.023  -1.760  0.00  0.00    -0.050 Br
ENDBRANCH   5   6
BRANCH   1  17
ATOM     14  C   UNL     1      -0.024   1.367  -0.146  0.00  0.00    +0.022 A 
ATOM     15  C   UNL     1       0.934   1.651  -1.100  0.00  0.00    +0.025 A 
ATOM     16  C   UNL     1       2.150   0.982  -1.084  0.00  0.00    +0.036 A 
ATOM     17  C   UNL     1       2.401   0.019  -0.097  0.00  0.00    +0.043 A 
ATOM     18  C   UNL     1       1.426  -0.257   0.861  0.00  0.00    +0.033 A 
ATOM     19  C   UNL     1       0.221   0.417   0.832  0.00  0.00    +0.042 A 
ATOM     20 CL   UNL     1      -0.992   0.071   2.024  0.00  0.00    -0.084 Cl
BRANCH  16  21
ATOM     21  N   UNL     1       3.117   1.266  -2.047  0.00  0.00    -0.357 N 
ATOM     22  H   UNL     1       2.941   1.933  -2.729  0.00  0.00    +0.142 HD
ATOM     23  H   UNL     1       3.966   0.798  -2.034  0.00  0.00    +0.142 HD
ENDBRANCH  16  21
ENDBRANCH   1  17
TORSDOF 3
