REMARK  Name = ZINC12776266
REMARK  6 active torsions:
REMARK  status: ('A' for Active; 'I' for Inactive)
REMARK    1  A    between atoms: C_1  and  C_2
REMARK    2  A    between atoms: N_4  and  C_5
REMARK    3  A    between atoms: C_7  and  O_35
REMARK    4  A    between atoms: C_15  and  C_18
REMARK    5  A    between atoms: C_25  and  O_27
REMARK    6  A    between atoms: O_27  and  C_28
REMARK                            x       y       z     vdW  Elec       q    Type
REMARK                         _______ _______ _______ _____ _____    ______ ____
ROOT
ATOM      1  C   UNL     1       2.045   1.604   1.252  0.00  0.00    +0.173 C 
ATOM      2  C   UNL     1       2.146   0.077   1.283  0.00  0.00    +0.172 C 
ATOM      3  C   UNL     1       0.736  -0.522   1.243  0.00  0.00    +0.183 C 
ATOM      4  C   UNL     1       0.002  -0.004   0.002  0.00  0.00    +0.179 C 
ATOM      5  C   UNL     1       0.730  -0.506  -1.249  0.00  0.00    +0.197 C 
ATOM      6  O   UNL     1       0.841  -1.931  -1.180  0.00  0.00    -0.345 OA
ATOM      7  C   UNL     1       1.522  -2.401  -0.014  0.00  0.00    +0.282 C 
ATOM      8  O   UNL     1       0.837  -1.948   1.156  0.00  0.00    -0.339 OA
ATOM      9  O   UNL     1      -0.017   1.422   0.010  0.00  0.00    -0.332 OA
ATOM     10  C   UNL     1       1.276   2.030   0.001  0.00  0.00    +0.331 C 
ENDROOT
BRANCH   7  11
ATOM     11  C   UNL     1       1.554  -3.908  -0.025  0.00  0.00    +0.008 A 
ATOM     12  C   UNL     1       0.973  -4.619   1.008  0.00  0.00    +0.008 A 
ATOM     13  C   UNL     1       0.998  -6.001   0.996  0.00  0.00    +0.000 A 
ATOM     14  C   UNL     1       1.613  -6.672  -0.045  0.00  0.00    +0.000 A 
ATOM     15  C   UNL     1       2.199  -5.960  -1.075  0.00  0.00    +0.000 A 
ATOM     16  C   UNL     1       2.170  -4.579  -1.065  0.00  0.00    +0.008 A 
ENDBRANCH   7  11
BRANCH   1  20
ATOM     17  C   UNL     1       0.816   3.803   4.134  0.00  0.00    +0.109 C 
ATOM     18  C   UNL     1       1.546   3.321   2.907  0.00  0.00    +0.210 C 
ATOM     19  O   UNL     1       2.323   4.057   2.336  0.00  0.00    -0.276 OA
ATOM     20  N   UNL     1       1.336   2.073   2.445  0.00  0.00    -0.304 N 
ATOM     21  H   UNL     1       0.714   1.485   2.902  0.00  0.00    +0.149 HD
ENDBRANCH   1  20
BRANCH   2  22
ATOM     22  O   UNL     1       2.805  -0.334   2.482  0.00  0.00    -0.387 OA
ATOM     23  H   UNL     1       3.705   0.009   2.573  0.00  0.00    +0.210 HD
ENDBRANCH   2  22
BRANCH  10  24
ATOM     24  O   UNL     1       1.993   1.609  -1.162  0.00  0.00    -0.462 OA
BRANCH  24  25
ATOM     25  C   UNL     1       1.558   2.083  -2.360  0.00  0.00    +0.124 A 
ATOM     26  C   UNL     1       0.461   2.930  -2.415  0.00  0.00    +0.047 A 
ATOM     27  C   UNL     1       0.024   3.413  -3.633  0.00  0.00    +0.023 A 
ATOM     28  C   UNL     1       0.673   3.045  -4.798  0.00  0.00    +0.041 A 
ATOM     29  C   UNL     1       1.764   2.196  -4.745  0.00  0.00    +0.023 A 
ATOM     30  C   UNL     1       2.208   1.715  -3.529  0.00  0.00    +0.047 A 
ATOM     31 CL   UNL     1       0.118   3.650  -6.327  0.00  0.00    -0.084 Cl
ENDBRANCH  24  25
ENDBRANCH  10  24
TORSDOF 5
