REMARK  Name = ZINC15862204
REMARK  3 active torsions:
REMARK  status: ('A' for Active; 'I' for Inactive)
REMARK    1  A    between atoms: C_1  and  C_2
REMARK    2  A    between atoms: N_7  and  S_9
REMARK    3  A    between atoms: S_9  and  C_12
REMARK                            x       y       z     vdW  Elec       q    Type
REMARK                         _______ _______ _______ _____ _____    ______ ____
ROOT
ATOM      1  C   UNL     1       3.565   3.233  -0.015  0.00  0.00    +0.190 A 
ATOM      2  C   UNL     1       2.405   3.938   0.000  0.00  0.00    +0.047 A 
ATOM      3  C   UNL     1       1.143   3.194   0.008  0.00  0.00    +0.019 A 
ATOM      4  C   UNL     1      -0.087   3.859   0.024  0.00  0.00    +0.011 A 
ATOM      5  C   UNL     1      -1.248   3.138   0.032  0.00  0.00    +0.001 A 
ATOM      6  C   UNL     1      -1.215   1.751   0.017  0.00  0.00    +0.004 A 
ATOM      7  C   UNL     1      -0.013   1.076   0.008  0.00  0.00    +0.047 A 
ATOM      8  C   UNL     1       1.180   1.789   0.000  0.00  0.00    +0.139 A 
ATOM      9  O   UNL     1       2.368   1.148  -0.014  0.00  0.00    -0.421 OA
ATOM     10  C   UNL     1       3.528   1.822  -0.022  0.00  0.00    +0.364 A 
ATOM     11  O   UNL     1       4.575   1.201  -0.036  0.00  0.00    -0.243 OA
ENDROOT
BRANCH   1  12
ATOM     12  S   UNL     1       5.112   4.077  -0.025  0.00  0.00    +0.068 S 
ATOM     13  O   UNL     1       5.887   3.490  -1.061  0.00  0.00    -0.153 OA
ATOM     14  O   UNL     1       4.817   5.466   0.012  0.00  0.00    -0.153 OA
BRANCH  12  20
ATOM     15  C   UNL     1       9.016   1.792   2.276  0.00  0.00    +0.009 C 
ATOM     16  C   UNL     1       8.122   3.010   2.039  0.00  0.00    +0.002 C 
ATOM     17  C   UNL     1       7.915   3.757   3.359  0.00  0.00    +0.006 C 
ATOM     18  C   UNL     1       7.048   4.995   3.116  0.00  0.00    +0.017 C 
ATOM     19  C   UNL     1       5.683   4.561   2.586  0.00  0.00    +0.109 C 
ATOM     20  N   UNL     1       5.876   3.717   1.399  0.00  0.00    -0.176 NA
ATOM     21  C   UNL     1       6.764   2.551   1.498  0.00  0.00    +0.112 C 
ENDBRANCH  12  20
ENDBRANCH   1  12
TORSDOF 2
