REMARK  Name = ZINC49210910
REMARK  1 active torsions:
REMARK  status: ('A' for Active; 'I' for Inactive)
REMARK    1  A    between atoms: C_2  and  C_18
REMARK                            x       y       z     vdW  Elec       q    Type
REMARK                         _______ _______ _______ _____ _____    ______ ____
ROOT
ATOM      1  C   UNL     1      -0.022   1.781   0.012  0.00  0.00    +0.080 A 
ATOM      2  C   UNL     1       1.306   2.052   0.001  0.00  0.00    +0.153 A 
ATOM      3  N   UNL     1       2.129   1.019  -0.013  0.00  0.00    -0.221 NA
ATOM      4  C   UNL     1       1.672  -0.214  -0.015  0.00  0.00    +0.166 A 
ATOM      5  S   UNL     1       0.002  -0.004   0.002  0.00  0.00    -0.060 S 
ATOM      6  N   UNL     1       2.393  -1.402  -0.029  0.00  0.00    -0.248 N 
ATOM      7  C   UNL     1       1.745  -2.584  -0.029  0.00  0.00    +0.308 C 
ATOM      8  O   UNL     1       0.529  -2.611  -0.017  0.00  0.00    -0.252 OA
ATOM      9  N   UNL     1       2.444  -3.736  -0.042  0.00  0.00    -0.282 N 
ATOM     10  C   UNL     1       3.915  -3.876  -0.051  0.00  0.00    +0.113 C 
ATOM     11  C   UNL     1       4.182  -5.413  -0.042  0.00  0.00    +0.008 C 
ATOM     12  C   UNL     1       3.762  -5.876  -1.472  0.00  0.00    +0.007 C 
ATOM     13  C   UNL     1       2.231  -5.664  -1.504  0.00  0.00    +0.023 C 
ATOM     14  C   UNL     1       1.883  -5.118  -0.044  0.00  0.00    +0.078 C 
ATOM     15  C   UNL     1       2.948  -5.884   0.810  0.00  0.00    +0.027 C 
ATOM     16  H   UNL     1       3.363  -1.381  -0.038  0.00  0.00    +0.158 HD
ENDROOT
BRANCH   2  17
ATOM     17  C   UNL     1       1.820   3.468   0.003  0.00  0.00    +0.435 C 
ATOM     18  F   UNL     1       1.992   3.900   1.322  0.00  0.00    -0.164 F 
ATOM     19  F   UNL     1       3.047   3.520  -0.668  0.00  0.00    -0.164 F 
ATOM     20  F   UNL     1       0.900   4.300  -0.644  0.00  0.00    -0.164 F 
ENDBRANCH   2  17
TORSDOF 1
