REMARK  Name = ZINC13524711
REMARK  3 active torsions:
REMARK  status: ('A' for Active; 'I' for Inactive)
REMARK    1  A    between atoms: C_1  and  C_2
REMARK    2  A    between atoms: C_2  and  C_3
REMARK    3  A    between atoms: C_2  and  N_4
REMARK                            x       y       z     vdW  Elec       q    Type
REMARK                         _______ _______ _______ _____ _____    ______ ____
ROOT
ATOM      1  N   UNL     1       1.958   5.561  -0.693  0.00  0.00    -0.313 N 
ATOM      2  C   UNL     1       2.227   4.256  -0.353  0.00  0.00    +0.205 C 
ATOM      3  N   UNL     1       3.461   3.872  -0.411  0.00  0.00    -0.097 NA
ATOM      4  S   UNL     1       3.887   2.316  -0.031  0.00  0.00    +0.103 S 
ATOM      5  O   UNL     1       4.369   2.337   1.305  0.00  0.00    -0.146 OA
ATOM      6  O   UNL     1       4.658   1.824  -1.119  0.00  0.00    -0.146 OA
ATOM      7  C   UNL     1       2.383   1.393  -0.016  0.00  0.00    +0.135 A 
ATOM      8  C   UNL     1       2.400   0.016  -0.023  0.00  0.00    +0.046 A 
ATOM      9  C   UNL     1       1.206  -0.686  -0.013  0.00  0.00    +0.020 A 
ATOM     10  C   UNL     1       0.002  -0.004   0.002  0.00  0.00    +0.017 A 
ATOM     11  C   UNL     1      -0.017   1.377   0.010  0.00  0.00    +0.026 A 
ATOM     12  C   UNL     1       1.178   2.086   0.002  0.00  0.00    +0.061 A 
ATOM     13  N   UNL     1       1.173   3.479   0.016  0.00  0.00    -0.285 N 
ATOM     14 BR   UNL     1       1.222  -2.577  -0.021  0.00  0.00    -0.050 Br
ATOM     15  H   UNL     1       1.046   5.892  -0.663  0.00  0.00    +0.149 HD
ATOM     16  H   UNL     1       0.362   3.925   0.308  0.00  0.00    +0.155 HD
ENDROOT
BRANCH   1  18
ATOM     17  C   UNL     1       2.490   7.569  -1.985  0.00  0.00    +0.027 C 
ATOM     18  C   UNL     1       3.048   6.452  -1.099  0.00  0.00    +0.067 C 
ATOM     19  C   UNL     1       3.697   7.064   0.144  0.00  0.00    +0.027 C 
ENDBRANCH   1  18
TORSDOF 1
