REMARK  Name = ZINC10273284
REMARK  8 active torsions:
REMARK  status: ('A' for Active; 'I' for Inactive)
REMARK    1  A    between atoms: C_1  and  C_2
REMARK    2  A    between atoms: C_5  and  C_8
REMARK    3  A    between atoms: C_10  and  C_27
REMARK    4  A    between atoms: C_11  and  C_16
REMARK    5  A    between atoms: C_16  and  S_17
REMARK    6  A    between atoms: S_17  and  C_20
REMARK    7  A    between atoms: C_27  and  O_29
REMARK    8  A    between atoms: O_29  and  C_30
REMARK                            x       y       z     vdW  Elec       q    Type
REMARK                         _______ _______ _______ _____ _____    ______ ____
ROOT
ATOM      1  C   UNL     1       0.043   1.167   0.041  0.00  0.00    +0.144 C 
ATOM      2  C   UNL     1      -0.725   1.462   1.314  0.00  0.00    +0.080 C 
ATOM      3  C   UNL     1      -1.863   2.180   1.209  0.00  0.00    +0.045 C 
ATOM      4  N   UNL     1      -2.306   2.625  -0.003  0.00  0.00    -0.271 N 
ATOM      5  C   UNL     1      -1.669   2.394  -1.158  0.00  0.00    +0.304 C 
ATOM      6  O   UNL     1      -2.141   2.832  -2.188  0.00  0.00    -0.252 OA
ATOM      7  N   UNL     1      -0.519   1.692  -1.214  0.00  0.00    -0.288 N 
ATOM      8  H   UNL     1      -3.130   3.138  -0.030  0.00  0.00    +0.156 HD
ATOM      9  H   UNL     1      -0.073   1.537  -2.061  0.00  0.00    +0.151 HD
ENDROOT
BRANCH   1  14
ATOM     10  C   UNL     1       5.373   3.319   0.640  0.00  0.00    +0.044 C 
ATOM     11  C   UNL     1       3.983   2.758   0.484  0.00  0.00    -0.050 A 
ATOM     12  C   UNL     1       3.743   1.423   0.751  0.00  0.00    +0.004 A 
ATOM     13  C   UNL     1       2.468   0.908   0.608  0.00  0.00    +0.006 A 
ATOM     14  C   UNL     1       1.433   1.728   0.198  0.00  0.00    -0.022 A 
ATOM     15  C   UNL     1       1.675   3.062  -0.074  0.00  0.00    +0.006 A 
ATOM     16  C   UNL     1       2.949   3.578   0.074  0.00  0.00    +0.004 A 
ENDBRANCH   1  14
BRANCH   2  17
ATOM     17  C   UNL     1      -0.266   1.000   2.569  0.00  0.00    +0.339 C 
ATOM     18  O   UNL     1      -0.453  -0.157   2.898  0.00  0.00    -0.245 OA
BRANCH  17  19
ATOM     19  O   UNL     1       0.380   1.842   3.403  0.00  0.00    -0.465 OA
ATOM     20  C   UNL     1       0.817   1.308   4.654  0.00  0.00    +0.280 C 
ENDBRANCH  17  19
ENDBRANCH   2  17
BRANCH   3  21
ATOM     21  C   UNL     1      -2.658   2.496   2.450  0.00  0.00    +0.223 C 
BRANCH  21  22
ATOM     22  S   UNL     1      -2.418   4.238   2.894  0.00  0.00    +0.002 S 
ATOM     23  O   UNL     1      -1.079   4.456   3.316  0.00  0.00    -0.169 OA
ATOM     24  O   UNL     1      -3.017   5.079   1.917  0.00  0.00    -0.169 OA
BRANCH  22  25
ATOM     25  C   UNL     1      -3.390   4.473   4.345  0.00  0.00    +0.089 A 
ATOM     26  C   UNL     1      -4.709   4.873   4.237  0.00  0.00    +0.028 A 
ATOM     27  C   UNL     1      -5.473   5.053   5.374  0.00  0.00    +0.017 A 
ATOM     28  C   UNL     1      -4.914   4.843   6.622  0.00  0.00    +0.018 A 
ATOM     29  C   UNL     1      -3.593   4.448   6.731  0.00  0.00    +0.017 A 
ATOM     30  C   UNL     1      -2.831   4.264   5.592  0.00  0.00    +0.028 A 
ATOM     31 BR   UNL     1      -5.957   5.095   8.180  0.00  0.00    -0.050 Br
ENDBRANCH  22  25
ENDBRANCH  21  22
ENDBRANCH   3  21
TORSDOF 6
