REMARK  Name = ZINC36620919
REMARK  7 active torsions:
REMARK  status: ('A' for Active; 'I' for Inactive)
REMARK    1  A    between atoms: C_1  and  O_2
REMARK    2  A    between atoms: O_2  and  C_3
REMARK    3  A    between atoms: C_6  and  C_11
REMARK    4  A    between atoms: C_8  and  O_9
REMARK    5  A    between atoms: O_9  and  C_10
REMARK    6  A    between atoms: C_13  and  C_16
REMARK    7  A    between atoms: C_22  and  C_24
REMARK                            x       y       z     vdW  Elec       q    Type
REMARK                         _______ _______ _______ _____ _____    ______ ____
ROOT
ATOM      1  C   UNL     1      -4.964  -2.615   0.035  0.00  0.00    +0.168 A 
ATOM      2  C   UNL     1      -6.183  -2.011   0.039  0.00  0.00    +0.086 A 
ATOM      3  C   UNL     1      -7.168  -3.022   0.047  0.00  0.00    +0.168 A 
ATOM      4  N   UNL     1      -6.557  -4.184   0.046  0.00  0.00    -0.073 NA
ATOM      5  O   UNL     1      -5.161  -3.946   0.034  0.00  0.00    -0.354 OA
ENDROOT
BRANCH   3   6
ATOM      6  C   UNL     1      -8.636  -2.810   0.053  0.00  0.00    +0.269 C 
ATOM      7  O   UNL     1      -9.086  -1.681   0.053  0.00  0.00    -0.268 OA
ATOM      8  N   UNL     1      -9.470  -3.868   0.060  0.00  0.00    -0.289 N 
ATOM      9  C   UNL     1      -9.061  -5.285   0.068  0.00  0.00    +0.109 C 
ATOM     10  C   UNL     1     -10.265  -6.048  -0.537  0.00  0.00    +0.021 C 
ATOM     11  C   UNL     1     -11.463  -5.253   0.044  0.00  0.00    +0.029 C 
ATOM     12  C   UNL     1     -10.939  -3.802   0.067  0.00  0.00    +0.107 C 
BRANCH  12  13
ATOM     13  C   UNL     1     -11.414  -3.102   1.315  0.00  0.00    -0.027 A 
ATOM     14  C   UNL     1     -10.768  -3.320   2.517  0.00  0.00    +0.008 A 
ATOM     15  C   UNL     1     -11.203  -2.678   3.662  0.00  0.00    +0.038 A 
ATOM     16  C   UNL     1     -12.286  -1.817   3.603  0.00  0.00    +0.123 A 
ATOM     17  C   UNL     1     -12.932  -1.600   2.398  0.00  0.00    +0.038 A 
ATOM     18  C   UNL     1     -12.492  -2.239   1.254  0.00  0.00    +0.008 A 
ATOM     19  F   UNL     1     -12.712  -1.190   4.721  0.00  0.00    -0.205 F 
ENDBRANCH  12  13
ENDBRANCH   3   6
BRANCH   1  23
ATOM     20  C   UNL     1      -1.200  -0.637   0.010  0.00  0.00    +0.162 A 
ATOM     21  C   UNL     1      -2.373   0.104   0.019  0.00  0.00    +0.050 A 
ATOM     22  C   UNL     1      -3.596  -0.534   0.027  0.00  0.00    +0.015 A 
ATOM     23  C   UNL     1      -3.655  -1.929   0.026  0.00  0.00    +0.024 A 
ATOM     24  C   UNL     1      -2.475  -2.675   0.016  0.00  0.00    +0.061 A 
ATOM     25  C   UNL     1      -1.253  -2.030   0.003  0.00  0.00    +0.162 A 
BRANCH  20  27
ATOM     26  C   UNL     1      -0.017   1.425   0.010  0.00  0.00    +0.277 C 
ATOM     27  O   UNL     1       0.002  -0.004   0.002  0.00  0.00    -0.491 OA
ENDBRANCH  20  27
BRANCH  25  28
ATOM     28  O   UNL     1      -0.101  -2.753  -0.012  0.00  0.00    -0.491 OA
ATOM     29  C   UNL     1      -0.230  -4.177  -0.018  0.00  0.00    +0.277 C 
ENDBRANCH  25  28
ENDBRANCH   1  23
TORSDOF 5
