REMARK  Name = ZINC19801755
REMARK  4 active torsions:
REMARK  status: ('A' for Active; 'I' for Inactive)
REMARK    1  A    between atoms: C_1  and  C_2
REMARK    2  A    between atoms: C_4  and  C_22
REMARK    3  A    between atoms: C_7  and  C_19
REMARK    4  A    between atoms: N_15  and  C_18
REMARK                            x       y       z     vdW  Elec       q    Type
REMARK                         _______ _______ _______ _____ _____    ______ ____
ROOT
ATOM      1  C   UNL     1      -3.718   1.735  -7.637  0.00  0.00    +0.044 C 
ATOM      2  C   UNL     1      -3.348   2.708  -6.548  0.00  0.00    -0.048 A 
ATOM      3  C   UNL     1      -3.710   4.048  -6.674  0.00  0.00    +0.007 A 
ATOM      4  C   UNL     1      -3.390   4.951  -5.707  0.00  0.00    -0.041 A 
ATOM      5  C   UNL     1      -2.687   4.529  -4.566  0.00  0.00    +0.002 A 
ATOM      6  C   UNL     1      -2.341   5.436  -3.549  0.00  0.00    +0.028 A 
ATOM      7  C   UNL     1      -1.646   4.950  -2.448  0.00  0.00    +0.102 A 
ATOM      8  C   UNL     1      -1.313   3.576  -2.388  0.00  0.00    +0.114 A 
ATOM      9  N   UNL     1      -1.645   2.750  -3.356  0.00  0.00    -0.342 N 
ATOM     10  C   UNL     1      -2.319   3.166  -4.435  0.00  0.00    +0.048 A 
ATOM     11  C   UNL     1      -2.667   2.265  -5.455  0.00  0.00    +0.029 A 
ATOM     12  N   UNL     1      -0.621   3.094  -1.293  0.00  0.00    -0.314 N 
ATOM     13  C   UNL     1       0.702   2.590  -1.687  0.00  0.00    +0.122 C 
ATOM     14  C   UNL     1       1.465   2.140  -0.439  0.00  0.00    +0.103 C 
ATOM     15  N   UNL     1       0.694   1.100   0.256  0.00  0.00    -0.302 NA
ATOM     16  C   UNL     1      -0.629   1.604   0.649  0.00  0.00    +0.103 C 
ATOM     17  C   UNL     1      -1.393   2.054  -0.599  0.00  0.00    +0.122 C 
ATOM     18  C   UNL     1       1.430   0.588   1.420  0.00  0.00    +0.105 C 
ATOM     19  C   UNL     1      -3.787   6.397  -5.860  0.00  0.00    +0.044 C 
ATOM     20  H   UNL     1      -1.368   1.687  -3.291  0.00  0.00    +0.167 HD
ENDROOT
BRANCH   7  21
ATOM     21  C   UNL     1      -1.258   5.858  -1.354  0.00  0.00    +0.390 C 
ATOM     22  O   UNL     1      -0.650   5.428  -0.395  0.00  0.00    -0.240 OA
ATOM     23  O   UNL     1      -1.579   7.166  -1.418  0.00  0.00    -0.240 OA
ENDBRANCH   7  21
TORSDOF 1
