REMARK  Name = ZINC40177698
REMARK  2 active torsions:
REMARK  status: ('A' for Active; 'I' for Inactive)
REMARK    1  A    between atoms: C_6  and  C_7
REMARK    2  A    between atoms: C_12  and  N_16
REMARK                            x       y       z     vdW  Elec       q    Type
REMARK                         _______ _______ _______ _____ _____    ______ ____
ROOT
ATOM      1  C   UNL     1      -1.270  -0.765   0.011  0.00  0.00    +0.033 A 
ATOM      2  C   UNL     1      -2.321  -0.590   0.845  0.00  0.00    +0.207 A 
ATOM      3  O   UNL     1      -3.294  -1.469   0.545  0.00  0.00    -0.444 OA
ATOM      4  C   UNL     1      -2.939  -2.255  -0.485  0.00  0.00    +0.232 A 
ATOM      5  C   UNL     1      -1.653  -1.863  -0.890  0.00  0.00    +0.087 A 
ATOM      6  C   UNL     1      -1.049  -2.530  -1.962  0.00  0.00    +0.131 A 
ATOM      7  N   UNL     1      -1.724  -3.511  -2.557  0.00  0.00    -0.220 NA
ATOM      8  C   UNL     1      -2.933  -3.847  -2.147  0.00  0.00    +0.227 A 
ATOM      9  N   UNL     1      -3.534  -3.250  -1.139  0.00  0.00    -0.200 NA
ENDROOT
BRANCH   1  15
ATOM     10  C   UNL     1      -0.017   1.390   0.010  0.00  0.00    +0.010 A 
ATOM     11  C   UNL     1       1.170   2.094   0.002  0.00  0.00    +0.016 A 
ATOM     12  C   UNL     1       2.378   1.418  -0.013  0.00  0.00    +0.018 A 
ATOM     13  C   UNL     1       2.402   0.034  -0.022  0.00  0.00    +0.016 A 
ATOM     14  C   UNL     1       1.221  -0.680  -0.014  0.00  0.00    +0.010 A 
ATOM     15  C   UNL     1       0.002  -0.004   0.002  0.00  0.00    -0.014 A 
ATOM     16 BR   UNL     1       4.001   2.389  -0.024  0.00  0.00    -0.050 Br
ENDBRANCH   1  15
BRANCH   6  17
ATOM     17  N   UNL     1       0.218  -2.179  -2.393  0.00  0.00    -0.342 N 
ATOM     18  H   UNL     1       0.699  -1.462  -1.950  0.00  0.00    +0.144 HD
ATOM     19  H   UNL     1       0.625  -2.649  -3.137  0.00  0.00    +0.144 HD
ENDBRANCH   6  17
TORSDOF 2
