REMARK  Name = ZINC06222065
REMARK  3 active torsions:
REMARK  status: ('A' for Active; 'I' for Inactive)
REMARK    1  A    between atoms: C_3  and  C_6
REMARK    2  A    between atoms: C_6  and  O_8
REMARK    3  A    between atoms: O_8  and  N_9
REMARK                            x       y       z     vdW  Elec       q    Type
REMARK                         _______ _______ _______ _____ _____    ______ ____
ROOT
ATOM      1  N   UNL     1       3.067   0.510   0.181  0.00  0.00    -0.078 NA
ATOM      2  C   UNL     1       2.582   1.694  -0.016  0.00  0.00    +0.091 C 
ATOM      3  C   UNL     1       3.465   2.905  -0.284  0.00  0.00    +0.060 C 
ATOM      4  C   UNL     1       2.909   4.089   0.514  0.00  0.00    +0.014 C 
ATOM      5  C   UNL     1       1.512   4.469   0.016  0.00  0.00    +0.075 C 
ATOM      6  C   UNL     1       0.632   3.246   0.015  0.00  0.00    +0.114 A 
ATOM      7  C   UNL     1       1.132   1.970   0.002  0.00  0.00    +0.040 A 
ATOM      8  C   UNL     1      -0.013   1.076   0.008  0.00  0.00    +0.051 A 
ATOM      9  C   UNL     1      -1.097   1.877   0.017  0.00  0.00    +0.196 A 
ATOM     10  O   UNL     1      -0.697   3.162   0.026  0.00  0.00    -0.467 OA
ENDROOT
BRANCH   1  11
ATOM     11  O   UNL     1       2.318  -0.427   0.392  0.00  0.00    -0.311 OA
BRANCH  11  12
ATOM     12  C   UNL     1       2.887  -1.633   0.589  0.00  0.00    +0.373 C 
ATOM     13  O   UNL     1       4.098  -1.748   0.552  0.00  0.00    -0.242 OA
BRANCH  12  16
ATOM     14  C   UNL     1       1.427  -5.031   1.292  0.00  0.00    +0.008 A 
ATOM     15  C   UNL     1       2.429  -4.120   1.074  0.00  0.00    +0.023 A 
ATOM     16  C   UNL     1       2.049  -2.805   0.848  0.00  0.00    +0.098 A 
ATOM     17  S   UNL     1       0.272  -2.913   0.961  0.00  0.00    -0.090 S 
ATOM     18  C   UNL     1       0.134  -4.613   1.276  0.00  0.00    +0.046 A 
ENDBRANCH  12  16
ENDBRANCH  11  12
ENDBRANCH   1  11
TORSDOF 3
