REMARK  Name = ZINC62561329
REMARK  6 active torsions:
REMARK  status: ('A' for Active; 'I' for Inactive)
REMARK    1  A    between atoms: C_1  and  C_2
REMARK    2  A    between atoms: C_2  and  C_3
REMARK    3  A    between atoms: C_5  and  N_23
REMARK    4  A    between atoms: C_10  and  C_16
REMARK    5  A    between atoms: N_14  and  C_15
REMARK    6  A    between atoms: C_19  and  C_22
REMARK                            x       y       z     vdW  Elec       q    Type
REMARK                         _______ _______ _______ _____ _____    ______ ____
ROOT
ATOM      1  C   UNL     1      -1.412  -0.526   0.013  0.00  0.00    -0.002 A 
ATOM      2  C   UNL     1      -2.015  -0.864   1.210  0.00  0.00    +0.030 A 
ATOM      3  C   UNL     1      -3.318  -1.345   1.224  0.00  0.00    +0.027 A 
ATOM      4  C   UNL     1      -4.019  -1.486   0.034  0.00  0.00    +0.050 A 
ATOM      5  C   UNL     1      -3.415  -1.147  -1.165  0.00  0.00    +0.080 A 
ATOM      6  C   UNL     1      -2.108  -0.661  -1.175  0.00  0.00    +0.147 A 
ATOM      7  O   UNL     1      -1.528  -0.329  -2.360  0.00  0.00    -0.473 OA
ATOM      8  C   UNL     1      -1.914  -1.098  -3.502  0.00  0.00    +0.289 C 
ATOM      9  C   UNL     1      -3.415  -1.237  -3.534  0.00  0.00    +0.265 C 
ATOM     10  O   UNL     1      -3.997  -1.317  -4.596  0.00  0.00    -0.271 OA
ATOM     11  N   UNL     1      -4.106  -1.282  -2.377  0.00  0.00    -0.268 N 
ATOM     12  C   UNL     1      -5.561  -1.453  -2.389  0.00  0.00    +0.138 C 
ENDROOT
BRANCH   8  13
ATOM     13  C   UNL     1      -1.286  -2.465  -3.424  0.00  0.00    +0.002 A 
ATOM     14  C   UNL     1      -1.219  -3.126  -2.211  0.00  0.00    +0.008 A 
ATOM     15  C   UNL     1      -0.643  -4.381  -2.139  0.00  0.00    +0.004 A 
ATOM     16  C   UNL     1      -0.134  -4.974  -3.279  0.00  0.00    -0.050 A 
ATOM     17  C   UNL     1      -0.201  -4.313  -4.491  0.00  0.00    +0.004 A 
ATOM     18  C   UNL     1      -0.781  -3.061  -4.564  0.00  0.00    +0.008 A 
ATOM     19  C   UNL     1       0.495  -6.341  -3.200  0.00  0.00    +0.044 C 
ENDBRANCH   8  13
BRANCH   3  20
ATOM     20  N   UNL     1      -3.924  -1.687   2.438  0.00  0.00    -0.358 N 
ATOM     21  H   UNL     1      -3.434  -1.589   3.269  0.00  0.00    +0.142 HD
ATOM     22  H   UNL     1      -4.834  -2.023   2.448  0.00  0.00    +0.142 HD
ENDBRANCH   3  20
BRANCH   1  24
ATOM     23  C   UNL     1      -0.019   1.526   0.010  0.00  0.00    +0.009 C 
ATOM     24  C   UNL     1       0.002  -0.004   0.002  0.00  0.00    +0.035 C 
ENDBRANCH   1  24
TORSDOF 3
