REMARK  Name = ZINC22438843
REMARK  11 active torsions:
REMARK  status: ('A' for Active; 'I' for Inactive)
REMARK    1  A    between atoms: C_1  and  C_2
REMARK    2  A    between atoms: C_2  and  C_3
REMARK    3  A    between atoms: C_3  and  N_4
REMARK    4  A    between atoms: N_4  and  C_5
REMARK    5  A    between atoms: C_5  and  C_12
REMARK    6  A    between atoms: C_8  and  C_11
REMARK    7  A    between atoms: N_16  and  C_17
REMARK    8  A    between atoms: C_20  and  C_23
REMARK    9  A    between atoms: C_23  and  O_25
REMARK   10  A    between atoms: O_25  and  C_26
REMARK   11  A    between atoms: C_26  and  C_27
REMARK                            x       y       z     vdW  Elec       q    Type
REMARK                         _______ _______ _______ _____ _____    ______ ____
ROOT
ATOM      1  C   UNL     1      -5.265   5.266   0.698  0.00  0.00    +0.146 A 
ATOM      2  N   UNL     1      -6.126   4.370   1.104  0.00  0.00    -0.114 NA
ATOM      3  N   UNL     1      -7.000   4.136   0.193  0.00  0.00    -0.023 NA
ATOM      4  N   UNL     1      -6.765   4.862  -0.847  0.00  0.00    -0.039 NA
ATOM      5  N   UNL     1      -5.618   5.622  -0.556  0.00  0.00    -0.199 N 
ENDROOT
BRANCH   1   6
ATOM      6  C   UNL     1      -4.096   5.801   1.484  0.00  0.00    -0.005 C 
ATOM      7  C   UNL     1      -3.509   4.685   2.350  0.00  0.00    -0.005 C 
ATOM      8  C   UNL     1      -2.322   5.228   3.147  0.00  0.00    +0.002 C 
ATOM      9  C   UNL     1      -2.792   6.376   4.044  0.00  0.00    -0.014 C 
ATOM     10  C   UNL     1      -3.378   7.492   3.177  0.00  0.00    +0.002 C 
ATOM     11  C   UNL     1      -4.565   6.949   2.380  0.00  0.00    -0.005 C 
ATOM     12  C   UNL     1      -3.863   5.863   5.009  0.00  0.00    +0.007 C 
BRANCH   6  13
ATOM     13  N   UNL     1      -3.067   6.293   0.557  0.00  0.00    +0.388 N 
ATOM     14  H   UNL     1      -2.271   6.779   1.139  0.00  0.00    -0.084 HD
ATOM     15  H   UNL     1      -3.526   7.028  -0.121  0.00  0.00    -0.084 HD
BRANCH  13  16
ATOM     16  C   UNL     1      -2.497   5.191  -0.229  0.00  0.00    -0.081 C 
BRANCH  16  18
ATOM     17  C   UNL     1      -0.984   4.621  -2.134  0.00  0.00    +0.002 C 
ATOM     18  C   UNL     1      -1.485   5.750  -1.232  0.00  0.00    -0.022 C 
ENDBRANCH  16  18
ENDBRANCH  13  16
ENDBRANCH   6  13
ENDBRANCH   1   6
BRANCH   5  19
ATOM     19  C   UNL     1      -4.983   6.554  -1.386  0.00  0.00    +0.069 A 
ATOM     20  C   UNL     1      -4.744   6.244  -2.720  0.00  0.00    +0.029 A 
ATOM     21  C   UNL     1      -4.119   7.158  -3.539  0.00  0.00    +0.017 A 
ATOM     22  C   UNL     1      -3.725   8.397  -3.028  0.00  0.00    +0.059 A 
ATOM     23  C   UNL     1      -3.962   8.703  -1.685  0.00  0.00    +0.017 A 
ATOM     24  C   UNL     1      -4.593   7.786  -0.874  0.00  0.00    +0.029 A 
BRANCH  22  25
ATOM     25  C   UNL     1      -3.055   9.379  -3.903  0.00  0.00    +0.339 C 
ATOM     26  O   UNL     1      -2.845   9.110  -5.069  0.00  0.00    -0.245 OA
BRANCH  25  27
ATOM     27  O   UNL     1      -2.681  10.576  -3.410  0.00  0.00    -0.461 OA
BRANCH  27  28
ATOM     28  C   UNL     1      -2.033  11.494  -4.329  0.00  0.00    +0.229 C 
ATOM     29  C   UNL     1      -1.683  12.790  -3.594  0.00  0.00    +0.048 C 
ENDBRANCH  27  28
ENDBRANCH  25  27
ENDBRANCH  22  25
ENDBRANCH   5  19
TORSDOF 8
