REMARK  Name = ZINC63786921
REMARK  8 active torsions:
REMARK  status: ('A' for Active; 'I' for Inactive)
REMARK    1  A    between atoms: C_1  and  C_2
REMARK    2  A    between atoms: C_5  and  C_10
REMARK    3  A    between atoms: C_6  and  C_9
REMARK    4  A    between atoms: N_7  and  C_8
REMARK    5  A    between atoms: C_10  and  C_12
REMARK    6  A    between atoms: C_12  and  N_13
REMARK    7  A    between atoms: C_16  and  C_21
REMARK    8  A    between atoms: C_21  and  C_22
REMARK                            x       y       z     vdW  Elec       q    Type
REMARK                         _______ _______ _______ _____ _____    ______ ____
ROOT
ATOM      1  N   UNL     1      -5.091  -2.477   1.339  0.00  0.00    -0.217 N 
ATOM      2  C   UNL     1      -5.387  -3.751   1.011  0.00  0.00    +0.244 C 
ATOM      3  O   UNL     1      -4.809  -4.454   0.210  0.00  0.00    -0.273 OA
ATOM      4  C   UNL     1      -6.592  -4.120   1.853  0.00  0.00    +0.165 C 
ATOM      5  N   UNL     1      -6.860  -2.898   2.630  0.00  0.00    -0.287 N 
ATOM      6  C   UNL     1      -5.930  -1.998   2.264  0.00  0.00    +0.310 C 
ATOM      7  O   UNL     1      -5.860  -0.874   2.721  0.00  0.00    -0.252 OA
ATOM      8  H   UNL     1      -7.568  -2.768   3.280  0.00  0.00    +0.151 HD
ENDROOT
BRANCH   1   9
ATOM      9  C   UNL     1      -3.983  -1.714   0.757  0.00  0.00    +0.197 C 
BRANCH   9  10
ATOM     10  C   UNL     1      -2.741  -1.923   1.584  0.00  0.00    +0.178 C 
ATOM     11  O   UNL     1      -2.777  -2.640   2.565  0.00  0.00    -0.291 OA
BRANCH  10  15
ATOM     12  C   UNL     1       0.248   1.502   0.145  0.00  0.00    +0.028 C 
ATOM     13  C   UNL     1       0.152  -0.024   0.087  0.00  0.00    +0.074 C 
ATOM     14  C   UNL     1      -1.319  -0.468  -0.028  0.00  0.00    +0.062 C 
ATOM     15  C   UNL     1      -1.544  -1.290   1.222  0.00  0.00    +0.015 C 
ATOM     16  C   UNL     1      -0.395  -1.311   1.929  0.00  0.00    +0.010 C 
ATOM     17  N   UNL     1       0.615  -0.616   1.349  0.00  0.00    -0.333 N 
ATOM     18  C   UNL     1       1.966  -0.476   1.898  0.00  0.00    +0.129 C 
ATOM     19  C   UNL     1      -0.247  -2.040   3.240  0.00  0.00    +0.061 C 
ENDBRANCH  10  15
ENDBRANCH   9  10
ENDBRANCH   1   9
BRANCH   4  20
ATOM     20  C   UNL     1      -7.786  -4.468   0.961  0.00  0.00    +0.065 C 
BRANCH  20  21
ATOM     21  C   UNL     1      -8.929  -4.948   1.817  0.00  0.00    -0.039 C 
ATOM     22  C   UNL     1      -9.962  -4.210   2.284  0.00  0.00    -0.001 A 
ATOM     23  C   UNL     1     -10.315  -2.792   2.142  0.00  0.00    +0.010 A 
ATOM     24  C   UNL     1     -11.437  -2.333   2.741  0.00  0.00    +0.001 A 
ATOM     25  C   UNL     1     -12.270  -3.174   3.491  0.00  0.00    +0.002 A 
ATOM     26  C   UNL     1     -12.011  -4.487   3.667  0.00  0.00    +0.026 A 
ATOM     27  C   UNL     1     -10.857  -5.078   3.082  0.00  0.00    +0.043 A 
ATOM     28  N   UNL     1     -10.397  -6.305   3.106  0.00  0.00    -0.380 N 
ATOM     29  C   UNL     1      -9.159  -6.356   2.321  0.00  0.00    +0.144 C 
ATOM     30  H   UNL     1     -10.808  -7.055   3.564  0.00  0.00    +0.160 HD
ENDBRANCH  20  21
ENDBRANCH   4  20
TORSDOF 5
