REMARK  Name = ZINC37553140
REMARK  3 active torsions:
REMARK  status: ('A' for Active; 'I' for Inactive)
REMARK    1  A    between atoms: C_6  and  S_10
REMARK    2  A    between atoms: S_10  and  N_13
REMARK    3  A    between atoms: C_17  and  C_20
REMARK                            x       y       z     vdW  Elec       q    Type
REMARK                         _______ _______ _______ _____ _____    ______ ____
ROOT
ATOM      1  S   UNL     1      -2.667  -0.909   0.023  0.00  0.00    +0.080 S 
ATOM      2  O   UNL     1      -3.171  -2.119   0.572  0.00  0.00    -0.151 OA
ATOM      3  O   UNL     1      -2.962   0.363   0.584  0.00  0.00    -0.151 OA
ENDROOT
BRANCH   1   9
ATOM      4  C   UNL     1      -0.017   1.374   0.010  0.00  0.00    +0.102 A 
ATOM      5  C   UNL     1       1.118   2.071   0.003  0.00  0.00    +0.067 A 
ATOM      6  S   UNL     1       2.347   0.776  -0.016  0.00  0.00    -0.058 S 
ATOM      7  C   UNL     1       1.231  -0.608  -0.013  0.00  0.00    +0.180 A 
ATOM      8  N   UNL     1       0.002  -0.004   0.002  0.00  0.00    -0.276 N 
ATOM      9  C   UNL     1      -0.911  -1.056   0.005  0.00  0.00    +0.218 A 
ATOM     10  C   UNL     1      -0.212  -2.204  -0.008  0.00  0.00    +0.176 A 
ATOM     11  N   UNL     1       1.096  -1.903  -0.018  0.00  0.00    -0.208 NA
ATOM     12 CL   UNL     1      -0.885  -3.804  -0.011  0.00  0.00    -0.058 Cl
ENDBRANCH   1   9
BRANCH   1  13
ATOM     13  N   UNL     1      -3.170  -0.859  -1.554  0.00  0.00    -0.174 NA
ATOM     14  C   UNL     1      -3.286   0.422  -2.263  0.00  0.00    +0.109 C 
ATOM     15  C   UNL     1      -4.696   0.535  -2.851  0.00  0.00    +0.018 C 
ATOM     16  C   UNL     1      -4.981  -0.692  -3.720  0.00  0.00    +0.015 C 
ATOM     17  C   UNL     1      -4.917  -1.956  -2.859  0.00  0.00    +0.090 C 
ATOM     18  C   UNL     1      -3.504  -2.097  -2.273  0.00  0.00    +0.122 C 
BRANCH  17  19
ATOM     19  C   UNL     1      -5.230  -3.160  -3.709  0.00  0.00    +0.215 C 
ATOM     20  O   UNL     1      -4.411  -4.046  -3.831  0.00  0.00    -0.276 OA
ATOM     21  N   UNL     1      -6.421  -3.253  -4.333  0.00  0.00    -0.329 N 
ATOM     22  H   UNL     1      -7.076  -2.544  -4.236  0.00  0.00    +0.145 HD
ATOM     23  H   UNL     1      -6.622  -4.028  -4.880  0.00  0.00    +0.145 HD
ENDBRANCH  17  19
ENDBRANCH   1  13
TORSDOF 3
