REMARK  Name = ZINC04062043
REMARK  5 active torsions:
REMARK  status: ('A' for Active; 'I' for Inactive)
REMARK    1  A    between atoms: C_3  and  N_22
REMARK    2  A    between atoms: C_6  and  C_7
REMARK    3  A    between atoms: C_7  and  O_9
REMARK    4  A    between atoms: O_9  and  C_10
REMARK    5  A    between atoms: C_10  and  C_11
REMARK                            x       y       z     vdW  Elec       q    Type
REMARK                         _______ _______ _______ _____ _____    ______ ____
ROOT
ATOM      1  C   UNL     1      -4.929   3.407  -1.156  0.00  0.00    +0.339 C 
ATOM      2  O   UNL     1      -5.442   2.614  -0.391  0.00  0.00    -0.245 OA
ENDROOT
BRANCH   1   8
ATOM      3  C   UNL     1      -5.144   4.930  -3.113  0.00  0.00    +0.017 A 
ATOM      4  C   UNL     1      -5.893   5.489  -4.123  0.00  0.00    +0.025 A 
ATOM      5  C   UNL     1      -7.235   5.151  -4.265  0.00  0.00    +0.045 A 
ATOM      6  C   UNL     1      -7.824   4.243  -3.391  0.00  0.00    +0.025 A 
ATOM      7  C   UNL     1      -7.079   3.676  -2.381  0.00  0.00    +0.017 A 
ATOM      8  C   UNL     1      -5.730   4.013  -2.236  0.00  0.00    +0.059 A 
BRANCH   5   9
ATOM      9  N   UNL     1      -7.994   5.725  -5.288  0.00  0.00    -0.203 N 
ATOM     10  C   UNL     1      -9.293   5.471  -5.525  0.00  0.00    +0.250 C 
ATOM     11  O   UNL     1      -9.996   4.712  -4.890  0.00  0.00    -0.270 OA
ATOM     12  C   UNL     1      -9.722   6.278  -6.689  0.00  0.00    +0.073 C 
ATOM     13  C   UNL     1      -8.646   6.972  -7.098  0.00  0.00    +0.073 C 
ATOM     14  C   UNL     1      -7.535   6.611  -6.190  0.00  0.00    +0.250 C 
ATOM     15  O   UNL     1      -6.402   7.042  -6.249  0.00  0.00    -0.270 OA
ENDBRANCH   5   9
ENDBRANCH   1   8
BRANCH   1  16
ATOM     16  O   UNL     1      -3.630   3.733  -1.017  0.00  0.00    -0.461 OA
BRANCH  16  17
ATOM     17  C   UNL     1      -2.903   3.098   0.068  0.00  0.00    +0.234 C 
BRANCH  17  18
ATOM     18  C   UNL     1      -1.454   3.589   0.067  0.00  0.00    +0.013 C 
ATOM     19  C   UNL     1      -0.760   3.122  -1.214  0.00  0.00    +0.003 C 
ATOM     20  C   UNL     1      -0.747   1.589  -1.234  0.00  0.00    -0.018 C 
ATOM     21  C   UNL     1      -0.013   1.086   0.008  0.00  0.00    -0.078 C 
ATOM     22  C   UNL     1      -0.724   3.023   1.290  0.00  0.00    -0.062 C 
ATOM     23  C   UNL     1      -1.476   3.477   2.545  0.00  0.00    -0.015 C 
ATOM     24  C   UNL     1      -0.807   2.896   3.791  0.00  0.00    -0.003 C 
ATOM     25  C   UNL     1      -0.794   1.368   3.674  0.00  0.00    -0.019 C 
ATOM     26  C   UNL     1      -0.036   0.978   2.405  0.00  0.00    -0.078 C 
ATOM     27  N   UNL     1      -0.714   1.539   1.224  0.00  0.00    +0.382 N 
ATOM     28  H   UNL     1      -1.683   1.201   1.199  0.00  0.00    -0.081 HD
ENDBRANCH  17  18
ENDBRANCH  16  17
ENDBRANCH   1  16
TORSDOF 5
