REMARK  Name = ZINC40010595
REMARK  8 active torsions:
REMARK  status: ('A' for Active; 'I' for Inactive)
REMARK    1  A    between atoms: C_1  and  C_2
REMARK    2  A    between atoms: C_7  and  C_15
REMARK    3  A    between atoms: C_13  and  C_14
REMARK    4  A    between atoms: C_19  and  O_33
REMARK    5  A    between atoms: C_20  and  O_31
REMARK    6  A    between atoms: C_26  and  C_28
REMARK    7  A    between atoms: O_31  and  C_32
REMARK    8  A    between atoms: O_33  and  C_34
REMARK                            x       y       z     vdW  Elec       q    Type
REMARK                         _______ _______ _______ _____ _____    ______ ____
ROOT
ATOM      1  C   UNL     1       1.325  -5.759   1.300  0.00  0.00    +0.122 C 
ATOM      2  C   UNL     1       1.272  -6.756   0.169  0.00  0.00    -0.019 A 
ATOM      3  C   UNL     1       1.463  -6.279  -1.121  0.00  0.00    +0.055 A 
ATOM      4  C   UNL     1       1.417  -7.140  -2.203  0.00  0.00    +0.162 A 
ATOM      5  C   UNL     1       1.175  -8.494  -1.992  0.00  0.00    +0.162 A 
ATOM      6  C   UNL     1       0.990  -8.964  -0.706  0.00  0.00    +0.053 A 
ATOM      7  C   UNL     1       1.043  -8.097   0.380  0.00  0.00    -0.037 A 
ATOM      8  C   UNL     1       0.859  -8.689   1.753  0.00  0.00    +0.054 C 
ATOM      9  C   UNL     1       0.465  -7.611   2.761  0.00  0.00    +0.113 C 
ATOM     10  N   UNL     1       1.377  -6.470   2.582  0.00  0.00    -0.293 N 
ATOM     11  C   UNL     1       2.226  -6.093   3.558  0.00  0.00    +0.219 C 
ATOM     12  O   UNL     1       2.967  -5.149   3.386  0.00  0.00    -0.275 OA
ENDROOT
BRANCH   1  19
ATOM     13  C   UNL     1      -0.018   1.503   0.010  0.00  0.00    +0.044 C 
ATOM     14  C   UNL     1       0.002  -0.004   0.002  0.00  0.00    -0.046 A 
ATOM     15  C   UNL     1       0.005  -0.667  -1.226  0.00  0.00    +0.004 A 
ATOM     16  C   UNL     1       0.023  -2.023  -1.297  0.00  0.00    +0.010 A 
ATOM     17  C   UNL     1       0.040  -2.795  -0.054  0.00  0.00    -0.007 A 
ATOM     18  C   UNL     1       0.059  -4.158  -0.077  0.00  0.00    -0.003 C 
ATOM     19  C   UNL     1       0.076  -4.876   1.258  0.00  0.00    +0.123 C 
ATOM     20  C   UNL     1       0.071  -4.022   2.506  0.00  0.00    +0.226 C 
ATOM     21  O   UNL     1       0.085  -4.546   3.604  0.00  0.00    -0.275 OA
ATOM     22  N   UNL     1       0.052  -2.704   2.399  0.00  0.00    -0.284 N 
ATOM     23  C   UNL     1       0.037  -2.069   1.228  0.00  0.00    +0.043 A 
ATOM     24  C   UNL     1       0.022  -0.662   1.190  0.00  0.00    -0.026 A 
ATOM     25  C   UNL     1       0.023   0.120   2.478  0.00  0.00    +0.046 C 
ATOM     26  H   UNL     1       0.049  -2.175   3.212  0.00  0.00    +0.155 HD
ENDBRANCH   1  19
BRANCH  11  27
ATOM     27  C   UNL     1       2.254  -6.845   4.864  0.00  0.00    +0.075 C 
ATOM     28  C   UNL     1       1.741  -6.118   6.109  0.00  0.00    +0.013 C 
ATOM     29  C   UNL     1       3.240  -6.368   5.933  0.00  0.00    +0.013 C 
ENDBRANCH  11  27
BRANCH   5  30
ATOM     30  O   UNL     1       1.121  -9.351  -3.047  0.00  0.00    -0.491 OA
ATOM     31  C   UNL     1       0.869 -10.727  -2.754  0.00  0.00    +0.277 C 
ENDBRANCH   5  30
BRANCH   4  32
ATOM     32  O   UNL     1       1.606  -6.666  -3.463  0.00  0.00    -0.491 OA
ATOM     33  C   UNL     1       1.848  -5.264  -3.600  0.00  0.00    +0.277 C 
ENDBRANCH   4  32
TORSDOF 4
