REMARK  Name = ZINC53537540
REMARK  9 active torsions:
REMARK  status: ('A' for Active; 'I' for Inactive)
REMARK    1  A    between atoms: C_1  and  N_2
REMARK    2  A    between atoms: N_2  and  C_3
REMARK    3  A    between atoms: N_2  and  C_4
REMARK    4  A    between atoms: C_4  and  C_6
REMARK    5  A    between atoms: C_4  and  C_13
REMARK    6  A    between atoms: C_6  and  C_7
REMARK    7  A    between atoms: C_13  and  N_14
REMARK    8  A    between atoms: N_20  and  C_23
REMARK    9  A    between atoms: C_28  and  O_29
REMARK                            x       y       z     vdW  Elec       q    Type
REMARK                         _______ _______ _______ _____ _____    ______ ____
ROOT
ATOM      1  N   UNL     1      -2.799   1.804  -0.682  0.00  0.00    -0.301 N 
ATOM      2  C   UNL     1      -3.692   2.560  -1.351  0.00  0.00    +0.302 C 
ATOM      3  O   UNL     1      -4.696   2.051  -1.810  0.00  0.00    -0.253 OA
ATOM      4  N   UNL     1      -3.472   3.880  -1.510  0.00  0.00    -0.283 N 
ATOM      5  C   UNL     1      -4.482   4.735  -2.149  0.00  0.00    +0.128 C 
ATOM      6  C   UNL     1      -4.820   5.889  -1.198  0.00  0.00    +0.124 C 
ATOM      7  N   UNL     1      -3.566   6.500  -0.735  0.00  0.00    -0.324 N 
ATOM      8  C   UNL     1      -2.555   5.645  -0.097  0.00  0.00    +0.124 C 
ATOM      9  C   UNL     1      -2.220   4.492  -1.043  0.00  0.00    +0.128 C 
ATOM     10  H   UNL     1      -2.033   2.220  -0.257  0.00  0.00    +0.150 HD
ENDROOT
BRANCH   7  11
ATOM     11  C   UNL     1      -3.337   7.871  -0.901  0.00  0.00    +0.072 A 
ATOM     12  C   UNL     1      -3.716   8.764   0.090  0.00  0.00    +0.027 A 
ATOM     13  C   UNL     1      -3.489  10.117  -0.076  0.00  0.00    +0.002 A 
ATOM     14  C   UNL     1      -2.884  10.584  -1.228  0.00  0.00    +0.004 A 
ATOM     15  C   UNL     1      -2.503   9.699  -2.221  0.00  0.00    +0.047 A 
ATOM     16  C   UNL     1      -2.723   8.341  -2.060  0.00  0.00    +0.138 A 
BRANCH  16  17
ATOM     17  O   UNL     1      -2.344   7.469  -3.033  0.00  0.00    -0.505 OA
ATOM     18  H   UNL     1      -3.026   7.303  -3.699  0.00  0.00    +0.292 HD
ENDBRANCH  16  17
ENDBRANCH   7  11
BRANCH   1  19
ATOM     19  C   UNL     1      -2.986   0.354  -0.597  0.00  0.00    +0.091 C 
BRANCH  19  20
ATOM     20  C   UNL     1      -1.754  -0.282   0.051  0.00  0.00    -0.048 C 
BRANCH  20  22
ATOM     21  C   UNL     1      -0.995  -0.772  -2.171  0.00  0.00    -0.096 C 
ATOM     22  N   UNL     1      -0.616  -0.197  -0.874  0.00  0.00    +0.379 N 
ATOM     23  C   UNL     1      -0.236   1.211  -1.055  0.00  0.00    -0.096 C 
ATOM     24  H   UNL     1       0.166  -0.710  -0.494  0.00  0.00    -0.082 HD
ENDBRANCH  20  22
BRANCH  20  25
ATOM     25  C   UNL     1      -2.044  -1.750   0.368  0.00  0.00    +0.021 C 
BRANCH  25  26
ATOM     26  C   UNL     1      -0.878  -2.342   1.118  0.00  0.00    -0.049 A 
ATOM     27  C   UNL     1       0.180  -2.897   0.423  0.00  0.00    +0.003 A 
ATOM     28  C   UNL     1       1.249  -3.441   1.110  0.00  0.00    +0.000 A 
ATOM     29  C   UNL     1       1.260  -3.428   2.493  0.00  0.00    +0.000 A 
ATOM     30  C   UNL     1       0.202  -2.872   3.188  0.00  0.00    +0.000 A 
ATOM     31  C   UNL     1      -0.865  -2.325   2.500  0.00  0.00    +0.003 A 
ENDBRANCH  25  26
ENDBRANCH  20  25
ENDBRANCH  19  20
ENDBRANCH   1  19
TORSDOF 7
