REMARK  Name = ZINC58294572
REMARK  10 active torsions:
REMARK  status: ('A' for Active; 'I' for Inactive)
REMARK    1  A    between atoms: C_1  and  C_2
REMARK    2  A    between atoms: C_2  and  C_3
REMARK    3  A    between atoms: C_2  and  C_4
REMARK    4  A    between atoms: C_2  and  O_5
REMARK    5  A    between atoms: O_5  and  C_6
REMARK    6  A    between atoms: N_8  and  C_9
REMARK    7  A    between atoms: C_9  and  C_10
REMARK    8  A    between atoms: N_13  and  C_16
REMARK    9  A    between atoms: C_16  and  C_18
REMARK   10  A    between atoms: C_16  and  C_24
REMARK                            x       y       z     vdW  Elec       q    Type
REMARK                         _______ _______ _______ _____ _____    ______ ____
ROOT
ATOM      1  C   UNL     1       3.425  -1.105  -5.599  0.00  0.00    +0.003 C 
ATOM      2  C   UNL     1       3.601  -2.622  -5.480  0.00  0.00    -0.014 C 
ATOM      3  C   UNL     1       4.842  -3.049  -6.266  0.00  0.00    -0.077 C 
ATOM      4  N   UNL     1       6.026  -2.374  -5.722  0.00  0.00    +0.390 N 
ATOM      5  C   UNL     1       5.897  -0.922  -5.898  0.00  0.00    -0.077 C 
ATOM      6  C   UNL     1       4.696  -0.413  -5.098  0.00  0.00    -0.014 C 
ATOM      7  H   UNL     1       6.112  -2.586  -4.740  0.00  0.00    -0.080 HD
ENDROOT
BRANCH   1   8
ATOM      8  C   UNL     1       2.232  -0.660  -4.751  0.00  0.00    +0.111 C 
BRANCH   8  11
ATOM      9  C   UNL     1      -0.184  -0.969  -4.716  0.00  0.00    +0.401 C 
ATOM     10  O   UNL     1      -0.231  -0.265  -3.727  0.00  0.00    -0.226 OA
ATOM     11  N   UNL     1       1.000  -1.228  -5.304  0.00  0.00    -0.281 N 
ATOM     12  H   UNL     1       1.038  -1.791  -6.093  0.00  0.00    +0.152 HD
BRANCH   9  13
ATOM     13  O   UNL     1      -1.317  -1.492  -5.225  0.00  0.00    -0.445 OA
BRANCH  13  15
ATOM     14  C   UNL     1      -2.744   0.340  -4.556  0.00  0.00    +0.055 C 
ATOM     15  C   UNL     1      -2.537  -1.176  -4.551  0.00  0.00    +0.107 C 
ATOM     16  C   UNL     1      -2.466  -1.676  -3.107  0.00  0.00    +0.055 C 
ATOM     17  C   UNL     1      -3.705  -1.853  -5.269  0.00  0.00    +0.055 C 
ENDBRANCH  13  15
ENDBRANCH   9  13
ENDBRANCH   8  11
ENDBRANCH   1   8
BRANCH   4  18
ATOM     18  C   UNL     1       7.225  -2.846  -6.429  0.00  0.00    +0.050 C 
BRANCH  18  19
ATOM     19  C   UNL     1       8.435  -2.114  -5.909  0.00  0.00    -0.052 A 
ATOM     20  C   UNL     1       8.560  -1.859  -4.556  0.00  0.00    +0.002 A 
ATOM     21  C   UNL     1       9.671  -1.188  -4.079  0.00  0.00    +0.000 A 
ATOM     22  C   UNL     1      10.656  -0.773  -4.955  0.00  0.00    +0.000 A 
ATOM     23  C   UNL     1      10.532  -1.029  -6.307  0.00  0.00    +0.000 A 
ATOM     24  C   UNL     1       9.424  -1.704  -6.784  0.00  0.00    +0.002 A 
ENDBRANCH  18  19
BRANCH  18  25
ATOM     25  C   UNL     1       7.394  -4.325  -6.197  0.00  0.00    +0.201 C 
ATOM     26  O   UNL     1       6.954  -4.836  -5.188  0.00  0.00    -0.277 OA
ATOM     27  N   UNL     1       8.034  -5.082  -7.111  0.00  0.00    -0.330 N 
ATOM     28  H   UNL     1       8.386  -4.674  -7.917  0.00  0.00    +0.145 HD
ATOM     29  H   UNL     1       8.143  -6.034  -6.962  0.00  0.00    +0.145 HD
ENDBRANCH  18  25
ENDBRANCH   4  18
TORSDOF 7
