REMARK  Name = ZINC44426706
REMARK  7 active torsions:
REMARK  status: ('A' for Active; 'I' for Inactive)
REMARK    1  A    between atoms: C_1  and  C_2
REMARK    2  A    between atoms: C_2  and  O_3
REMARK    3  A    between atoms: O_3  and  C_4
REMARK    4  A    between atoms: C_9  and  C_10
REMARK    5  A    between atoms: C_10  and  N_11
REMARK    6  A    between atoms: C_13  and  C_18
REMARK    7  A    between atoms: C_20  and  C_23
REMARK                            x       y       z     vdW  Elec       q    Type
REMARK                         _______ _______ _______ _____ _____    ______ ____
ROOT
ATOM      1  N   UNL     1      -4.242  -1.006  -1.324  0.00  0.00    -0.296 N 
ATOM      2  C   UNL     1      -3.671   0.224  -1.883  0.00  0.00    +0.120 C 
ATOM      3  C   UNL     1      -3.855   0.106  -3.413  0.00  0.00    +0.086 C 
ATOM      4  C   UNL     1      -5.069  -0.847  -3.511  0.00  0.00    +0.109 C 
ATOM      5  C   UNL     1      -5.032  -1.628  -2.217  0.00  0.00    +0.217 C 
ATOM      6  O   UNL     1      -5.629  -2.664  -2.013  0.00  0.00    -0.276 OA
ENDROOT
BRANCH   3   7
ATOM      7  C   UNL     1      -4.169   1.447  -4.024  0.00  0.00    +0.177 A 
ATOM      8  N   UNL     1      -3.439   2.062  -4.956  0.00  0.00    -0.191 NA
ATOM      9  C   UNL     1      -3.991   3.215  -5.270  0.00  0.00    +0.259 A 
ATOM     10  O   UNL     1      -5.105   3.357  -4.529  0.00  0.00    -0.333 OA
ATOM     11  N   UNL     1      -5.200   2.188  -3.730  0.00  0.00    -0.061 NA
BRANCH   9  12
ATOM     12  C   UNL     1      -3.479   4.180  -6.260  0.00  0.00    +0.049 A 
ATOM     13  C   UNL     1      -2.311   3.909  -6.968  0.00  0.00    +0.014 A 
ATOM     14  C   UNL     1      -1.833   4.816  -7.896  0.00  0.00    +0.003 A 
ATOM     15  C   UNL     1      -2.500   6.000  -8.137  0.00  0.00    +0.026 A 
ATOM     16  C   UNL     1      -3.669   6.299  -7.446  0.00  0.00    +0.047 A 
ATOM     17  C   UNL     1      -4.170   5.384  -6.504  0.00  0.00    +0.012 A 
ATOM     18  C   UNL     1      -5.392   5.980  -5.968  0.00  0.00    +0.028 A 
ATOM     19  C   UNL     1      -5.558   7.161  -6.589  0.00  0.00    +0.083 A 
ATOM     20  N   UNL     1      -4.533   7.372  -7.468  0.00  0.00    -0.361 N 
ATOM     21  H   UNL     1      -4.435   8.155  -8.032  0.00  0.00    +0.165 HD
ENDBRANCH   9  12
ENDBRANCH   3   7
BRANCH   1  22
ATOM     22  C   UNL     1      -3.981  -1.497   0.032  0.00  0.00    +0.146 C 
BRANCH  22  28
ATOM     23  C   UNL     1      -1.498  -1.848   0.006  0.00  0.00    +0.125 A 
ATOM     24  C   UNL     1      -0.387  -2.679  -0.003  0.00  0.00    +0.046 A 
ATOM     25  C   UNL     1      -0.552  -4.051  -0.008  0.00  0.00    +0.004 A 
ATOM     26  C   UNL     1      -1.823  -4.596  -0.004  0.00  0.00    +0.001 A 
ATOM     27  C   UNL     1      -2.932  -3.769   0.004  0.00  0.00    +0.009 A 
ATOM     28  C   UNL     1      -2.772  -2.397   0.016  0.00  0.00    +0.011 A 
BRANCH  23  29
ATOM     29  O   UNL     1      -1.339  -0.499   0.012  0.00  0.00    -0.492 OA
BRANCH  29  31
ATOM     30  C   UNL     1      -0.019   1.526   0.010  0.00  0.00    +0.048 C 
ATOM     31  C   UNL     1       0.002  -0.004   0.002  0.00  0.00    +0.225 C 
ENDBRANCH  29  31
ENDBRANCH  23  29
ENDBRANCH  22  28
ENDBRANCH   1  22
TORSDOF 6
