REMARK  Name = ZINC12655289
REMARK  7 active torsions:
REMARK  status: ('A' for Active; 'I' for Inactive)
REMARK    1  A    between atoms: C_1  and  C_2
REMARK    2  A    between atoms: C_2  and  C_3
REMARK    3  A    between atoms: C_3  and  C_4
REMARK    4  A    between atoms: C_22  and  C_35
REMARK    5  A    between atoms: C_25  and  O_34
REMARK    6  A    between atoms: C_28  and  C_33
REMARK    7  A    between atoms: C_29  and  C_31
REMARK                            x       y       z     vdW  Elec       q    Type
REMARK                         _______ _______ _______ _____ _____    ______ ____
ROOT
ATOM      1  C   UNL     1      -2.366   2.080  -2.277  0.00  0.00    +0.252 C 
ATOM      2  O   UNL     1      -2.800   1.021  -3.157  0.00  0.00    -0.345 OA
ATOM      3  C   UNL     1      -1.798   0.963  -4.193  0.00  0.00    +0.165 C 
ATOM      4  C   UNL     1      -1.447  -0.531  -4.434  0.00  0.00    +0.039 C 
ATOM      5  C   UNL     1      -0.333  -0.794  -3.416  0.00  0.00    +0.004 C 
ATOM      6  C   UNL     1       0.591  -1.957  -3.730  0.00  0.00    -0.000 C 
ATOM      7  C   UNL     1      -0.186  -3.277  -3.707  0.00  0.00    +0.008 C 
ATOM      8  C   UNL     1      -1.083  -3.276  -2.469  0.00  0.00    +0.032 C 
ATOM      9  C   UNL     1      -0.279  -2.931  -1.249  0.00  0.00    -0.056 C 
ATOM     10  C   UNL     1      -0.839  -3.140  -0.035  0.00  0.00    +0.051 C 
ATOM     11  C   UNL     1      -0.022  -2.674   1.118  0.00  0.00    +0.179 C 
ATOM     12  O   UNL     1       0.084  -3.315   2.147  0.00  0.00    -0.288 OA
ATOM     13  C   UNL     1       0.655  -1.363   0.917  0.00  0.00    +0.047 C 
ATOM     14  C   UNL     1       1.200  -1.182  -0.305  0.00  0.00    -0.012 C 
ATOM     15  C   UNL     1       1.079  -2.320  -1.282  0.00  0.00    +0.013 C 
ATOM     16  C   UNL     1       1.659  -2.001  -2.632  0.00  0.00    +0.035 C 
ATOM     17  C   UNL     1       2.445  -0.690  -2.579  0.00  0.00    +0.120 C 
ATOM     18  C   UNL     1       1.502   0.511  -2.388  0.00  0.00    +0.042 C 
ATOM     19  C   UNL     1       0.515   0.501  -3.538  0.00  0.00    +0.016 C 
ATOM     20  C   UNL     1      -0.533   1.606  -3.551  0.00  0.00    +0.204 C 
ATOM     21  O   UNL     1      -0.932   1.929  -2.205  0.00  0.00    -0.330 OA
ATOM     22  C   UNL     1       1.276   0.496  -4.865  0.00  0.00    +0.015 C 
ATOM     23  C   UNL     1       2.001  -3.397  -0.707  0.00  0.00    +0.020 C 
ENDROOT
BRANCH  20  24
ATOM     24  C   UNL     1      -0.075   2.826  -4.308  0.00  0.00    +0.390 C 
ATOM     25  O   UNL     1      -0.305   2.925  -5.490  0.00  0.00    -0.243 OA
ATOM     26  O   UNL     1       0.587   3.804  -3.669  0.00  0.00    -0.243 OA
ENDBRANCH  20  24
BRANCH  17  27
ATOM     27  O   UNL     1       3.169  -0.528  -3.800  0.00  0.00    -0.391 OA
ATOM     28  H   UNL     1       3.712   0.272  -3.833  0.00  0.00    +0.210 HD
ENDBRANCH  17  27
BRANCH   1  29
ATOM     29  C   UNL     1      -2.991   1.910  -0.891  0.00  0.00    +0.061 C 
BRANCH  29  31
ATOM     30  C   UNL     1      -5.117   2.027   0.417  0.00  0.00    +0.004 C 
ATOM     31  C   UNL     1      -4.492   2.196  -0.969  0.00  0.00    +0.002 C 
ENDBRANCH  29  31
ENDBRANCH   1  29
TORSDOF 4
