REMARK  Name = ZINC20113020
REMARK  10 active torsions:
REMARK  status: ('A' for Active; 'I' for Inactive)
REMARK    1  A    between atoms: C_1  and  C_2
REMARK    2  A    between atoms: C_2  and  N_3
REMARK    3  A    between atoms: C_5  and  C_13
REMARK    4  A    between atoms: N_8  and  C_11
REMARK    5  A    between atoms: C_11  and  C_12
REMARK    6  A    between atoms: C_13  and  C_15
REMARK    7  A    between atoms: C_15  and  C_16
REMARK    8  A    between atoms: C_23  and  O_24
REMARK    9  A    between atoms: O_24  and  C_25
REMARK   10  A    between atoms: N_31  and  C_32
REMARK                            x       y       z     vdW  Elec       q    Type
REMARK                         _______ _______ _______ _____ _____    ______ ____
ROOT
ATOM      1  C   UNL     1       1.301   3.015   2.427  0.00  0.00    -0.027 C 
ATOM      2  C   UNL     1       0.210   3.861   1.824  0.00  0.00    -0.012 A 
ATOM      3  C   UNL     1       0.168   5.228   2.000  0.00  0.00    -0.040 A 
ATOM      4  C   UNL     1      -0.864   5.967   1.442  0.00  0.00    +0.053 A 
ATOM      5  C   UNL     1      -1.852   5.345   0.698  0.00  0.00    +0.170 A 
ATOM      6  C   UNL     1      -1.808   3.968   0.509  0.00  0.00    +0.208 A 
ATOM      7  C   UNL     1      -0.774   3.231   1.070  0.00  0.00    +0.167 A 
ATOM      8  O   UNL     1      -2.880   3.596  -0.252  0.00  0.00    -0.449 OA
ATOM      9  C   UNL     1      -3.800   4.701  -0.183  0.00  0.00    +0.467 C 
ATOM     10  O   UNL     1      -2.951   5.839   0.056  0.00  0.00    -0.452 OA
ATOM     11  C   UNL     1       1.223   5.956   2.794  0.00  0.00    +0.017 C 
ATOM     12  C   UNL     1       1.992   4.961   3.671  0.00  0.00    -0.074 C 
ATOM     13  N   UNL     1       2.442   3.850   2.818  0.00  0.00    +0.383 N 
ATOM     14  C   UNL     1       3.472   3.050   3.494  0.00  0.00    -0.095 C 
ATOM     15  H   UNL     1       2.891   4.268   1.905  0.00  0.00    -0.081 HD
ENDROOT
BRANCH   7  16
ATOM     16  O   UNL     1      -0.728   1.884   0.887  0.00  0.00    -0.491 OA
ATOM     17  C   UNL     1      -1.497   1.080   1.784  0.00  0.00    +0.277 C 
ENDBRANCH   7  16
BRANCH   1  18
ATOM     18  C   UNL     1       1.762   1.978   1.401  0.00  0.00    +0.069 C 
BRANCH  18  19
ATOM     19  C   UNL     1       2.148   2.675   0.122  0.00  0.00    +0.172 C 
ATOM     20  O   UNL     1       1.984   3.873   0.009  0.00  0.00    -0.292 OA
BRANCH  19  23
ATOM     21  N   UNL     1       3.716   1.820  -3.098  0.00  0.00    -0.288 N 
ATOM     22  C   UNL     1       3.192   2.575  -2.093  0.00  0.00    +0.269 A 
ATOM     23  C   UNL     1       2.701   1.934  -0.947  0.00  0.00    +0.146 A 
ATOM     24  C   UNL     1       2.786   0.468  -0.889  0.00  0.00    +0.269 A 
ATOM     25  O   UNL     1       2.380  -0.140   0.084  0.00  0.00    -0.267 OA
ATOM     26  N   UNL     1       3.318  -0.189  -1.940  0.00  0.00    -0.288 N 
ATOM     27  C   UNL     1       3.771   0.482  -3.012  0.00  0.00    +0.166 A 
ATOM     28  S   UNL     1       4.444  -0.402  -4.315  0.00  0.00    -0.013 S 
ATOM     29  O   UNL     1       3.145   3.915  -2.199  0.00  0.00    -0.267 OA
BRANCH  21  31
ATOM     30  C   UNL     1       5.713   2.807  -4.108  0.00  0.00    +0.027 C 
ATOM     31  C   UNL     1       4.230   2.483  -4.299  0.00  0.00    +0.124 C 
ENDBRANCH  21  31
BRANCH  26  32
ATOM     32  C   UNL     1       3.408  -1.651  -1.910  0.00  0.00    +0.124 C 
ATOM     33  C   UNL     1       4.743  -2.067  -1.289  0.00  0.00    +0.027 C 
ENDBRANCH  26  32
ENDBRANCH  19  23
ENDBRANCH  18  19
ENDBRANCH   1  18
TORSDOF 6
