REMARK  Name = ZINC62495382
REMARK  3 active torsions:
REMARK  status: ('A' for Active; 'I' for Inactive)
REMARK    1  A    between atoms: C_6  and  O_7
REMARK    2  A    between atoms: C_9  and  C_14
REMARK    3  A    between atoms: C_14  and  C_15
REMARK                            x       y       z     vdW  Elec       q    Type
REMARK                         _______ _______ _______ _____ _____    ______ ____
ROOT
ATOM      1  C   UNL     1      -0.017   1.383   0.010  0.00  0.00    +0.047 A 
ATOM      2  C   UNL     1       1.170   2.093   0.002  0.00  0.00    +0.030 A 
ATOM      3  C   UNL     1       2.379   1.418  -0.009  0.00  0.00    +0.076 A 
ATOM      4  C   UNL     1       2.400   0.025  -0.032  0.00  0.00    +0.146 A 
ATOM      5  C   UNL     1       1.212  -0.684  -0.020  0.00  0.00    +0.093 A 
ATOM      6  C   UNL     1       0.002  -0.004   0.002  0.00  0.00    +0.120 A 
ATOM      7  O   UNL     1       3.591  -0.630  -0.086  0.00  0.00    -0.477 OA
ATOM      8  C   UNL     1       4.704  -0.008   0.560  0.00  0.00    +0.263 C 
ATOM      9  C   UNL     1       4.744   1.456   0.201  0.00  0.00    +0.258 C 
ATOM     10  O   UNL     1       5.809   2.029   0.102  0.00  0.00    -0.271 OA
ATOM     11  N   UNL     1       3.592   2.125  -0.010  0.00  0.00    -0.280 N 
ATOM     12  H   UNL     1       3.601   3.083  -0.160  0.00  0.00    +0.155 HD
ENDROOT
BRANCH   6  13
ATOM     13  O   UNL     1      -1.167  -0.699   0.016  0.00  0.00    -0.507 OA
ATOM     14  H   UNL     1      -1.518  -0.895  -0.863  0.00  0.00    +0.292 HD
ENDBRANCH   6  13
BRANCH   8  15
ATOM     15  C   UNL     1       4.561  -0.156   2.076  0.00  0.00    +0.089 C 
BRANCH  15  16
ATOM     16  C   UNL     1       4.647  -1.614   2.449  0.00  0.00    -0.041 A 
ATOM     17  C   UNL     1       3.500  -2.385   2.493  0.00  0.00    +0.023 A 
ATOM     18  C   UNL     1       3.579  -3.723   2.835  0.00  0.00    +0.043 A 
ATOM     19  C   UNL     1       4.805  -4.289   3.134  0.00  0.00    +0.040 A 
ATOM     20  C   UNL     1       5.952  -3.517   3.090  0.00  0.00    +0.043 A 
ATOM     21  C   UNL     1       5.873  -2.180   2.742  0.00  0.00    +0.023 A 
ATOM     22 CL   UNL     1       7.491  -4.227   3.465  0.00  0.00    -0.083 Cl
ATOM     23 CL   UNL     1       2.139  -4.691   2.891  0.00  0.00    -0.083 Cl
ENDBRANCH  15  16
ENDBRANCH   8  15
TORSDOF 3
