REMARK  Name = ZINC20734547
REMARK  3 active torsions:
REMARK  status: ('A' for Active; 'I' for Inactive)
REMARK    1  A    between atoms: C_4  and  O_7
REMARK    2  A    between atoms: O_7  and  C_8
REMARK    3  A    between atoms: C_12  and  C_14
REMARK                            x       y       z     vdW  Elec       q    Type
REMARK                         _______ _______ _______ _____ _____    ______ ____
ROOT
ATOM      1  C   UNL     1       3.657  -1.988  -0.010  0.00  0.00    +0.129 A 
ATOM      2  C   UNL     1       2.495  -2.747  -0.046  0.00  0.00    +0.046 A 
ATOM      3  C   UNL     1       2.571  -4.125  -0.020  0.00  0.00    +0.004 A 
ATOM      4  C   UNL     1       3.803  -4.750   0.042  0.00  0.00    +0.004 A 
ATOM      5  C   UNL     1       4.962  -3.997   0.077  0.00  0.00    -0.036 A 
ATOM      6  C   UNL     1       4.892  -2.618   0.046  0.00  0.00    +0.050 A 
ENDROOT
BRANCH   5   7
ATOM      7  C   UNL     1       6.303  -4.682   0.145  0.00  0.00    +0.063 C 
ATOM      8  C   UNL     1       6.377  -5.548   1.405  0.00  0.00    +0.109 C 
ATOM      9  C   UNL     1       5.579  -6.810   1.264  0.00  0.00    +0.219 C 
ATOM     10  O   UNL     1       4.971  -7.223   2.229  0.00  0.00    -0.275 OA
ATOM     11  N   UNL     1       5.507  -7.506   0.110  0.00  0.00    -0.269 N 
ATOM     12  C   UNL     1       6.085  -6.936  -1.036  0.00  0.00    +0.150 A 
ATOM     13  C   UNL     1       6.478  -5.576  -1.056  0.00  0.00    +0.020 A 
ATOM     14  C   UNL     1       6.988  -5.309  -2.266  0.00  0.00    +0.111 A 
ATOM     15  N   UNL     1       6.931  -6.447  -2.997  0.00  0.00    -0.283 N 
ATOM     16  H   UNL     1       7.231  -6.551  -3.913  0.00  0.00    +0.188 HD
ATOM     17  N   UNL     1       6.359  -7.453  -2.195  0.00  0.00    -0.158 NA
ATOM     18  H   UNL     1       5.070  -8.371   0.072  0.00  0.00    +0.156 HD
ENDBRANCH   5   7
BRANCH   1  19
ATOM     19  O   UNL     1       3.586  -0.632  -0.036  0.00  0.00    -0.456 OA
BRANCH  19  23
ATOM     20  C   UNL     1       3.336   1.363   3.566  0.00  0.00    +0.000 A 
ATOM     21  C   UNL     1       3.418  -0.017   3.546  0.00  0.00    +0.004 A 
ATOM     22  C   UNL     1       3.502  -0.687   2.341  0.00  0.00    +0.046 A 
ATOM     23  C   UNL     1       3.503   0.025   1.151  0.00  0.00    +0.128 A 
ATOM     24  C   UNL     1       3.420   1.410   1.174  0.00  0.00    +0.046 A 
ATOM     25  C   UNL     1       3.337   2.076   2.381  0.00  0.00    +0.004 A 
ENDBRANCH  19  23
ENDBRANCH   1  19
TORSDOF 3
