REMARK  Name = ZINC20676651
REMARK  4 active torsions:
REMARK  status: ('A' for Active; 'I' for Inactive)
REMARK    1  A    between atoms: C_1  and  C_2
REMARK    2  A    between atoms: C_10  and  C_11
REMARK    3  A    between atoms: N_13  and  C_14
REMARK    4  A    between atoms: C_15  and  C_19
REMARK                            x       y       z     vdW  Elec       q    Type
REMARK                         _______ _______ _______ _____ _____    ______ ____
ROOT
ATOM      1  C   UNL     1      -1.190  -0.926   0.008  0.00  0.00    +0.048 C 
ATOM      2  C   UNL     1       0.002  -0.004   0.002  0.00  0.00    +0.008 A 
ATOM      3  C   UNL     1      -0.018   1.458   0.010  0.00  0.00    +0.027 A 
ATOM      4  C   UNL     1      -1.034   2.417   0.030  0.00  0.00    +0.050 A 
ATOM      5  C   UNL     1      -0.706   3.756   0.030  0.00  0.00    +0.124 A 
ATOM      6  C   UNL     1       0.627   4.150   0.019  0.00  0.00    +0.042 A 
ATOM      7  C   UNL     1       1.638   3.214   0.004  0.00  0.00    +0.050 A 
ATOM      8  C   UNL     1       1.331   1.859  -0.001  0.00  0.00    +0.136 A 
ATOM      9  O   UNL     1       2.087   0.743  -0.014  0.00  0.00    -0.450 OA
ATOM     10  C   UNL     1       1.312  -0.362  -0.012  0.00  0.00    +0.194 A 
ATOM     11  F   UNL     1      -1.683   4.688   0.044  0.00  0.00    -0.205 F 
ENDROOT
BRANCH  10  12
ATOM     12  C   UNL     1       1.811  -1.744  -0.025  0.00  0.00    +0.284 C 
ATOM     13  O   UNL     1       1.026  -2.674  -0.024  0.00  0.00    -0.266 OA
ATOM     14  N   UNL     1       3.137  -1.982  -0.039  0.00  0.00    -0.272 N 
ATOM     15  H   UNL     1       3.847  -1.141  -0.041  0.00  0.00    +0.156 HD
BRANCH  14  16
ATOM     16  C   UNL     1       3.608  -3.286  -0.051  0.00  0.00    +0.090 A 
ATOM     17  C   UNL     1       4.925  -3.728  -0.072  0.00  0.00    +0.080 A 
ATOM     18  C   UNL     1       5.130  -5.157  -0.076  0.00  0.00    +0.028 A 
ATOM     19  C   UNL     1       4.033  -5.935  -0.071  0.00  0.00    +0.048 A 
ATOM     20  S   UNL     1       2.696  -4.758  -0.052  0.00  0.00    -0.081 S 
BRANCH  17  21
ATOM     21  C   UNL     1       6.025  -2.812  -0.084  0.00  0.00    +0.102 C 
ATOM     22  N   UNL     1       6.897  -2.084  -0.094  0.00  0.00    -0.191 NA
ENDBRANCH  17  21
ENDBRANCH  14  16
ENDBRANCH  10  12
TORSDOF 3
