REMARK  Name = ZINC36755421
REMARK  7 active torsions:
REMARK  status: ('A' for Active; 'I' for Inactive)
REMARK    1  A    between atoms: C_1  and  C_2
REMARK    2  A    between atoms: C_2  and  C_3
REMARK    3  A    between atoms: C_2  and  C_4
REMARK    4  A    between atoms: C_2  and  O_5
REMARK    5  A    between atoms: O_5  and  C_6
REMARK    6  A    between atoms: C_12  and  C_14
REMARK    7  A    between atoms: N_16  and  C_17
REMARK                            x       y       z     vdW  Elec       q    Type
REMARK                         _______ _______ _______ _____ _____    ______ ____
ROOT
ATOM      1  C   UNL     1       4.944  -0.691  -1.651  0.00  0.00    +0.238 C 
ATOM      2  O   UNL     1       4.548  -1.565  -0.910  0.00  0.00    -0.273 OA
ATOM      3  N   UNL     1       6.189  -0.196  -1.504  0.00  0.00    -0.283 N 
ATOM      4  H   UNL     1       6.529   0.457  -2.136  0.00  0.00    +0.155 HD
ENDROOT
BRANCH   3   5
ATOM      5  C   UNL     1       6.992  -0.623  -0.438  0.00  0.00    +0.051 A 
ATOM      6  C   UNL     1       6.910  -1.934   0.011  0.00  0.00    +0.073 A 
ATOM      7  C   UNL     1       7.704  -2.357   1.065  0.00  0.00    +0.164 A 
ATOM      8  C   UNL     1       8.584  -1.467   1.671  0.00  0.00    +0.163 A 
ATOM      9  C   UNL     1       8.662  -0.158   1.221  0.00  0.00    +0.066 A 
ATOM     10  C   UNL     1       7.874   0.263   0.167  0.00  0.00    +0.043 A 
ATOM     11 BR   UNL     1       7.990   2.047  -0.448  0.00  0.00    -0.048 Br
ATOM     12  O   UNL     1       9.378  -1.867   2.703  0.00  0.00    -0.485 OA
ATOM     13  C   UNL     1       9.006  -3.078   3.369  0.00  0.00    +0.270 C 
ATOM     14  C   UNL     1       8.686  -4.135   2.303  0.00  0.00    +0.270 C 
ATOM     15  O   UNL     1       7.609  -3.645   1.496  0.00  0.00    -0.485 OA
ENDBRANCH   3   5
BRANCH   1  22
ATOM     16  C   UNL     1       1.951  -0.096  -1.357  0.00  0.00    +0.404 C 
ATOM     17  O   UNL     1       2.481   0.614  -0.525  0.00  0.00    -0.226 OA
ATOM     18  N   UNL     1       2.646  -0.500  -2.439  0.00  0.00    -0.256 N 
ATOM     19  C   UNL     1       2.127  -1.353  -3.524  0.00  0.00    +0.112 C 
ATOM     20  C   UNL     1       3.015  -1.020  -4.749  0.00  0.00    +0.021 C 
ATOM     21  C   UNL     1       4.402  -0.820  -4.083  0.00  0.00    +0.033 C 
ATOM     22  C   UNL     1       4.045  -0.158  -2.736  0.00  0.00    +0.165 C 
BRANCH  16  23
ATOM     23  O   UNL     1       0.670  -0.479  -1.198  0.00  0.00    -0.445 OA
BRANCH  23  25
ATOM     24  C   UNL     1      -0.030   1.516  -0.028  0.00  0.00    +0.055 C 
ATOM     25  C   UNL     1      -0.005  -0.013  -0.028  0.00  0.00    +0.107 C 
ATOM     26  C   UNL     1       0.730  -0.512   1.218  0.00  0.00    +0.055 C 
ATOM     27  C   UNL     1      -1.439  -0.547  -0.021  0.00  0.00    +0.055 C 
ENDBRANCH  23  25
ENDBRANCH  16  23
ENDBRANCH   1  22
TORSDOF 4
