REMARK  Name = ZINC57933125
REMARK  5 active torsions:
REMARK  status: ('A' for Active; 'I' for Inactive)
REMARK    1  A    between atoms: C_1  and  C_2
REMARK    2  A    between atoms: C_2  and  C_3
REMARK    3  A    between atoms: C_3  and  N_4
REMARK    4  A    between atoms: C_12  and  C_15
REMARK    5  A    between atoms: C_12  and  C_16
REMARK                            x       y       z     vdW  Elec       q    Type
REMARK                         _______ _______ _______ _____ _____    ______ ____
ROOT
ATOM      1  N   UNL     1       0.738  -1.962  -1.265  0.00  0.00    -0.268 N 
ATOM      2  C   UNL     1       1.805  -2.642  -0.664  0.00  0.00    +0.060 A 
ATOM      3  C   UNL     1       2.731  -1.958   0.108  0.00  0.00    +0.066 A 
ATOM      4  C   UNL     1       3.776  -2.645   0.702  0.00  0.00    +0.160 A 
ATOM      5  C   UNL     1       3.900  -4.016   0.529  0.00  0.00    +0.160 A 
ATOM      6  C   UNL     1       2.980  -4.704  -0.244  0.00  0.00    +0.066 A 
ATOM      7  C   UNL     1       1.937  -4.019  -0.843  0.00  0.00    +0.053 A 
ATOM      8  N   UNL     1       1.003  -4.691  -1.649  0.00  0.00    -0.329 N 
ATOM      9  C   UNL     1      -0.356  -4.138  -1.741  0.00  0.00    +0.103 C 
ATOM     10  C   UNL     1      -0.272  -2.637  -1.844  0.00  0.00    +0.243 C 
ATOM     11  O   UNL     1      -1.123  -2.030  -2.460  0.00  0.00    -0.273 OA
ATOM     12  C   UNL     1      -1.054  -4.701  -2.981  0.00  0.00    +0.041 C 
ATOM     13  C   UNL     1      -1.149  -4.516  -0.488  0.00  0.00    +0.041 C 
ATOM     14  F   UNL     1       4.920  -4.680   1.115  0.00  0.00    -0.202 F 
ATOM     15  F   UNL     1       4.678  -1.978   1.454  0.00  0.00    -0.202 F 
ATOM     16  H   UNL     1       1.248  -5.496  -2.131  0.00  0.00    +0.147 HD
ENDROOT
BRANCH   1  17
ATOM     17  C   UNL     1       0.718  -0.497  -1.257  0.00  0.00    +0.113 C 
BRANCH  17  19
ATOM     18  C   UNL     1      -0.019   1.526   0.010  0.00  0.00    +0.005 C 
ATOM     19  C   UNL     1       0.002  -0.004   0.002  0.00  0.00    +0.016 C 
ENDBRANCH  17  19
ENDBRANCH   1  17
TORSDOF 2
