REMARK  Name = ZINC62635558
REMARK  7 active torsions:
REMARK  status: ('A' for Active; 'I' for Inactive)
REMARK    1  A    between atoms: C_1  and  C_2
REMARK    2  A    between atoms: C_2  and  C_3
REMARK    3  A    between atoms: C_2  and  C_4
REMARK    4  A    between atoms: C_2  and  C_5
REMARK    5  A    between atoms: C_10  and  N_11
REMARK    6  A    between atoms: C_12  and  C_14
REMARK    7  A    between atoms: N_20  and  C_21
REMARK                            x       y       z     vdW  Elec       q    Type
REMARK                         _______ _______ _______ _____ _____    ______ ____
ROOT
ATOM      1  N   UNL     1       0.185  -2.720  -0.754  0.00  0.00    -0.284 N 
ATOM      2  C   UNL     1       0.159  -4.015  -1.127  0.00  0.00    +0.241 C 
ATOM      3  O   UNL     1       0.705  -4.362  -2.154  0.00  0.00    -0.273 OA
ATOM      4  H   UNL     1      -0.216  -2.450   0.086  0.00  0.00    +0.155 HD
ENDROOT
BRANCH   2   5
ATOM      5  C   UNL     1      -0.548  -5.032  -0.270  0.00  0.00    +0.202 C 
ATOM      6  C   UNL     1      -2.066  -4.739  -0.206  0.00  0.00    +0.265 C 
ATOM      7  O   UNL     1      -2.629  -6.065  -0.224  0.00  0.00    -0.448 OA
ATOM      8  C   UNL     1      -1.758  -6.878  -0.846  0.00  0.00    +0.403 C 
ATOM      9  O   UNL     1      -2.062  -7.959  -1.310  0.00  0.00    -0.226 OA
ATOM     10  N   UNL     1      -0.509  -6.368  -0.898  0.00  0.00    -0.256 N 
ATOM     11  C   UNL     1       0.670  -7.017  -1.475  0.00  0.00    +0.136 C 
ENDBRANCH   2   5
BRANCH   1  17
ATOM     12  C   UNL     1       0.413  -0.433  -1.496  0.00  0.00    -0.021 A 
ATOM     13  C   UNL     1       1.018   0.507  -2.308  0.00  0.00    +0.006 A 
ATOM     14  C   UNL     1       1.995   0.120  -3.206  0.00  0.00    +0.000 A 
ATOM     15  C   UNL     1       2.371  -1.208  -3.295  0.00  0.00    +0.002 A 
ATOM     16  C   UNL     1       1.770  -2.152  -2.486  0.00  0.00    +0.023 A 
ATOM     17  C   UNL     1       0.792  -1.766  -1.579  0.00  0.00    +0.037 A 
BRANCH  12  19
ATOM     18  C   UNL     1      -1.001   1.461  -0.746  0.00  0.00    +0.015 C 
ATOM     19  C   UNL     1      -0.651  -0.011  -0.516  0.00  0.00    -0.011 C 
ATOM     20  C   UNL     1      -0.133  -0.195   0.911  0.00  0.00    +0.015 C 
ATOM     21  C   UNL     1      -1.901  -0.870  -0.720  0.00  0.00    +0.015 C 
ENDBRANCH  12  19
ENDBRANCH   1  17
TORSDOF 3
