REMARK  Name = ZINC02803891
REMARK  3 active torsions:
REMARK  status: ('A' for Active; 'I' for Inactive)
REMARK    1  A    between atoms: C_1  and  C_2
REMARK    2  A    between atoms: C_12  and  C_14
REMARK    3  A    between atoms: C_21  and  C_24
REMARK                            x       y       z     vdW  Elec       q    Type
REMARK                         _______ _______ _______ _____ _____    ______ ____
ROOT
ATOM      1  C   UNL     1       4.066  -5.767  10.315  0.00  0.00    +0.044 C 
ATOM      2  C   UNL     1       3.437  -4.738   9.411  0.00  0.00    -0.049 A 
ATOM      3  C   UNL     1       3.591  -4.826   8.035  0.00  0.00    +0.005 A 
ATOM      4  C   UNL     1       3.031  -3.903   7.191  0.00  0.00    +0.029 A 
ATOM      5  C   UNL     1       2.272  -2.824   7.701  0.00  0.00    +0.080 A 
ATOM      6  C   UNL     1       2.137  -2.767   9.107  0.00  0.00    +0.041 A 
ATOM      7  C   UNL     1       2.702  -3.696   9.945  0.00  0.00    +0.020 A 
ATOM      8  S   UNL     1       1.144  -1.310   9.332  0.00  0.00    -0.052 S 
ATOM      9  C   UNL     1       0.977  -0.884   7.604  0.00  0.00    +0.166 A 
ATOM     10  N   UNL     1       1.653  -1.841   7.013  0.00  0.00    -0.225 NA
ATOM     11  N   UNL     1       0.301   0.181   7.034  0.00  0.00    -0.259 N 
ATOM     12  C   UNL     1       0.291   0.334   5.695  0.00  0.00    +0.272 C 
ATOM     13  O   UNL     1       0.875  -0.463   4.988  0.00  0.00    -0.268 OA
ATOM     14  H   UNL     1      -0.165   0.818   7.598  0.00  0.00    +0.157 HD
ENDROOT
BRANCH  12  15
ATOM     15  C   UNL     1      -0.433   1.475   5.084  0.00  0.00    +0.171 A 
ATOM     16  C   UNL     1      -0.542   1.778   3.712  0.00  0.00    +0.027 A 
ATOM     17  C   UNL     1      -1.293   2.903   3.670  0.00  0.00    +0.141 A 
ATOM     18  O   UNL     1      -1.589   3.212   4.931  0.00  0.00    -0.359 OA
ATOM     19  N   UNL     1      -1.108   2.414   5.710  0.00  0.00    -0.073 NA
ATOM     20  C   UNL     1      -1.673   3.609   2.395  0.00  0.00    +0.078 C 
ATOM     21  C   UNL     1      -0.750   3.110   1.275  0.00  0.00    +0.011 C 
ATOM     22  C   UNL     1      -0.729   1.579   1.267  0.00  0.00    -0.009 C 
ATOM     23  C   UNL     1       0.014   1.071   2.511  0.00  0.00    +0.044 C 
ATOM     24  C   UNL     1      -0.013   1.086   0.008  0.00  0.00    +0.008 C 
ENDBRANCH  12  15
TORSDOF 1
