REMARK  Name = ZINC15301566
REMARK  7 active torsions:
REMARK  status: ('A' for Active; 'I' for Inactive)
REMARK    1  A    between atoms: C_1  and  C_2
REMARK    2  A    between atoms: C_9  and  C_14
REMARK    3  A    between atoms: N_16  and  C_17
REMARK    4  A    between atoms: C_22  and  C_23
REMARK    5  A    between atoms: C_23  and  C_24
REMARK    6  A    between atoms: C_23  and  C_25
REMARK    7  A    between atoms: C_23  and  C_26
REMARK                            x       y       z     vdW  Elec       q    Type
REMARK                         _______ _______ _______ _____ _____    ______ ____
ROOT
ATOM      1  C   UNL     1       1.061   1.371  -0.935  0.00  0.00    +0.248 C 
ATOM      2  O   UNL     1       1.079   2.423  -1.545  0.00  0.00    -0.270 OA
ATOM      3  N   UNL     1      -0.077   0.954  -0.345  0.00  0.00    -0.281 N 
ATOM      4  H   UNL     1      -0.101   0.098   0.110  0.00  0.00    +0.155 HD
ENDROOT
BRANCH   1  12
ATOM      5  C   UNL     1       8.355  -1.998  -2.033  0.00  0.00    +0.029 C 
ATOM      6  C   UNL     1       6.891  -1.563  -2.121  0.00  0.00    +0.134 C 
ATOM      7  C   UNL     1       6.819  -0.077  -2.340  0.00  0.00    +0.230 C 
ATOM      8  O   UNL     1       7.761   0.470  -2.875  0.00  0.00    -0.274 OA
ATOM      9  N   UNL     1       5.780   0.671  -1.979  0.00  0.00    -0.284 N 
ATOM     10  C   UNL     1       4.613   0.221  -1.367  0.00  0.00    +0.048 A 
ATOM     11  C   UNL     1       3.460   0.984  -1.457  0.00  0.00    +0.037 A 
ATOM     12  C   UNL     1       2.284   0.553  -0.840  0.00  0.00    +0.039 A 
ATOM     13  C   UNL     1       2.261  -0.656  -0.138  0.00  0.00    +0.014 A 
ATOM     14  C   UNL     1       3.405  -1.419  -0.054  0.00  0.00    +0.017 A 
ATOM     15  C   UNL     1       4.576  -0.989  -0.664  0.00  0.00    +0.030 A 
ATOM     16  S   UNL     1       6.041  -1.969  -0.566  0.00  0.00    -0.111 S 
ATOM     17  H   UNL     1       5.841   1.622  -2.160  0.00  0.00    +0.155 HD
ENDBRANCH   1  12
BRANCH   3  18
ATOM     18  C   UNL     1      -1.224   1.753  -0.393  0.00  0.00    +0.037 A 
ATOM     19  C   UNL     1      -1.119   3.103  -0.702  0.00  0.00    +0.023 A 
ATOM     20  C   UNL     1      -2.254   3.888  -0.754  0.00  0.00    +0.002 A 
ATOM     21  C   UNL     1      -3.493   3.333  -0.489  0.00  0.00    +0.000 A 
ATOM     22  C   UNL     1      -3.600   1.990  -0.177  0.00  0.00    +0.006 A 
ATOM     23  C   UNL     1      -2.469   1.199  -0.128  0.00  0.00    -0.021 A 
BRANCH  23  24
ATOM     24  C   UNL     1      -2.587  -0.265   0.213  0.00  0.00    -0.011 C 
ATOM     25  C   UNL     1      -4.064  -0.636   0.364  0.00  0.00    +0.015 C 
ATOM     26  C   UNL     1      -1.963  -1.101  -0.906  0.00  0.00    +0.015 C 
ATOM     27  C   UNL     1      -1.854  -0.543   1.527  0.00  0.00    +0.015 C 
ENDBRANCH  23  24
ENDBRANCH   3  18
TORSDOF 3
