REMARK  Name = ZINC04841831
REMARK  3 active torsions:
REMARK  status: ('A' for Active; 'I' for Inactive)
REMARK    1  A    between atoms: C_1  and  C_2
REMARK    2  A    between atoms: C_5  and  S_8
REMARK    3  A    between atoms: S_8  and  C_11
REMARK                            x       y       z     vdW  Elec       q    Type
REMARK                         _______ _______ _______ _____ _____    ______ ____
ROOT
ATOM      1  C   UNL     1      -4.659  -0.540   0.045  0.00  0.00    +0.209 A 
ATOM      2  C   UNL     1      -4.718   0.814   0.053  0.00  0.00    +0.125 A 
ATOM      3  S   UNL     1      -2.977   1.222   0.038  0.00  0.00    -0.039 S 
ATOM      4  C   UNL     1      -2.359  -0.456   0.023  0.00  0.00    +0.167 A 
ATOM      5  N   UNL     1      -3.487  -1.146   0.024  0.00  0.00    -0.204 NA
ATOM      6  N   UNL     1      -1.048  -0.912   0.007  0.00  0.00    -0.272 N 
ATOM      7  C   UNL     1       0.002  -0.004   0.002  0.00  0.00    +0.187 A 
ATOM      8  N   UNL     1      -0.016   1.322   0.009  0.00  0.00    -0.126 NA
ATOM      9  N   UNL     1       1.047   2.002   0.003  0.00  0.00    -0.148 NA
ATOM     10  C   UNL     1       2.239   1.440  -0.012  0.00  0.00    +0.183 A 
ATOM     11  S   UNL     1       1.770  -0.288  -0.016  0.00  0.00    -0.039 S 
ATOM     12 CL   UNL     1      -6.101   1.863   0.072  0.00  0.00    -0.072 Cl
ATOM     13  H   UNL     1      -0.866  -1.864   0.000  0.00  0.00    +0.156 HD
ENDROOT
BRANCH   1  14
ATOM     14  S   UNL     1      -6.143  -1.489   0.056  0.00  0.00    +0.044 S 
ATOM     15  O   UNL     1      -5.809  -2.760   0.596  0.00  0.00    -0.163 OA
ATOM     16  O   UNL     1      -7.150  -0.661   0.621  0.00  0.00    -0.163 OA
BRANCH  14  21
ATOM     17  C   UNL     1      -7.706  -2.420  -5.697  0.00  0.00    +0.044 C 
ATOM     18  C   UNL     1      -7.316  -2.187  -4.260  0.00  0.00    -0.050 A 
ATOM     19  C   UNL     1      -6.492  -3.089  -3.614  0.00  0.00    +0.005 A 
ATOM     20  C   UNL     1      -6.134  -2.876  -2.296  0.00  0.00    +0.028 A 
ATOM     21  C   UNL     1      -6.600  -1.761  -1.624  0.00  0.00    +0.095 A 
ATOM     22  C   UNL     1      -7.428  -0.862  -2.270  0.00  0.00    +0.028 A 
ATOM     23  C   UNL     1      -7.783  -1.073  -3.589  0.00  0.00    +0.005 A 
ENDBRANCH  14  21
ENDBRANCH   1  14
TORSDOF 2
