REMARK  Name = ZINC50986389
REMARK  4 active torsions:
REMARK  status: ('A' for Active; 'I' for Inactive)
REMARK    1  A    between atoms: C_1  and  C_2
REMARK    2  A    between atoms: C_2  and  N_3
REMARK    3  A    between atoms: C_4  and  C_21
REMARK    4  A    between atoms: C_6  and  C_9
REMARK                            x       y       z     vdW  Elec       q    Type
REMARK                         _______ _______ _______ _____ _____    ______ ____
ROOT
ATOM      1  N   UNL     1      -1.372  -0.511   0.012  0.00  0.00    -0.279 N 
ATOM      2  C   UNL     1      -2.117  -0.776  -1.102  0.00  0.00    +0.073 C 
ATOM      3  N   UNL     1      -3.297  -1.214  -0.834  0.00  0.00    -0.363 N 
ATOM      4  C   UNL     1      -3.441  -1.279   0.628  0.00  0.00    +0.172 C 
ATOM      5  C   UNL     1      -2.100  -0.796   1.148  0.00  0.00    +0.101 C 
ATOM      6  N   UNL     1      -1.726  -0.675   2.379  0.00  0.00    -0.388 N 
ATOM      7  C   UNL     1      -1.607  -0.576  -2.506  0.00  0.00    +0.081 C 
ATOM      8  H   UNL     1      -0.836  -0.349   2.585  0.00  0.00    +0.157 HD
ATOM      9  H   UNL     1      -2.335  -0.910   3.096  0.00  0.00    +0.157 HD
ATOM     10  H   UNL     1      -3.974  -1.458  -1.484  0.00  0.00    +0.162 HD
ENDROOT
BRANCH   4  11
ATOM     11  C   UNL     1      -4.552  -0.372   1.091  0.00  0.00    -0.013 A 
ATOM     12  C   UNL     1      -5.384  -0.772   2.122  0.00  0.00    +0.055 A 
ATOM     13  C   UNL     1      -6.403   0.064   2.545  0.00  0.00    +0.163 A 
ATOM     14  C   UNL     1      -6.588   1.297   1.938  0.00  0.00    +0.176 A 
ATOM     15  C   UNL     1      -5.754   1.695   0.906  0.00  0.00    +0.063 A 
ATOM     16  C   UNL     1      -4.732   0.859   0.489  0.00  0.00    +0.025 A 
ATOM     17 BR   UNL     1      -6.004   3.375   0.076  0.00  0.00    -0.046 Br
ATOM     18  O   UNL     1      -7.595   2.114   2.363  0.00  0.00    -0.487 OA
ATOM     19  C   UNL     1      -8.924   1.663   2.090  0.00  0.00    +0.232 C 
ATOM     20  C   UNL     1      -9.399   0.701   3.167  0.00  0.00    +0.082 C 
ATOM     21  C   UNL     1      -8.587  -0.584   3.196  0.00  0.00    +0.232 C 
ATOM     22  O   UNL     1      -7.231  -0.319   3.561  0.00  0.00    -0.488 OA
ENDBRANCH   4  11
BRANCH   1  24
ATOM     23  C   UNL     1      -0.019   1.526   0.010  0.00  0.00    +0.025 C 
ATOM     24  C   UNL     1       0.002  -0.004   0.002  0.00  0.00    +0.110 C 
ENDBRANCH   1  24
TORSDOF 2
