REMARK  Name = ZINC09018736
REMARK  11 active torsions:
REMARK  status: ('A' for Active; 'I' for Inactive)
REMARK    1  A    between atoms: C_1  and  C_2
REMARK    2  A    between atoms: C_4  and  C_29
REMARK    3  A    between atoms: C_5  and  N_9
REMARK    4  A    between atoms: C_6  and  C_8
REMARK    5  A    between atoms: C_10  and  C_12
REMARK    6  A    between atoms: C_12  and  S_13
REMARK    7  A    between atoms: S_13  and  C_14
REMARK    8  A    between atoms: C_19  and  C_25
REMARK    9  A    between atoms: C_25  and  C_26
REMARK   10  A    between atoms: C_25  and  C_27
REMARK   11  A    between atoms: C_25  and  C_28
REMARK                            x       y       z     vdW  Elec       q    Type
REMARK                         _______ _______ _______ _____ _____    ______ ____
ROOT
ATOM      1  S   UNL     1      -5.937   3.679   0.288  0.00  0.00    -0.076 S 
ENDROOT
BRANCH   1   2
ATOM      2  C   UNL     1      -6.298   1.972   0.040  0.00  0.00    +0.198 A 
ATOM      3  N   UNL     1      -5.428   1.035  -0.246  0.00  0.00    -0.120 NA
ATOM      4  N   UNL     1      -6.118  -0.179  -0.363  0.00  0.00    -0.109 NA
ATOM      5  C   UNL     1      -7.390   0.053  -0.144  0.00  0.00    +0.237 A 
ATOM      6  N   UNL     1      -7.536   1.392   0.117  0.00  0.00    -0.260 N 
ATOM      7  C   UNL     1      -8.782   1.914   0.377  0.00  0.00    +0.039 A 
ATOM      8  C   UNL     1      -9.862   1.113   0.387  0.00  0.00    +0.092 A 
ATOM      9  C   UNL     1      -9.717  -0.273   0.124  0.00  0.00    +0.253 A 
ATOM     10  O   UNL     1     -10.693  -1.002   0.132  0.00  0.00    -0.268 OA
ATOM     11  N   UNL     1      -8.495  -0.780  -0.136  0.00  0.00    -0.291 N 
ATOM     12  H   UNL     1      -8.391  -1.728  -0.316  0.00  0.00    +0.172 HD
BRANCH   7  13
ATOM     13  C   UNL     1      -8.937   3.387   0.656  0.00  0.00    +0.003 C 
ATOM     14  C   UNL     1     -10.408   3.702   0.933  0.00  0.00    +0.017 C 
ATOM     15  C   UNL     1      -8.095   3.765   1.877  0.00  0.00    +0.017 C 
ATOM     16  C   UNL     1      -8.463   4.189  -0.558  0.00  0.00    +0.017 C 
ENDBRANCH   7  13
ENDBRANCH   1   2
BRANCH   1  17
ATOM     17  C   UNL     1      -4.141   3.786   0.055  0.00  0.00    +0.173 C 
BRANCH  17  19
ATOM     18  N   UNL     1      -2.392   5.534   0.116  0.00  0.00    -0.284 N 
ATOM     19  C   UNL     1      -3.695   5.213   0.243  0.00  0.00    +0.228 C 
ATOM     20  O   UNL     1      -4.508   6.073   0.508  0.00  0.00    -0.275 OA
ATOM     21  H   UNL     1      -1.736   4.840  -0.053  0.00  0.00    +0.155 HD
BRANCH  18  26
ATOM     22  C   UNL     1      -0.733  10.939   0.578  0.00  0.00    +0.044 C 
ATOM     23  C   UNL     1      -1.176   9.505   0.454  0.00  0.00    -0.050 A 
ATOM     24  C   UNL     1      -1.829   8.891   1.507  0.00  0.00    +0.008 A 
ATOM     25  C   UNL     1      -2.236   7.576   1.397  0.00  0.00    -0.029 A 
ATOM     26  C   UNL     1      -1.986   6.868   0.229  0.00  0.00    +0.039 A 
ATOM     27  C   UNL     1      -1.336   7.489  -0.830  0.00  0.00    -0.029 A 
ATOM     28  C   UNL     1      -0.930   8.804  -0.713  0.00  0.00    +0.008 A 
ATOM     29  C   UNL     1      -1.068   6.727  -2.102  0.00  0.00    +0.045 C 
ATOM     30  C   UNL     1      -2.946   6.907   2.546  0.00  0.00    +0.045 C 
ENDBRANCH  18  26
ENDBRANCH  17  19
ENDBRANCH   1  17
TORSDOF 5
