REMARK  Name = ZINC21783031
REMARK  9 active torsions:
REMARK  status: ('A' for Active; 'I' for Inactive)
REMARK    1  A    between atoms: C_1  and  C_2
REMARK    2  A    between atoms: C_4  and  C_35
REMARK    3  A    between atoms: C_13  and  C_25
REMARK    4  A    between atoms: N_15  and  C_18
REMARK    5  A    between atoms: C_18  and  C_19
REMARK    6  A    between atoms: C_28  and  O_33
REMARK    7  A    between atoms: C_29  and  O_31
REMARK    8  A    between atoms: O_31  and  C_32
REMARK    9  A    between atoms: O_33  and  C_34
REMARK                            x       y       z     vdW  Elec       q    Type
REMARK                         _______ _______ _______ _____ _____    ______ ____
ROOT
ATOM      1  C   UNL     1       8.156   3.938   8.270  0.00  0.00    +0.044 C 
ATOM      2  C   UNL     1       6.812   3.538   7.717  0.00  0.00    -0.047 A 
ATOM      3  C   UNL     1       5.796   4.481   7.638  0.00  0.00    +0.007 A 
ATOM      4  C   UNL     1       4.571   4.135   7.139  0.00  0.00    -0.036 A 
ATOM      5  C   UNL     1       4.345   2.829   6.708  0.00  0.00    +0.067 A 
ATOM      6  C   UNL     1       5.368   1.868   6.784  0.00  0.00    +0.140 A 
ATOM      7  C   UNL     1       6.607   2.243   7.296  0.00  0.00    +0.050 A 
ATOM      8  O   UNL     1       5.152   0.607   6.369  0.00  0.00    -0.450 OA
ATOM      9  C   UNL     1       3.978   0.177   5.865  0.00  0.00    +0.199 A 
ATOM     10  C   UNL     1       2.917   1.014   5.743  0.00  0.00    +0.072 A 
ATOM     11  C   UNL     1       3.039   2.412   6.163  0.00  0.00    +0.199 A 
ATOM     12  O   UNL     1       2.107   3.191   6.067  0.00  0.00    -0.287 OA
ATOM     13  C   UNL     1       1.782   0.219   5.152  0.00  0.00    +0.145 C 
ATOM     14  N   UNL     1       2.299  -1.141   4.953  0.00  0.00    -0.281 N 
ATOM     15  C   UNL     1       3.577  -1.163   5.368  0.00  0.00    +0.283 C 
ATOM     16  O   UNL     1       4.300  -2.139   5.341  0.00  0.00    -0.267 OA
ATOM     17  C   UNL     1       3.471   5.162   7.054  0.00  0.00    +0.044 C 
ENDROOT
BRANCH  13  18
ATOM     18  C   UNL     1       1.364   0.814   3.832  0.00  0.00    -0.019 A 
ATOM     19  C   UNL     1       2.122   0.581   2.699  0.00  0.00    +0.009 A 
ATOM     20  C   UNL     1       1.740   1.119   1.485  0.00  0.00    +0.050 A 
ATOM     21  C   UNL     1       0.601   1.904   1.403  0.00  0.00    +0.162 A 
ATOM     22  C   UNL     1      -0.162   2.139   2.543  0.00  0.00    +0.162 A 
ATOM     23  C   UNL     1       0.224   1.591   3.756  0.00  0.00    +0.055 A 
BRANCH  22  24
ATOM     24  O   UNL     1      -1.284   2.904   2.466  0.00  0.00    -0.491 OA
ATOM     25  C   UNL     1      -2.018   3.102   3.676  0.00  0.00    +0.277 C 
ENDBRANCH  22  24
BRANCH  21  26
ATOM     26  O   UNL     1       0.227   2.440   0.210  0.00  0.00    -0.491 OA
ATOM     27  C   UNL     1       1.058   2.157  -0.917  0.00  0.00    +0.277 C 
ENDBRANCH  21  26
ENDBRANCH  13  18
BRANCH  14  28
ATOM     28  C   UNL     1       1.553  -2.273   4.398  0.00  0.00    +0.140 C 
BRANCH  28  29
ATOM     29  C   UNL     1       1.732  -2.307   2.879  0.00  0.00    +0.136 C 
ATOM     30  C   UNL     1       0.858  -3.427   2.274  0.00  0.00    +0.035 C 
ATOM     31  C   UNL     1       1.782  -4.004   1.167  0.00  0.00    +0.031 C 
ATOM     32  C   UNL     1       3.173  -3.836   1.829  0.00  0.00    +0.160 C 
ATOM     33  O   UNL     1       3.096  -2.600   2.556  0.00  0.00    -0.375 OA
ENDBRANCH  28  29
ENDBRANCH  14  28
TORSDOF 5
