REMARK  Name = ZINC12613164
REMARK  6 active torsions:
REMARK  status: ('A' for Active; 'I' for Inactive)
REMARK    1  A    between atoms: C_1  and  C_2
REMARK    2  A    between atoms: C_2  and  C_3
REMARK    3  A    between atoms: C_2  and  C_4
REMARK    4  A    between atoms: C_18  and  C_19
REMARK    5  A    between atoms: C_18  and  N_52
REMARK    6  A    between atoms: C_21  and  C_24
REMARK                            x       y       z     vdW  Elec       q    Type
REMARK                         _______ _______ _______ _____ _____    ______ ____
ROOT
ATOM      1  C   UNL     1      -2.819  -1.975   1.046  0.00  0.00    -0.017 C 
ATOM      2  C   UNL     1      -2.879  -2.672   2.385  0.00  0.00    +0.007 A 
ATOM      3  C   UNL     1      -1.787  -2.890   3.152  0.00  0.00    -0.022 A 
ATOM      4  C   UNL     1      -2.233  -3.574   4.346  0.00  0.00    +0.003 A 
ATOM      5  C   UNL     1      -1.563  -4.046   5.479  0.00  0.00    +0.010 A 
ATOM      6  C   UNL     1      -2.325  -4.661   6.441  0.00  0.00    +0.001 A 
ATOM      7  C   UNL     1      -3.696  -4.814   6.307  0.00  0.00    +0.002 A 
ATOM      8  C   UNL     1      -4.385  -4.358   5.197  0.00  0.00    +0.026 A 
ATOM      9  C   UNL     1      -3.637  -3.728   4.204  0.00  0.00    +0.047 A 
ATOM     10  N   UNL     1      -3.990  -3.173   3.008  0.00  0.00    -0.359 N 
ATOM     11  H   UNL     1      -4.892  -3.138   2.653  0.00  0.00    +0.166 HD
ATOM     12  C   UNL     1      -0.395  -2.466   2.757  0.00  0.00    +0.019 C 
ATOM     13  C   UNL     1      -0.404  -2.149   1.255  0.00  0.00    -0.072 C 
ATOM     14  N   UNL     1      -1.535  -1.238   0.970  0.00  0.00    +0.391 N 
ATOM     15  H   UNL     1      -1.541  -0.486   1.670  0.00  0.00    -0.080 HD
ENDROOT
BRANCH   1  17
ATOM     16  C   UNL     1      -5.300  -1.735   0.871  0.00  0.00    +0.006 C 
ATOM     17  C   UNL     1      -3.972  -0.976   0.930  0.00  0.00    -0.025 C 
ATOM     18  C   UNL     1      -3.969  -0.049   2.147  0.00  0.00    +0.006 C 
ENDBRANCH   1  17
BRANCH  14  19
ATOM     19  C   UNL     1      -1.376  -0.641  -0.372  0.00  0.00    +0.023 C 
BRANCH  19  20
ATOM     20  C   UNL     1      -0.180   0.276  -0.356  0.00  0.00    +0.211 A 
ATOM     21  N   UNL     1       1.054  -0.049  -0.648  0.00  0.00    -0.193 NA
ATOM     22  C   UNL     1       1.774   1.085  -0.498  0.00  0.00    +0.202 A 
ATOM     23  N   UNL     1       0.943   2.024  -0.127  0.00  0.00    -0.056 NA
ATOM     24  O   UNL     1      -0.181   1.575  -0.042  0.00  0.00    -0.340 OA
BRANCH  22  25
ATOM     25  C   UNL     1       3.235   1.237  -0.714  0.00  0.00    +0.022 A 
ATOM     26  C   UNL     1       4.001   0.142  -1.106  0.00  0.00    +0.012 A 
ATOM     27  C   UNL     1       5.358   0.289  -1.310  0.00  0.00    +0.001 A 
ATOM     28  C   UNL     1       5.959   1.520  -1.117  0.00  0.00    +0.000 A 
ATOM     29  C   UNL     1       5.204   2.610  -0.722  0.00  0.00    +0.001 A 
ATOM     30  C   UNL     1       3.845   2.474  -0.520  0.00  0.00    +0.012 A 
ENDBRANCH  22  25
ENDBRANCH  19  20
ENDBRANCH  14  19
TORSDOF 4
