REMARK  Name = ZINC00222222
REMARK  4 active torsions:
REMARK  status: ('A' for Active; 'I' for Inactive)
REMARK    1  A    between atoms: C_1  and  C_2
REMARK    2  A    between atoms: C_5  and  C_8
REMARK    3  A    between atoms: C_11  and  C_19
REMARK    4  A    between atoms: C_22  and  C_25
REMARK                            x       y       z     vdW  Elec       q    Type
REMARK                         _______ _______ _______ _____ _____    ______ ____
ROOT
ATOM      1  C   UNL     1       0.059  -4.275  -0.021  0.00  0.00    +0.106 C 
ATOM      2  C   UNL     1      -1.353  -4.810   0.243  0.00  0.00    +0.058 C 
ATOM      3  C   UNL     1      -1.347  -6.342   0.181  0.00  0.00    +0.143 C 
ATOM      4  N   UNL     1      -0.250  -6.844   1.008  0.00  0.00    -0.226 N 
ATOM      5  C   UNL     1       0.811  -6.099   1.403  0.00  0.00    +0.215 A 
ATOM      6  N   UNL     1       1.590  -6.856   2.127  0.00  0.00    -0.202 NA
ATOM      7  C   UNL     1       1.064  -8.083   2.214  0.00  0.00    +0.247 A 
ATOM      8  N   UNL     1      -0.061  -8.118   1.544  0.00  0.00    -0.156 NA
ATOM      9  N   UNL     1       0.959  -4.765   1.041  0.00  0.00    -0.307 N 
ATOM     10  H   UNL     1       1.613  -4.188   1.465  0.00  0.00    +0.149 HD
ENDROOT
BRANCH   1  15
ATOM     11  C   UNL     1      -0.018   1.503   0.010  0.00  0.00    +0.044 C 
ATOM     12  C   UNL     1       0.002  -0.004   0.002  0.00  0.00    -0.050 A 
ATOM     13  C   UNL     1       0.006  -0.689  -1.199  0.00  0.00    +0.004 A 
ATOM     14  C   UNL     1       0.025  -2.071  -1.206  0.00  0.00    +0.006 A 
ATOM     15  C   UNL     1       0.040  -2.768  -0.013  0.00  0.00    -0.027 A 
ATOM     16  C   UNL     1       0.037  -2.084   1.188  0.00  0.00    +0.006 A 
ATOM     17  C   UNL     1       0.023  -0.702   1.195  0.00  0.00    +0.004 A 
ENDBRANCH   1  15
BRANCH   3  18
ATOM     18  C   UNL     1      -2.658  -6.874   0.699  0.00  0.00    -0.023 A 
ATOM     19  C   UNL     1      -3.056  -6.590   1.993  0.00  0.00    +0.006 A 
ATOM     20  C   UNL     1      -4.259  -7.078   2.468  0.00  0.00    +0.004 A 
ATOM     21  C   UNL     1      -5.064  -7.848   1.651  0.00  0.00    -0.050 A 
ATOM     22  C   UNL     1      -4.667  -8.131   0.357  0.00  0.00    +0.004 A 
ATOM     23  C   UNL     1      -3.466  -7.640  -0.120  0.00  0.00    +0.006 A 
ATOM     24  C   UNL     1      -6.375  -8.381   2.170  0.00  0.00    +0.044 C 
ENDBRANCH   3  18
TORSDOF 2
