REMARK  Name = ZINC40259099
REMARK  3 active torsions:
REMARK  status: ('A' for Active; 'I' for Inactive)
REMARK    1  A    between atoms: C_5  and  C_7
REMARK    2  A    between atoms: C_7  and  C_9
REMARK    3  A    between atoms: C_7  and  O_20
REMARK                            x       y       z     vdW  Elec       q    Type
REMARK                         _______ _______ _______ _____ _____    ______ ____
ROOT
ATOM      1  C   UNL     1       1.373  -2.695   1.389  0.00  0.00    -0.011 A 
ATOM      2  C   UNL     1       0.250  -2.851   2.183  0.00  0.00    +0.009 A 
ATOM      3  C   UNL     1       0.374  -3.317   3.478  0.00  0.00    +0.030 A 
ATOM      4  C   UNL     1       1.628  -3.628   3.981  0.00  0.00    +0.087 A 
ATOM      5  C   UNL     1       2.760  -3.472   3.182  0.00  0.00    +0.157 A 
ATOM      6  C   UNL     1       2.625  -3.008   1.882  0.00  0.00    +0.055 A 
ATOM      7  O   UNL     1       3.831  -3.846   3.923  0.00  0.00    -0.408 OA
ATOM      8  C   UNL     1       3.414  -4.226   5.141  0.00  0.00    +0.419 A 
ATOM      9  O   UNL     1       4.133  -4.618   6.039  0.00  0.00    -0.223 OA
ATOM     10  N   UNL     1       2.073  -4.107   5.213  0.00  0.00    -0.288 N 
ATOM     11  H   UNL     1       1.519  -4.315   5.982  0.00  0.00    +0.172 HD
ENDROOT
BRANCH   1  12
ATOM     12  C   UNL     1       1.229  -2.186  -0.022  0.00  0.00    +0.176 C 
BRANCH  12  17
ATOM     13  C   UNL     1      -0.017   1.378   0.010  0.00  0.00    +0.000 A 
ATOM     14  C   UNL     1       1.171   2.086   0.002  0.00  0.00    +0.001 A 
ATOM     15  C   UNL     1       2.377   1.412  -0.013  0.00  0.00    +0.015 A 
ATOM     16  C   UNL     1       2.397   0.029  -0.021  0.00  0.00    +0.024 A 
ATOM     17  C   UNL     1       1.208  -0.679  -0.013  0.00  0.00    -0.001 A 
ATOM     18  C   UNL     1       0.002  -0.004   0.002  0.00  0.00    +0.007 A 
ATOM     19 BR   UNL     1       4.047  -0.894  -0.042  0.00  0.00    -0.050 Br
ENDBRANCH  12  17
BRANCH  12  20
ATOM     20  O   UNL     1       0.009  -2.675  -0.582  0.00  0.00    -0.382 OA
ATOM     21  H   UNL     1      -0.783  -2.404  -0.099  0.00  0.00    +0.211 HD
ENDBRANCH  12  20
ENDBRANCH   1  12
TORSDOF 3
