REMARK  Name = ZINC01071283
REMARK  7 active torsions:
REMARK  status: ('A' for Active; 'I' for Inactive)
REMARK    1  A    between atoms: C_1  and  C_2
REMARK    2  A    between atoms: C_4  and  C_14
REMARK    3  A    between atoms: C_5  and  C_13
REMARK    4  A    between atoms: N_6  and  C_7
REMARK    5  A    between atoms: C_15  and  C_16
REMARK    6  A    between atoms: C_15  and  C_18
REMARK    7  A    between atoms: C_22  and  N_24
REMARK                            x       y       z     vdW  Elec       q    Type
REMARK                         _______ _______ _______ _____ _____    ______ ____
ROOT
ATOM      1  C   UNL     1      -0.598  10.788   0.451  0.00  0.00    +0.064 C 
ATOM      2  C   UNL     1      -0.172   9.583  -0.347  0.00  0.00    +0.022 A 
ATOM      3  C   UNL     1      -0.235   8.308   0.073  0.00  0.00    +0.031 A 
ATOM      4  C   UNL     1       0.279   7.479  -1.024  0.00  0.00    -0.003 A 
ATOM      5  C   UNL     1       0.621   8.355  -2.036  0.00  0.00    +0.028 A 
ATOM      6  N   UNL     1       0.338   9.614  -1.615  0.00  0.00    -0.317 N 
ATOM      7  C   UNL     1       1.202   7.979  -3.374  0.00  0.00    +0.064 C 
ENDROOT
BRANCH   6   8
ATOM      8  C   UNL     1       0.545  10.777  -2.368  0.00  0.00    +0.047 A 
ATOM      9  C   UNL     1      -0.175  10.986  -3.537  0.00  0.00    +0.026 A 
ATOM     10  C   UNL     1       0.028  12.136  -4.274  0.00  0.00    +0.002 A 
ATOM     11  C   UNL     1       0.955  13.073  -3.856  0.00  0.00    +0.000 A 
ATOM     12  C   UNL     1       1.677  12.865  -2.696  0.00  0.00    +0.002 A 
ATOM     13  C   UNL     1       1.475  11.720  -1.951  0.00  0.00    +0.026 A 
ENDBRANCH   6   8
BRANCH   4  14
ATOM     14  C   UNL     1       0.409   6.019  -1.040  0.00  0.00    +0.029 C 
ATOM     15  C   UNL     1       0.364   5.318   0.128  0.00  0.00    +0.060 C 
BRANCH  15  16
ATOM     16  C   UNL     1       0.345   3.837   0.103  0.00  0.00    -0.005 A 
ATOM     17  C   UNL     1       1.446   3.131  -0.385  0.00  0.00    +0.009 A 
ATOM     18  C   UNL     1       1.422   1.752  -0.406  0.00  0.00    +0.003 A 
ATOM     19  C   UNL     1       0.311   1.069   0.055  0.00  0.00    +0.033 A 
ATOM     20  C   UNL     1      -0.785   1.763   0.534  0.00  0.00    +0.127 A 
ATOM     21  C   UNL     1      -0.772   3.143   0.566  0.00  0.00    +0.042 A 
BRANCH  20  22
ATOM     22  N   UNL     1      -1.973   1.025   1.019  0.00  0.00    +0.056 N 
ATOM     23  O   UNL     1      -1.984  -0.193   0.996  0.00  0.00    -0.126 OA
ATOM     24  O   UNL     1      -2.939   1.635   1.441  0.00  0.00    -0.126 OA
ENDBRANCH  20  22
ENDBRANCH  15  16
BRANCH  15  25
ATOM     25  C   UNL     1       0.334   6.013   1.379  0.00  0.00    +0.100 C 
ATOM     26  N   UNL     1       0.310   6.565   2.372  0.00  0.00    -0.191 NA
ENDBRANCH  15  25
ENDBRANCH   4  14
TORSDOF 5
