REMARK  Name = ZINC22290947
REMARK  7 active torsions:
REMARK  status: ('A' for Active; 'I' for Inactive)
REMARK    1  A    between atoms: C_1  and  C_2
REMARK    2  A    between atoms: N_5  and  C_8
REMARK    3  A    between atoms: C_8  and  C_9
REMARK    4  A    between atoms: C_15  and  C_17
REMARK    5  A    between atoms: C_17  and  C_19
REMARK    6  A    between atoms: C_17  and  N_20
REMARK    7  A    between atoms: C_21  and  C_23
REMARK                            x       y       z     vdW  Elec       q    Type
REMARK                         _______ _______ _______ _____ _____    ______ ____
ROOT
ATOM      1  C   UNL     1      -0.143  -4.380   2.730  0.00  0.00    +0.034 A 
ATOM      2  C   UNL     1      -0.911  -4.617   3.822  0.00  0.00    +0.070 A 
ATOM      3  S   UNL     1       0.338  -5.073   5.014  0.00  0.00    -0.060 S 
ATOM      4  C   UNL     1       1.682  -4.917   4.013  0.00  0.00    +0.165 A 
ATOM      5  N   UNL     1       1.160  -4.547   2.864  0.00  0.00    -0.231 NA
ATOM      6  N   UNL     1       3.020  -5.131   4.325  0.00  0.00    -0.263 N 
ATOM      7  C   UNL     1       3.369  -5.517   5.568  0.00  0.00    +0.239 C 
ATOM      8  O   UNL     1       2.516  -5.677   6.415  0.00  0.00    -0.273 OA
ATOM      9  H   UNL     1       3.702  -5.003   3.647  0.00  0.00    +0.157 HD
ENDROOT
BRANCH   7  10
ATOM     10  C   UNL     1       4.819  -5.749   5.905  0.00  0.00    +0.156 C 
ATOM     11  C   UNL     1       5.608  -4.457   5.684  0.00  0.00    +0.038 C 
BRANCH  10  12
ATOM     12  N   UNL     1       4.935  -6.158   7.308  0.00  0.00    -0.300 N 
ATOM     13  C   UNL     1       5.994  -6.887   7.712  0.00  0.00    +0.245 C 
ATOM     14  O   UNL     1       6.853  -7.206   6.913  0.00  0.00    -0.270 OA
ATOM     15  H   UNL     1       4.250  -5.904   7.945  0.00  0.00    +0.150 HD
BRANCH  13  16
ATOM     16  C   UNL     1       6.111  -7.300   9.127  0.00  0.00    +0.037 A 
ATOM     17  C   UNL     1       5.123  -6.940  10.045  0.00  0.00    +0.013 A 
ATOM     18  C   UNL     1       5.238  -7.329  11.364  0.00  0.00    +0.001 A 
ATOM     19  C   UNL     1       6.329  -8.072  11.777  0.00  0.00    +0.000 A 
ATOM     20  C   UNL     1       7.312  -8.431  10.872  0.00  0.00    +0.001 A 
ATOM     21  C   UNL     1       7.206  -8.055   9.549  0.00  0.00    +0.013 A 
ENDBRANCH  13  16
ENDBRANCH  10  12
ENDBRANCH   7  10
BRANCH   1  22
ATOM     22  C   UNL     1      -0.750  -3.952   1.419  0.00  0.00    -0.022 C 
BRANCH  22  27
ATOM     23  C   UNL     1      -0.019   1.526   0.010  0.00  0.00    +0.007 C 
ATOM     24  C   UNL     1       0.002  -0.004   0.002  0.00  0.00    -0.018 C 
ATOM     25  C   UNL     1      -1.434  -0.536   0.023  0.00  0.00    -0.016 C 
ATOM     26  C   UNL     1      -1.405  -2.064   0.095  0.00  0.00    -0.078 C 
ATOM     27  N   UNL     1      -0.707  -2.487   1.315  0.00  0.00    +0.383 N 
ATOM     28  C   UNL     1       0.691  -2.042   1.269  0.00  0.00    -0.078 C 
ATOM     29  C   UNL     1       0.743  -0.513   1.242  0.00  0.00    -0.016 C 
ATOM     30  H   UNL     1      -1.162  -2.082   2.119  0.00  0.00    -0.081 HD
ENDBRANCH  22  27
ENDBRANCH   1  22
TORSDOF 5
