REMARK  Name = ZINC13390138
REMARK  8 active torsions:
REMARK  status: ('A' for Active; 'I' for Inactive)
REMARK    1  A    between atoms: C_1  and  C_2
REMARK    2  A    between atoms: C_4  and  C_27
REMARK    3  A    between atoms: C_5  and  C_9
REMARK    4  A    between atoms: C_6  and  C_8
REMARK    5  A    between atoms: C_15  and  C_17
REMARK    6  A    between atoms: C_18  and  C_19
REMARK    7  A    between atoms: C_21  and  C_25
REMARK    8  A    between atoms: C_22  and  C_24
REMARK                            x       y       z     vdW  Elec       q    Type
REMARK                         _______ _______ _______ _____ _____    ______ ____
ROOT
ATOM      1  C   UNL     1      -1.002   1.585  -0.403  0.00  0.00    +0.081 A 
ATOM      2  C   UNL     1      -0.086   0.606  -0.671  0.00  0.00    +0.076 A 
ATOM      3  S   UNL     1       1.402   1.581  -0.843  0.00  0.00    -0.060 S 
ATOM      4  C   UNL     1       0.660   3.178  -0.535  0.00  0.00    +0.165 A 
ATOM      5  N   UNL     1      -0.603   2.847  -0.337  0.00  0.00    -0.225 NA
ATOM      6  N   UNL     1       1.253   4.432  -0.511  0.00  0.00    -0.261 N 
ATOM      7  C   UNL     1       2.575   4.557  -0.743  0.00  0.00    +0.243 C 
ATOM      8  O   UNL     1       3.249   3.569  -0.973  0.00  0.00    -0.270 OA
ATOM      9  H   UNL     1       0.717   5.219  -0.328  0.00  0.00    +0.157 HD
ENDROOT
BRANCH   1  14
ATOM     10  C   UNL     1      -6.535   0.239   0.449  0.00  0.00    +0.044 C 
ATOM     11  C   UNL     1      -5.087   0.591   0.226  0.00  0.00    -0.050 A 
ATOM     12  C   UNL     1      -4.415   1.363   1.157  0.00  0.00    +0.007 A 
ATOM     13  C   UNL     1      -3.088   1.688   0.958  0.00  0.00    -0.041 A 
ATOM     14  C   UNL     1      -2.427   1.238  -0.183  0.00  0.00    +0.007 A 
ATOM     15  C   UNL     1      -3.111   0.466  -1.120  0.00  0.00    -0.041 A 
ATOM     16  C   UNL     1      -4.436   0.142  -0.908  0.00  0.00    +0.007 A 
ATOM     17  C   UNL     1      -2.404  -0.020  -2.360  0.00  0.00    +0.044 C 
ATOM     18  C   UNL     1      -2.357   2.528   1.973  0.00  0.00    +0.044 C 
ENDBRANCH   1  14
BRANCH   7  19
ATOM     19  C   UNL     1       3.180   5.836  -0.718  0.00  0.00    +0.071 C 
ATOM     20  C   UNL     1       4.510   5.962  -0.951  0.00  0.00    +0.051 C 
BRANCH  20  21
ATOM     21  C   UNL     1       5.116   7.243  -0.926  0.00  0.00    +0.129 A 
ATOM     22  C   UNL     1       6.438   7.502  -1.143  0.00  0.00    +0.064 A 
ATOM     23  C   UNL     1       6.600   8.905  -1.024  0.00  0.00    +0.104 A 
ATOM     24  C   UNL     1       5.353   9.420  -0.738  0.00  0.00    +0.117 A 
ATOM     25  O   UNL     1       4.481   8.409  -0.690  0.00  0.00    -0.460 OA
ATOM     26  C   UNL     1       5.028  10.876  -0.524  0.00  0.00    +0.087 C 
BRANCH  23  27
ATOM     27  C   UNL     1       7.854   9.664  -1.176  0.00  0.00    +0.390 C 
ATOM     28  O   UNL     1       7.852  10.873  -1.047  0.00  0.00    -0.240 OA
ATOM     29  O   UNL     1       9.002   9.019  -1.457  0.00  0.00    -0.240 OA
ENDBRANCH  23  27
ENDBRANCH  20  21
ENDBRANCH   7  19
TORSDOF 4
