REMARK  Name = ZINC20494398
REMARK  5 active torsions:
REMARK  status: ('A' for Active; 'I' for Inactive)
REMARK    1  A    between atoms: C_1  and  O_2
REMARK    2  A    between atoms: O_2  and  C_3
REMARK    3  A    between atoms: C_6  and  N_9
REMARK    4  A    between atoms: C_13  and  N_17
REMARK    5  A    between atoms: N_20  and  C_23
REMARK                            x       y       z     vdW  Elec       q    Type
REMARK                         _______ _______ _______ _____ _____    ______ ____
ROOT
ATOM      1  N   UNL     1       4.499  -5.008   5.311  0.00  0.00    -0.295 NA
ATOM      2  C   UNL     1       5.377  -5.163   6.479  0.00  0.00    +0.066 C 
ATOM      3  C   UNL     1       6.611  -5.976   6.082  0.00  0.00    -0.062 C 
ATOM      4  N   UNL     1       6.191  -7.293   5.586  0.00  0.00    +0.385 N 
ATOM      5  C   UNL     1       5.334  -7.123   4.404  0.00  0.00    -0.062 C 
ATOM      6  C   UNL     1       4.090  -6.319   4.788  0.00  0.00    +0.066 C 
ATOM      7  H   UNL     1       5.676  -7.776   6.307  0.00  0.00    -0.081 HD
ENDROOT
BRANCH   4   8
ATOM      8  C   UNL     1       7.377  -8.080   5.221  0.00  0.00    -0.065 C 
ATOM      9  C   UNL     1       8.158  -7.348   4.128  0.00  0.00    -0.009 C 
ATOM     10  C   UNL     1       9.393  -8.168   3.748  0.00  0.00    -0.012 C 
ATOM     11  C   UNL     1       8.955  -9.540   3.231  0.00  0.00    +0.007 C 
ATOM     12  C   UNL     1       8.174 -10.271   4.324  0.00  0.00    -0.012 C 
ATOM     13  C   UNL     1       6.939  -9.452   4.704  0.00  0.00    -0.009 C 
ATOM     14  C   UNL     1       9.065 -10.450   5.555  0.00  0.00    +0.007 C 
ATOM     15  C   UNL     1       9.503  -9.079   6.072  0.00  0.00    -0.012 C 
ATOM     16  C   UNL     1      10.284  -8.347   4.979  0.00  0.00    +0.007 C 
ATOM     17  C   UNL     1       8.268  -8.259   6.452  0.00  0.00    -0.009 C 
ENDBRANCH   4   8
BRANCH   1  22
ATOM     18  N   UNL     1       2.540  -2.504   4.233  0.00  0.00    -0.209 N 
ATOM     19  C   UNL     1       3.193  -1.830   5.187  0.00  0.00    +0.228 C 
ATOM     20  O   UNL     1       3.307  -0.624   5.242  0.00  0.00    -0.275 OA
ATOM     21  C   UNL     1       3.767  -2.810   6.186  0.00  0.00    +0.125 C 
ATOM     22  C   UNL     1       3.328  -4.183   5.639  0.00  0.00    +0.153 C 
ATOM     23  C   UNL     1       2.547  -3.834   4.391  0.00  0.00    +0.244 C 
ATOM     24  O   UNL     1       2.014  -4.631   3.649  0.00  0.00    -0.273 OA
BRANCH  18  28
ATOM     25  C   UNL     1       0.625  -0.618   1.043  0.00  0.00    +0.120 A 
ATOM     26  C   UNL     1      -0.122  -1.279   2.007  0.00  0.00    +0.047 A 
ATOM     27  C   UNL     1       0.512  -1.904   3.063  0.00  0.00    +0.027 A 
ATOM     28  C   UNL     1       1.896  -1.870   3.160  0.00  0.00    +0.044 A 
ATOM     29  C   UNL     1       2.643  -1.208   2.195  0.00  0.00    +0.027 A 
ATOM     30  C   UNL     1       2.009  -0.588   1.137  0.00  0.00    +0.047 A 
BRANCH  25  32
ATOM     31  C   UNL     1      -1.426  -0.074  -0.030  0.00  0.00    +0.277 C 
ATOM     32  O   UNL     1       0.001  -0.003   0.003  0.00  0.00    -0.495 OA
ENDBRANCH  25  32
ENDBRANCH  18  28
ENDBRANCH   1  22
TORSDOF 4
