REMARK  Name = ZINC41068300
REMARK  4 active torsions:
REMARK  status: ('A' for Active; 'I' for Inactive)
REMARK    1  A    between atoms: C_4  and  C_7
REMARK    2  A    between atoms: N_10  and  S_14
REMARK    3  A    between atoms: S_14  and  C_17
REMARK    4  A    between atoms: C_19  and  N_22
REMARK                            x       y       z     vdW  Elec       q    Type
REMARK                         _______ _______ _______ _____ _____    ______ ____
ROOT
ATOM      1  C   UNL     1       3.711  -0.707  -0.038  0.00  0.00    +0.164 C 
ATOM      2  C   UNL     1       4.049  -1.185   1.379  0.00  0.00    +0.146 C 
ATOM      3  N   UNL     1       5.233  -2.056   1.305  0.00  0.00    -0.171 NA
ATOM      4  C   UNL     1       5.224  -3.154   0.325  0.00  0.00    +0.137 C 
ATOM      5  C   UNL     1       4.829  -2.579  -1.040  0.00  0.00    +0.178 C 
ATOM      6  O   UNL     1       3.614  -1.838  -0.907  0.00  0.00    -0.369 OA
ENDROOT
BRANCH   1  10
ATOM      7  C   UNL     1      -0.017   1.378   0.010  0.00  0.00    +0.000 A 
ATOM      8  C   UNL     1       1.171   2.086   0.002  0.00  0.00    +0.000 A 
ATOM      9  C   UNL     1       2.377   1.411  -0.013  0.00  0.00    +0.006 A 
ATOM     10  C   UNL     1       2.396   0.029  -0.020  0.00  0.00    -0.018 A 
ATOM     11  C   UNL     1       1.208  -0.679  -0.012  0.00  0.00    +0.006 A 
ATOM     12  C   UNL     1       0.002  -0.004   0.002  0.00  0.00    +0.000 A 
ENDBRANCH   1  10
BRANCH   3  13
ATOM     13  S   UNL     1       6.537  -1.807   2.295  0.00  0.00    +0.067 S 
ATOM     14  O   UNL     1       7.660  -2.383   1.640  0.00  0.00    -0.152 OA
ATOM     15  O   UNL     1       6.500  -0.440   2.681  0.00  0.00    -0.152 OA
BRANCH  13  16
ATOM     16  C   UNL     1       6.268  -2.751   3.758  0.00  0.00    +0.144 A 
ATOM     17  C   UNL     1       6.634  -4.029   4.028  0.00  0.00    +0.059 A 
ATOM     18  C   UNL     1       6.312  -4.572   5.261  0.00  0.00    +0.034 A 
ATOM     19  C   UNL     1       5.640  -3.806   6.160  0.00  0.00    +0.069 A 
ATOM     20  S   UNL     1       5.451  -2.270   5.270  0.00  0.00    -0.075 S 
BRANCH  18  21
ATOM     21  N   UNL     1       6.674  -5.895   5.577  0.00  0.00    -0.358 N 
ATOM     22  H   UNL     1       7.154  -6.435   4.929  0.00  0.00    +0.142 HD
ATOM     23  H   UNL     1       6.445  -6.268   6.443  0.00  0.00    +0.142 HD
ENDBRANCH  18  21
ENDBRANCH  13  16
ENDBRANCH   3  13
TORSDOF 4
