REMARK  Name = ZINC42023831
REMARK  7 active torsions:
REMARK  status: ('A' for Active; 'I' for Inactive)
REMARK    1  A    between atoms: C_1  and  C_2
REMARK    2  A    between atoms: N_6  and  C_24
REMARK    3  A    between atoms: C_8  and  C_10
REMARK    4  A    between atoms: N_12  and  C_13
REMARK    5  A    between atoms: C_18  and  S_19
REMARK    6  A    between atoms: S_19  and  C_20
REMARK    7  A    between atoms: C_20  and  C_21
REMARK                            x       y       z     vdW  Elec       q    Type
REMARK                         _______ _______ _______ _____ _____    ______ ____
ROOT
ATOM      1  C   UNL     1       3.264   0.457   2.118  0.00  0.00    +0.283 C 
ATOM      2  O   UNL     1       2.906   0.363   3.277  0.00  0.00    -0.267 OA
ATOM      3  N   UNL     1       4.366   1.167   1.808  0.00  0.00    -0.278 N 
ATOM      4  H   UNL     1       4.606   1.310   0.879  0.00  0.00    +0.155 HD
ENDROOT
BRANCH   1  11
ATOM      5  C   UNL     1      -0.536   0.280   0.383  0.00  0.00    +0.038 C 
ATOM      6  C   UNL     1       0.272  -1.019   0.367  0.00  0.00    +0.157 C 
ATOM      7  C   UNL     1       0.905  -1.209  -0.991  0.00  0.00    +0.259 C 
ATOM      8  O   UNL     1       0.297  -1.772  -1.877  0.00  0.00    -0.271 OA
ATOM      9  N   UNL     1       2.153  -0.747  -1.211  0.00  0.00    -0.157 N 
ATOM     10  N   UNL     1       2.871  -0.112  -0.192  0.00  0.00    -0.152 NA
ATOM     11  C   UNL     1       2.493  -0.208   1.053  0.00  0.00    +0.201 C 
ATOM     12  N   UNL     1       1.347  -0.948   1.368  0.00  0.00    -0.313 N 
ATOM     13  H   UNL     1       1.264  -1.401   2.221  0.00  0.00    +0.148 HD
BRANCH   9  14
ATOM     14  C   UNL     1       2.736  -0.903  -2.473  0.00  0.00    +0.060 A 
ATOM     15  C   UNL     1       4.022  -1.417  -2.587  0.00  0.00    +0.025 A 
ATOM     16  C   UNL     1       4.595  -1.570  -3.834  0.00  0.00    +0.002 A 
ATOM     17  C   UNL     1       3.890  -1.213  -4.969  0.00  0.00    +0.000 A 
ATOM     18  C   UNL     1       2.610  -0.701  -4.859  0.00  0.00    +0.002 A 
ATOM     19  C   UNL     1       2.028  -0.552  -3.615  0.00  0.00    +0.025 A 
ENDBRANCH   9  14
ENDBRANCH   1  11
BRANCH   3  20
ATOM     20  C   UNL     1       5.165   1.700   2.827  0.00  0.00    +0.047 A 
ATOM     21  C   UNL     1       5.091   1.182   4.112  0.00  0.00    +0.024 A 
ATOM     22  C   UNL     1       5.881   1.709   5.116  0.00  0.00    +0.002 A 
ATOM     23  C   UNL     1       6.747   2.753   4.846  0.00  0.00    +0.001 A 
ATOM     24  C   UNL     1       6.827   3.276   3.569  0.00  0.00    +0.016 A 
ATOM     25  C   UNL     1       6.043   2.750   2.553  0.00  0.00    +0.030 A 
BRANCH  25  26
ATOM     26  S   UNL     1       6.149   3.409   0.922  0.00  0.00    -0.114 S 
BRANCH  26  27
ATOM     27  C   UNL     1       7.393   4.722   1.060  0.00  0.00    +0.169 C 
BRANCH  27  28
ATOM     28  C   UNL     1       7.583   5.377  -0.284  0.00  0.00    +0.221 C 
ATOM     29  O   UNL     1       6.942   4.996  -1.240  0.00  0.00    -0.275 OA
ATOM     30  N   UNL     1       8.465   6.387  -0.423  0.00  0.00    -0.329 N 
ATOM     31  H   UNL     1       8.977   6.692   0.342  0.00  0.00    +0.145 HD
ATOM     32  H   UNL     1       8.587   6.809  -1.288  0.00  0.00    +0.145 HD
ENDBRANCH  27  28
ENDBRANCH  26  27
ENDBRANCH  25  26
ENDBRANCH   3  20
TORSDOF 6
