REMARK  Name = ZINC28575023
REMARK  7 active torsions:
REMARK  status: ('A' for Active; 'I' for Inactive)
REMARK    1  A    between atoms: C_1  and  C_2
REMARK    2  A    between atoms: C_2  and  C_3
REMARK    3  A    between atoms: C_9  and  C_22
REMARK    4  A    between atoms: C_10  and  C_12
REMARK    5  A    between atoms: N_14  and  C_15
REMARK    6  A    between atoms: N_18  and  C_21
REMARK    7  A    between atoms: C_19  and  C_20
REMARK                            x       y       z     vdW  Elec       q    Type
REMARK                         _______ _______ _______ _____ _____    ______ ____
ROOT
ATOM      1  C   UNL     1      -0.749   3.086   1.275  0.00  0.00    -0.047 A 
ATOM      2  C   UNL     1      -1.808   3.764   0.686  0.00  0.00    +0.007 A 
ATOM      3  C   UNL     1      -1.847   5.142   0.683  0.00  0.00    +0.047 A 
ATOM      4  C   UNL     1      -0.817   5.865   1.274  0.00  0.00    +0.136 A 
ATOM      5  C   UNL     1       0.253   5.172   1.870  0.00  0.00    +0.024 A 
ATOM      6  C   UNL     1       0.271   3.775   1.867  0.00  0.00    +0.015 A 
ATOM      7  C   UNL     1       1.151   6.202   2.391  0.00  0.00    +0.008 A 
ATOM      8  C   UNL     1       0.576   7.394   2.082  0.00  0.00    +0.194 A 
ATOM      9  O   UNL     1      -0.583   7.183   1.425  0.00  0.00    -0.450 OA
ATOM     10  C   UNL     1       2.451   5.986   3.123  0.00  0.00    +0.048 C 
ENDROOT
BRANCH   8  11
ATOM     11  C   UNL     1       1.133   8.712   2.414  0.00  0.00    +0.284 C 
ATOM     12  O   UNL     1       2.190   8.794   3.012  0.00  0.00    -0.266 OA
ATOM     13  N   UNL     1       0.473   9.832   2.057  0.00  0.00    -0.276 N 
ATOM     14  H   UNL     1      -0.482   9.758   1.516  0.00  0.00    +0.155 HD
BRANCH  13  15
ATOM     15  C   UNL     1       1.006  11.095   2.374  0.00  0.00    +0.075 A 
ATOM     16  C   UNL     1       2.205  11.336   3.061  0.00  0.00    +0.158 A 
ATOM     17  N   UNL     1       2.368  12.630   3.163  0.00  0.00    -0.178 NA
ATOM     18  N   UNL     1       1.275  13.261   2.555  0.00  0.00    -0.270 N 
ATOM     19  C   UNL     1       0.449  12.296   2.076  0.00  0.00    +0.057 A 
ATOM     20  C   UNL     1      -0.851  12.518   1.346  0.00  0.00    +0.067 C 
ATOM     21  C   UNL     1       1.061  14.707   2.454  0.00  0.00    +0.172 C 
ENDBRANCH  13  15
ENDBRANCH   8  11
BRANCH   1  23
ATOM     22  C   UNL     1      -0.013   1.086   0.008  0.00  0.00    +0.009 C 
ATOM     23  C   UNL     1      -0.729   1.579   1.267  0.00  0.00    +0.032 C 
ENDBRANCH   1  23
TORSDOF 3
