REMARK  Name = ZINC56168892
REMARK  11 active torsions:
REMARK  status: ('A' for Active; 'I' for Inactive)
REMARK    1  A    between atoms: C_1  and  C_2
REMARK    2  A    between atoms: C_2  and  C_3
REMARK    3  A    between atoms: C_3  and  N_4
REMARK    4  A    between atoms: N_7  and  C_8
REMARK    5  A    between atoms: C_8  and  C_9
REMARK    6  A    between atoms: C_8  and  C_10
REMARK    7  A    between atoms: C_8  and  C_11
REMARK    8  A    between atoms: N_13  and  C_14
REMARK    9  A    between atoms: N_18  and  C_20
REMARK   10  A    between atoms: C_20  and  C_22
REMARK   11  A    between atoms: C_20  and  C_23
REMARK                            x       y       z     vdW  Elec       q    Type
REMARK                         _______ _______ _______ _____ _____    ______ ____
ROOT
ATOM      1  C   UNL     1       1.917  -6.206   3.071  0.00  0.00    +0.236 C 
ATOM      2  O   UNL     1       2.820  -6.949   3.394  0.00  0.00    -0.273 OA
ATOM      3  N   UNL     1       0.807  -6.706   2.493  0.00  0.00    -0.313 N 
ATOM      4  H   UNL     1       0.085  -6.112   2.235  0.00  0.00    +0.149 HD
ENDROOT
BRANCH   3   5
ATOM      5  C   UNL     1       0.691  -8.147   2.254  0.00  0.00    +0.055 C 
ATOM      6  C   UNL     1       0.094  -8.850   3.495  0.00  0.00    +0.002 C 
ATOM      7  C   UNL     1      -1.409  -8.966   3.138  0.00  0.00    -0.076 C 
ATOM      8  N   UNL     1      -1.391  -9.258   1.682  0.00  0.00    +0.385 N 
ATOM      9  C   UNL     1      -0.308  -8.421   1.115  0.00  0.00    -0.056 C 
ATOM     10  H   UNL     1      -1.193 -10.234   1.525  0.00  0.00    -0.081 HD
BRANCH   8  11
ATOM     11  C   UNL     1      -2.680  -8.896   1.077  0.00  0.00    -0.041 C 
ATOM     12  C   UNL     1      -2.632  -9.170  -0.427  0.00  0.00    -0.008 C 
BRANCH  11  13
ATOM     13  C   UNL     1      -3.777  -9.719   1.702  0.00  0.00    -0.061 A 
ATOM     14  C   UNL     1      -3.560 -11.053   1.992  0.00  0.00    +0.002 A 
ATOM     15  C   UNL     1      -4.566 -11.808   2.566  0.00  0.00    +0.000 A 
ATOM     16  C   UNL     1      -5.788 -11.229   2.850  0.00  0.00    +0.000 A 
ATOM     17  C   UNL     1      -6.005  -9.895   2.561  0.00  0.00    +0.000 A 
ATOM     18  C   UNL     1      -4.998  -9.139   1.991  0.00  0.00    +0.002 A 
ENDBRANCH  11  13
ENDBRANCH   8  11
ENDBRANCH   3   5
BRANCH   1  19
ATOM     19  C   UNL     1       2.037  -4.724   3.316  0.00  0.00    +0.106 C 
ATOM     20  C   UNL     1       3.516  -4.335   3.374  0.00  0.00    +0.041 C 
ATOM     21  C   UNL     1       1.364  -4.371   4.644  0.00  0.00    +0.041 C 
BRANCH  19  25
ATOM     22  N   UNL     1       0.762  -1.976   1.234  0.00  0.00    -0.299 N 
ATOM     23  C   UNL     1       1.364  -2.647   2.235  0.00  0.00    +0.300 C 
ATOM     24  O   UNL     1       1.891  -2.037   3.145  0.00  0.00    -0.253 OA
ATOM     25  N   UNL     1       1.383  -3.995   2.228  0.00  0.00    -0.286 N 
ATOM     26  H   UNL     1       0.342  -2.462   0.507  0.00  0.00    +0.150 HD
ATOM     27  H   UNL     1       0.962  -4.481   1.502  0.00  0.00    +0.151 HD
BRANCH  22  28
ATOM     28  C   UNL     1       0.742  -0.511   1.242  0.00  0.00    +0.105 C 
BRANCH  28  30
ATOM     29  C   UNL     1      -0.019   1.526   0.010  0.00  0.00    +0.005 C 
ATOM     30  C   UNL     1       0.002  -0.004   0.002  0.00  0.00    +0.015 C 
ENDBRANCH  28  30
ENDBRANCH  22  28
ENDBRANCH  19  25
ENDBRANCH   1  19
TORSDOF 7
