REMARK  Name = ZINC42147357
REMARK  4 active torsions:
REMARK  status: ('A' for Active; 'I' for Inactive)
REMARK    1  A    between atoms: C_1  and  C_2
REMARK    2  A    between atoms: N_6  and  C_13
REMARK    3  A    between atoms: C_13  and  C_14
REMARK    4  A    between atoms: C_16  and  C_19
REMARK                            x       y       z     vdW  Elec       q    Type
REMARK                         _______ _______ _______ _____ _____    ______ ____
ROOT
ATOM      1  C   UNL     1      -0.019   1.526   0.010  0.00  0.00    +0.012 C 
ATOM      2  C   UNL     1       0.002  -0.004   0.002  0.00  0.00    +0.019 C 
ATOM      3  C   UNL     1      -1.434  -0.528   0.001  0.00  0.00    +0.027 C 
ATOM      4  C   UNL     1      -1.407  -2.048   0.206  0.00  0.00    +0.106 C 
ATOM      5  N   UNL     1      -0.832  -2.312   1.532  0.00  0.00    -0.321 N 
ATOM      6  C   UNL     1       0.314  -1.611   1.924  0.00  0.00    +0.034 A 
ATOM      7  C   UNL     1       0.742  -0.498   1.217  0.00  0.00    -0.023 A 
ATOM      8  C   UNL     1       1.876   0.179   1.632  0.00  0.00    +0.006 A 
ATOM      9  C   UNL     1       2.578  -0.251   2.741  0.00  0.00    +0.000 A 
ATOM     10  C   UNL     1       2.153  -1.363   3.445  0.00  0.00    +0.002 A 
ATOM     11  C   UNL     1       1.023  -2.042   3.039  0.00  0.00    +0.023 A 
ENDROOT
BRANCH   5  12
ATOM     12  C   UNL     1      -1.448  -3.293   2.429  0.00  0.00    +0.203 C 
BRANCH  12  13
ATOM     13  C   UNL     1      -0.843  -4.651   2.179  0.00  0.00    +0.245 A 
ATOM     14  N   UNL     1       0.203  -5.144   2.782  0.00  0.00    -0.194 NA
ATOM     15  C   UNL     1       0.465  -6.371   2.318  0.00  0.00    +0.175 A 
ATOM     16  N   UNL     1      -0.417  -6.675   1.409  0.00  0.00    -0.061 NA
ATOM     17  O   UNL     1      -1.291  -5.561   1.305  0.00  0.00    -0.336 OA
BRANCH  15  18
ATOM     18  C   UNL     1       1.595  -7.257   2.772  0.00  0.00    +0.060 C 
ATOM     19  C   UNL     1       1.849  -8.542   1.980  0.00  0.00    +0.012 C 
ATOM     20  C   UNL     1       1.230  -8.614   3.378  0.00  0.00    +0.012 C 
ENDBRANCH  15  18
ENDBRANCH  12  13
ENDBRANCH   5  12
TORSDOF 3
