REMARK  Name = ZINC12921320
REMARK  12 active torsions:
REMARK  status: ('A' for Active; 'I' for Inactive)
REMARK    1  A    between atoms: C_1  and  C_2
REMARK    2  A    between atoms: C_5  and  C_27
REMARK    3  A    between atoms: C_6  and  N_8
REMARK    4  A    between atoms: C_9  and  C_11
REMARK    5  A    between atoms: C_11  and  N_12
REMARK    6  A    between atoms: N_12  and  C_13
REMARK    7  A    between atoms: C_14  and  C_16
REMARK    8  A    between atoms: C_16  and  N_56
REMARK    9  A    between atoms: C_17  and  N_56
REMARK   10  A    between atoms: C_18  and  C_20
REMARK   11  A    between atoms: C_18  and  C_21
REMARK   12  A    between atoms: C_18  and  N_56
REMARK                            x       y       z     vdW  Elec       q    Type
REMARK                         _______ _______ _______ _____ _____    ______ ____
ROOT
ATOM      1  N   UNL     1      -1.997   4.741  -0.111  0.00  0.00    -0.297 N 
ATOM      2  C   UNL     1      -1.385   5.748   0.760  0.00  0.00    +0.132 C 
ATOM      3  C   UNL     1      -1.744   3.432   0.091  0.00  0.00    +0.199 C 
ATOM      4  O   UNL     1      -2.251   2.599  -0.629  0.00  0.00    -0.278 OA
ENDROOT
BRANCH   1   5
ATOM      5  C   UNL     1      -2.884   5.156  -1.200  0.00  0.00    +0.203 C 
BRANCH   5   7
ATOM      6  N   UNL     1      -5.299   5.579  -1.530  0.00  0.00    -0.284 N 
ATOM      7  C   UNL     1      -4.303   5.218  -0.697  0.00  0.00    +0.235 C 
ATOM      8  O   UNL     1      -4.550   4.942   0.458  0.00  0.00    -0.274 OA
ATOM      9  H   UNL     1      -5.094   5.876  -2.431  0.00  0.00    +0.155 HD
BRANCH   6  15
ATOM     10  C   UNL     1      -8.699   3.680   1.471  0.00  0.00    +0.044 C 
ATOM     11  C   UNL     1      -8.304   4.614   0.356  0.00  0.00    -0.049 A 
ATOM     12  C   UNL     1      -9.257   5.420  -0.241  0.00  0.00    +0.004 A 
ATOM     13  C   UNL     1      -8.899   6.277  -1.264  0.00  0.00    +0.005 A 
ATOM     14  C   UNL     1      -7.588   6.332  -1.694  0.00  0.00    -0.029 A 
ATOM     15  C   UNL     1      -6.628   5.526  -1.097  0.00  0.00    +0.037 A 
ATOM     16  C   UNL     1      -6.992   4.661  -0.073  0.00  0.00    +0.027 A 
ATOM     17  C   UNL     1      -7.198   7.268  -2.810  0.00  0.00    +0.045 C 
ENDBRANCH   6  15
ENDBRANCH   5   7
ENDBRANCH   1   5
BRANCH   3  18
ATOM     18  C   UNL     1      -0.832   3.006   1.212  0.00  0.00    +0.019 C 
BRANCH  18  20
ATOM     19  C   UNL     1      -0.038   1.058   0.013  0.00  0.00    -0.095 C 
ATOM     20  N   UNL     1      -0.746   1.530   1.221  0.00  0.00    +0.388 N 
ATOM     21  H   UNL     1      -1.696   1.141   1.225  0.00  0.00    -0.081 HD
BRANCH  20  22
ATOM     22  C   UNL     1      -0.035   1.073   2.434  0.00  0.00    -0.041 C 
ATOM     23  C   UNL     1      -0.827   1.512   3.668  0.00  0.00    -0.008 C 
BRANCH  22  24
ATOM     24  C   UNL     1       0.061  -0.431   2.408  0.00  0.00    -0.061 A 
ATOM     25  C   UNL     1      -1.006  -1.184   1.955  0.00  0.00    +0.002 A 
ATOM     26  C   UNL     1      -0.916  -2.563   1.927  0.00  0.00    +0.000 A 
ATOM     27  C   UNL     1       0.238  -3.189   2.361  0.00  0.00    +0.000 A 
ATOM     28  C   UNL     1       1.303  -2.436   2.818  0.00  0.00    +0.000 A 
ATOM     29  C   UNL     1       1.214  -1.057   2.842  0.00  0.00    +0.002 A 
ENDBRANCH  22  24
ENDBRANCH  20  22
ENDBRANCH  18  20
ENDBRANCH   3  18
TORSDOF 7
