REMARK  Name = ZINC22413865
REMARK  4 active torsions:
REMARK  status: ('A' for Active; 'I' for Inactive)
REMARK    1  A    between atoms: C_1  and  C_2
REMARK    2  A    between atoms: C_4  and  S_9
REMARK    3  A    between atoms: S_9  and  O_12
REMARK    4  A    between atoms: O_12  and  C_13
REMARK                            x       y       z     vdW  Elec       q    Type
REMARK                         _______ _______ _______ _____ _____    ______ ____
ROOT
ATOM      1  O   UNL     1       1.157   3.446   0.009  0.00  0.00    -0.342 OA
ENDROOT
BRANCH   1   2
ATOM      2  C   UNL     1       1.175   2.086   0.002  0.00  0.00    +0.157 A 
ATOM      3  C   UNL     1       2.386   1.409  -0.014  0.00  0.00    +0.050 A 
ATOM      4  C   UNL     1       2.406   0.029  -0.021  0.00  0.00    +0.027 A 
ATOM      5  C   UNL     1       1.213  -0.682  -0.013  0.00  0.00    +0.037 A 
ATOM      6  C   UNL     1       0.002  -0.004   0.002  0.00  0.00    -0.022 A 
ATOM      7  C   UNL     1      -0.017   1.377   0.010  0.00  0.00    +0.054 A 
ATOM      8  C   UNL     1      -1.290  -0.778   0.010  0.00  0.00    +0.046 C 
ATOM      9  C   UNL     1      -1.123  -2.061  -0.805  0.00  0.00    +0.101 C 
ATOM     10  C   UNL     1       0.134  -2.775  -0.384  0.00  0.00    +0.218 C 
ATOM     11  O   UNL     1       0.160  -3.987  -0.373  0.00  0.00    -0.275 OA
ATOM     12  N   UNL     1       1.230  -2.083  -0.022  0.00  0.00    -0.285 N 
ATOM     13  H   UNL     1       2.142  -2.624   0.270  0.00  0.00    +0.155 HD
ENDBRANCH   1   2
BRANCH   1  14
ATOM     14  S   UNL     1       1.162   4.057   1.403  0.00  0.00    +0.151 S 
ATOM     15  O   UNL     1       0.931   5.449   1.237  0.00  0.00    -0.131 OA
ATOM     16  O   UNL     1       0.326   3.238   2.209  0.00  0.00    -0.131 OA
BRANCH  14  20
ATOM     17  C   UNL     1       6.026   5.844   2.084  0.00  0.00    +0.045 C 
ATOM     18  C   UNL     1       5.010   4.756   2.322  0.00  0.00    -0.035 A 
ATOM     19  C   UNL     1       3.728   4.887   1.822  0.00  0.00    +0.035 A 
ATOM     20  C   UNL     1       2.796   3.890   2.040  0.00  0.00    +0.128 A 
ATOM     21  C   UNL     1       3.144   2.763   2.762  0.00  0.00    +0.031 A 
ATOM     22  C   UNL     1       4.428   2.630   3.257  0.00  0.00    +0.017 A 
ATOM     23  C   UNL     1       5.361   3.627   3.040  0.00  0.00    +0.021 A 
ATOM     24 BR   UNL     1       7.115   3.448   3.723  0.00  0.00    -0.050 Br
ENDBRANCH  14  20
ENDBRANCH   1  14
TORSDOF 3
