REMARK  Name = ZINC01726325
REMARK  2 active torsions:
REMARK  status: ('A' for Active; 'I' for Inactive)
REMARK    1  A    between atoms: C_4  and  C_7
REMARK    2  A    between atoms: C_7  and  N_8
REMARK                            x       y       z     vdW  Elec       q    Type
REMARK                         _______ _______ _______ _____ _____    ______ ____
ROOT
ATOM      1  N   UNL     1       2.010   2.051  -2.191  0.00  0.00    -0.295 N 
ATOM      2  C   UNL     1       1.213   3.226  -1.806  0.00  0.00    +0.114 C 
ATOM      3  C   UNL     1       1.137   3.158  -0.268  0.00  0.00    +0.040 C 
ATOM      4  C   UNL     1      -0.101   3.815   0.268  0.00  0.00    +0.044 C 
ATOM      5  C   UNL     1      -1.335   2.973   0.163  0.00  0.00    -0.026 A 
ATOM      6  C   UNL     1      -2.579   3.580   0.193  0.00  0.00    +0.005 A 
ATOM      7  C   UNL     1      -3.729   2.821   0.096  0.00  0.00    +0.000 A 
ATOM      8  C   UNL     1      -3.643   1.446  -0.031  0.00  0.00    +0.002 A 
ATOM      9  C   UNL     1      -2.408   0.833  -0.061  0.00  0.00    +0.023 A 
ATOM     10  C   UNL     1      -1.247   1.595   0.017  0.00  0.00    +0.031 A 
ATOM     11  N   UNL     1      -0.011   0.966   0.007  0.00  0.00    -0.332 N 
ATOM     12  C   UNL     1       1.264   1.659  -0.001  0.00  0.00    +0.162 C 
ATOM     13  C   UNL     1       2.080   1.143  -1.177  0.00  0.00    +0.236 C 
ATOM     14  O   UNL     1       2.689   0.094  -1.197  0.00  0.00    -0.274 OA
ATOM     15  H   UNL     1       0.002  -0.004   0.002  0.00  0.00    +0.147 HD
ENDROOT
BRANCH   1  16
ATOM     16  C   UNL     1       2.652   1.877  -3.496  0.00  0.00    +0.143 C 
BRANCH  16  20
ATOM     17  C   UNL     1       6.599   3.506  -3.370  0.00  0.00    +0.000 A 
ATOM     18  C   UNL     1       6.387   2.180  -3.040  0.00  0.00    +0.000 A 
ATOM     19  C   UNL     1       5.110   1.653  -3.080  0.00  0.00    +0.005 A 
ATOM     20  C   UNL     1       4.044   2.452  -3.452  0.00  0.00    -0.030 A 
ATOM     21  C   UNL     1       4.257   3.776  -3.788  0.00  0.00    +0.005 A 
ATOM     22  C   UNL     1       5.534   4.304  -3.741  0.00  0.00    +0.000 A 
ENDBRANCH  16  20
ENDBRANCH   1  16
TORSDOF 2
