REMARK  Name = ZINC04886258
REMARK  7 active torsions:
REMARK  status: ('A' for Active; 'I' for Inactive)
REMARK    1  A    between atoms: C_1  and  C_2
REMARK    2  A    between atoms: C_9  and  C_11
REMARK    3  A    between atoms: C_11  and  O_13
REMARK    4  A    between atoms: O_13  and  C_14
REMARK    5  A    between atoms: C_14  and  C_15
REMARK    6  A    between atoms: N_17  and  C_18
REMARK    7  A    between atoms: C_20  and  N_25
REMARK                            x       y       z     vdW  Elec       q    Type
REMARK                         _______ _______ _______ _____ _____    ______ ____
ROOT
ATOM      1  C   UNL     1      -3.703   2.128  -0.184  0.00  0.00    +0.328 C 
ENDROOT
BRANCH   1   2
ATOM      2  C   UNL     1      -2.395   1.385  -0.081  0.00  0.00    +0.255 C 
ATOM      3  O   UNL     1      -2.384   0.173  -0.088  0.00  0.00    -0.272 OA
ATOM      4  N   UNL     1      -1.238   2.069   0.019  0.00  0.00    -0.280 N 
ATOM      5  H   UNL     1      -1.251   3.035   0.105  0.00  0.00    +0.155 HD
BRANCH   4   6
ATOM      6  C   UNL     1      -0.016   1.385  -0.002  0.00  0.00    +0.071 A 
ATOM      7  C   UNL     1       0.075   0.144  -0.616  0.00  0.00    +0.059 A 
ATOM      8  C   UNL     1       1.283  -0.526  -0.640  0.00  0.00    +0.128 A 
ATOM      9  C   UNL     1       2.401   0.037  -0.053  0.00  0.00    +0.035 A 
ATOM     10  C   UNL     1       2.315   1.273   0.561  0.00  0.00    +0.042 A 
ATOM     11  C   UNL     1       1.109   1.950   0.589  0.00  0.00    +0.145 A 
ATOM     12  F   UNL     1       1.024   3.158   1.188  0.00  0.00    -0.204 F 
BRANCH   8  13
ATOM     13  N   UNL     1       1.381  -1.850  -1.296  0.00  0.00    +0.056 N 
ATOM     14  O   UNL     1       0.397  -2.347  -1.815  0.00  0.00    -0.126 OA
ATOM     15  O   UNL     1       2.445  -2.442  -1.318  0.00  0.00    -0.126 OA
ENDBRANCH   8  13
ENDBRANCH   4   6
ENDBRANCH   1   2
BRANCH   1  16
ATOM     16  O   UNL     1      -4.794   1.175  -0.280  0.00  0.00    -0.451 OA
BRANCH  16  17
ATOM     17  C   UNL     1      -6.041   1.680  -0.380  0.00  0.00    +0.346 C 
ATOM     18  O   UNL     1      -6.210   2.885  -0.387  0.00  0.00    -0.244 OA
BRANCH  17  26
ATOM     19  C   UNL     1     -13.163  -0.878  -0.682  0.00  0.00    +0.008 C 
ATOM     20  C   UNL     1     -11.666  -1.025  -0.398  0.00  0.00    -0.009 C 
ATOM     21  C   UNL     1     -11.110  -2.203  -1.203  0.00  0.00    +0.009 C 
ATOM     22  C   UNL     1      -9.688  -2.509  -0.710  0.00  0.00    +0.043 C 
ATOM     23  C   UNL     1      -8.925  -1.222  -0.637  0.00  0.00    -0.006 A 
ATOM     24  C   UNL     1      -9.440   0.043  -0.671  0.00  0.00    -0.036 A 
ATOM     25  C   UNL     1      -8.534   1.087  -0.590  0.00  0.00    +0.026 A 
ATOM     26  C   UNL     1      -7.190   0.779  -0.481  0.00  0.00    +0.097 A 
ATOM     27  S   UNL     1      -7.222  -1.006  -0.503  0.00  0.00    -0.086 S 
ATOM     28  C   UNL     1     -10.946   0.264  -0.793  0.00  0.00    +0.039 C 
ENDBRANCH  17  26
ENDBRANCH  16  17
ENDBRANCH   1  16
TORSDOF 6
