REMARK  Name = ZINC57504579
REMARK  7 active torsions:
REMARK  status: ('A' for Active; 'I' for Inactive)
REMARK    1  A    between atoms: C_1  and  C_2
REMARK    2  A    between atoms: C_2  and  C_3
REMARK    3  A    between atoms: C_6  and  S_9
REMARK    4  A    between atoms: S_9  and  N_12
REMARK    5  A    between atoms: N_12  and  C_13
REMARK    6  A    between atoms: C_17  and  C_19
REMARK    7  A    between atoms: C_19  and  C_26
REMARK                            x       y       z     vdW  Elec       q    Type
REMARK                         _______ _______ _______ _____ _____    ______ ____
ROOT
ATOM      1  C   UNL     1      -6.573   0.061  -1.192  0.00  0.00    +0.048 A 
ATOM      2  C   UNL     1      -5.387   0.271  -1.884  0.00  0.00    +0.024 A 
ATOM      3  C   UNL     1      -5.385   1.041  -3.030  0.00  0.00    +0.002 A 
ATOM      4  C   UNL     1      -6.562   1.605  -3.488  0.00  0.00    +0.006 A 
ATOM      5  C   UNL     1      -7.744   1.399  -2.801  0.00  0.00    -0.014 A 
ATOM      6  C   UNL     1      -7.754   0.624  -1.657  0.00  0.00    +0.030 A 
ENDROOT
BRANCH   5   7
ATOM      7  C   UNL     1      -9.024   2.016  -3.303  0.00  0.00    +0.135 C 
ATOM      8  C   UNL     1      -9.996   0.941  -3.748  0.00  0.00    +0.248 C 
ATOM      9  O   UNL     1     -10.482   0.065  -3.065  0.00  0.00    -0.273 OA
ATOM     10  N   UNL     1     -10.208   1.162  -5.060  0.00  0.00    -0.238 N 
ATOM     11  C   UNL     1      -9.513   2.217  -5.501  0.00  0.00    +0.307 C 
ATOM     12  O   UNL     1      -9.542   2.612  -6.650  0.00  0.00    -0.252 OA
ATOM     13  N   UNL     1      -8.779   2.791  -4.531  0.00  0.00    -0.282 N 
ATOM     14  C   UNL     1      -9.653   2.901  -2.224  0.00  0.00    +0.047 C 
ATOM     15  H   UNL     1     -10.793   0.623  -5.616  0.00  0.00    +0.159 HD
ATOM     16  H   UNL     1      -8.201   3.564  -4.623  0.00  0.00    +0.152 HD
ENDBRANCH   5   7
BRANCH   1  17
ATOM     17  N   UNL     1      -6.579  -0.719  -0.033  0.00  0.00    -0.216 N 
ATOM     18  H   UNL     1      -6.653  -0.295   0.837  0.00  0.00    +0.174 HD
BRANCH  17  19
ATOM     19  S   UNL     1      -6.458  -2.366  -0.143  0.00  0.00    +0.072 S 
ATOM     20  O   UNL     1      -6.571  -2.871   1.181  0.00  0.00    -0.150 OA
ATOM     21  O   UNL     1      -5.333  -2.637  -0.968  0.00  0.00    -0.150 OA
BRANCH  19  25
ATOM     22  C   UNL     1     -10.099  -3.829  -2.400  0.00  0.00    -0.048 A 
ATOM     23  C   UNL     1      -8.914  -3.600  -3.074  0.00  0.00    +0.005 A 
ATOM     24  C   UNL     1      -7.802  -3.153  -2.385  0.00  0.00    +0.029 A 
ATOM     25  C   UNL     1      -7.875  -2.935  -1.022  0.00  0.00    +0.109 A 
ATOM     26  C   UNL     1      -9.060  -3.164  -0.348  0.00  0.00    +0.029 A 
ATOM     27  C   UNL     1     -10.174  -3.607  -1.038  0.00  0.00    +0.005 A 
BRANCH  22  29
ATOM     28  C   UNL     1     -12.117  -3.116  -3.651  0.00  0.00    +0.009 C 
ATOM     29  C   UNL     1     -11.311  -4.317  -3.152  0.00  0.00    +0.032 C 
ENDBRANCH  22  29
ENDBRANCH  19  25
ENDBRANCH  17  19
ENDBRANCH   1  17
TORSDOF 5
