REMARK  Name = ZINC36027062
REMARK  9 active torsions:
REMARK  status: ('A' for Active; 'I' for Inactive)
REMARK    1  A    between atoms: C_1  and  C_2
REMARK    2  A    between atoms: C_2  and  C_3
REMARK    3  A    between atoms: C_2  and  N_4
REMARK    4  A    between atoms: N_4  and  C_5
REMARK    5  A    between atoms: C_5  and  N_7
REMARK    6  A    between atoms: C_14  and  C_26
REMARK    7  A    between atoms: N_18  and  C_19
REMARK    8  A    between atoms: C_19  and  C_20
REMARK    9  A    between atoms: C_26  and  C_27
REMARK                            x       y       z     vdW  Elec       q    Type
REMARK                         _______ _______ _______ _____ _____    ______ ____
ROOT
ATOM      1  N   UNL     1       2.566  -0.560  -2.358  0.00  0.00    -0.313 N 
ATOM      2  C   UNL     1       1.829  -1.092  -3.511  0.00  0.00    +0.107 C 
ATOM      3  C   UNL     1       2.054  -2.606  -3.584  0.00  0.00    +0.025 C 
ATOM      4  C   UNL     1       3.554  -2.895  -3.600  0.00  0.00    +0.006 C 
ATOM      5  C   UNL     1       4.211  -2.362  -2.327  0.00  0.00    +0.025 C 
ATOM      6  C   UNL     1       4.004  -0.842  -2.247  0.00  0.00    +0.107 C 
ATOM      7  N   UNL     1       3.781  -4.351  -3.707  0.00  0.00    +0.401 N 
ATOM      8  C   UNL     1       3.902  -4.566  -5.169  0.00  0.00    +0.023 C 
ATOM      9  C   UNL     1       4.386  -3.240  -5.715  0.00  0.00    +0.201 C 
ATOM     10  O   UNL     1       4.880  -3.062  -6.809  0.00  0.00    -0.277 OA
ATOM     11  N   UNL     1       4.175  -2.290  -4.782  0.00  0.00    -0.311 N 
ATOM     12  H   UNL     1       4.634  -4.615  -3.237  0.00  0.00    -0.082 HD
ATOM     13  H   UNL     1       2.995  -4.863  -3.335  0.00  0.00    -0.082 HD
ENDROOT
BRANCH   1  14
ATOM     14  C   UNL     1       1.937   0.179  -1.422  0.00  0.00    +0.133 C 
ATOM     15  S   UNL     1       2.836   0.906  -0.159  0.00  0.00    -0.019 S 
BRANCH  14  16
ATOM     16  N   UNL     1       0.601   0.345  -1.481  0.00  0.00    -0.324 N 
ATOM     17  H   UNL     1       0.102  -0.005  -2.235  0.00  0.00    +0.148 HD
BRANCH  16  19
ATOM     18  C   UNL     1      -0.045   2.560  -0.669  0.00  0.00    +0.027 C 
ATOM     19  C   UNL     1      -0.097   1.054  -0.405  0.00  0.00    +0.066 C 
ATOM     20  C   UNL     1      -1.555   0.594  -0.354  0.00  0.00    +0.027 C 
ENDBRANCH  16  19
ENDBRANCH  14  16
ENDBRANCH   1  14
BRANCH  11  21
ATOM     21  C   UNL     1       4.513  -0.872  -4.927  0.00  0.00    +0.137 C 
BRANCH  21  22
ATOM     22  C   UNL     1       5.980  -0.656  -4.550  0.00  0.00    +0.136 C 
ATOM     23  C   UNL     1       6.312   0.857  -4.526  0.00  0.00    +0.035 C 
ATOM     24  C   UNL     1       7.521   0.878  -3.552  0.00  0.00    +0.031 C 
ATOM     25  C   UNL     1       7.163  -0.251  -2.562  0.00  0.00    +0.160 C 
ATOM     26  O   UNL     1       6.224  -1.117  -3.212  0.00  0.00    -0.375 OA
ENDBRANCH  21  22
ENDBRANCH  11  21
BRANCH   8  27
ATOM     27  C   UNL     1       4.920  -5.670  -5.464  0.00  0.00    +0.028 C 
BRANCH  27  28
ATOM     28  C   UNL     1       4.411  -6.980  -4.920  0.00  0.00    -0.048 A 
ATOM     29  C   UNL     1       4.716  -7.356  -3.625  0.00  0.00    +0.003 A 
ATOM     30  C   UNL     1       4.250  -8.558  -3.126  0.00  0.00    +0.000 A 
ATOM     31  C   UNL     1       3.478  -9.383  -3.922  0.00  0.00    +0.000 A 
ATOM     32  C   UNL     1       3.172  -9.007  -5.216  0.00  0.00    +0.000 A 
ATOM     33  C   UNL     1       3.635  -7.803  -5.714  0.00  0.00    +0.003 A 
ENDBRANCH  27  28
ENDBRANCH   8  27
TORSDOF 7
