REMARK  Name = ZINC60376191
REMARK  4 active torsions:
REMARK  status: ('A' for Active; 'I' for Inactive)
REMARK    1  A    between atoms: C_1  and  N_2
REMARK    2  A    between atoms: C_3  and  C_5
REMARK    3  A    between atoms: C_8  and  C_13
REMARK    4  A    between atoms: C_14  and  C_15
REMARK                            x       y       z     vdW  Elec       q    Type
REMARK                         _______ _______ _______ _____ _____    ______ ____
ROOT
ATOM      1  C   UNL     1      -1.139  -2.157  -0.110  0.00  0.00    +0.119 A 
ATOM      2  C   UNL     1      -2.329  -2.878  -0.214  0.00  0.00    +0.131 A 
ATOM      3  N   UNL     1      -2.293  -4.197  -0.320  0.00  0.00    -0.237 NA
ATOM      4  C   UNL     1      -1.147  -4.861  -0.331  0.00  0.00    +0.134 A 
ATOM      5  N   UNL     1       0.054  -4.217  -0.232  0.00  0.00    -0.307 N 
ATOM      6  H   UNL     1       0.880  -4.726  -0.242  0.00  0.00    +0.170 HD
ATOM      7  C   UNL     1       0.091  -2.871  -0.127  0.00  0.00    +0.264 A 
ATOM      8  O   UNL     1       1.154  -2.282  -0.043  0.00  0.00    -0.267 OA
ENDROOT
BRANCH   1  11
ATOM      9  C   UNL     1      -0.020   1.462  -0.002  0.00  0.00    +0.128 C 
ATOM     10  N   UNL     1       0.001  -0.003  -0.007  0.00  0.00    -0.314 N 
ATOM     11  C   UNL     1      -1.156  -0.694   0.009  0.00  0.00    +0.251 C 
ATOM     12  O   UNL     1      -2.215  -0.105   0.123  0.00  0.00    -0.270 OA
ATOM     13  H   UNL     1       0.848  -0.476  -0.023  0.00  0.00    +0.149 HD
ENDBRANCH   1  11
BRANCH   4  14
ATOM     14  C   UNL     1      -1.167  -6.273  -0.446  0.00  0.00    +0.047 C 
ATOM     15  C   UNL     1      -2.346  -6.927  -0.544  0.00  0.00    +0.013 C 
BRANCH  15  16
ATOM     16  C   UNL     1      -2.366  -8.392  -0.664  0.00  0.00    -0.005 A 
ATOM     17  C   UNL     1      -1.168  -9.114  -0.671  0.00  0.00    +0.009 A 
ATOM     18  C   UNL     1      -1.195 -10.488  -0.783  0.00  0.00    +0.002 A 
ATOM     19  C   UNL     1      -2.403 -11.155  -0.889  0.00  0.00    +0.021 A 
ATOM     20  C   UNL     1      -3.595 -10.450  -0.883  0.00  0.00    +0.060 A 
ATOM     21  C   UNL     1      -3.585  -9.073  -0.765  0.00  0.00    +0.066 A 
ATOM     22 CL   UNL     1      -5.080  -8.190  -0.751  0.00  0.00    -0.081 Cl
ATOM     23 CL   UNL     1      -5.104 -11.297  -1.017  0.00  0.00    -0.082 Cl
ENDBRANCH  15  16
ENDBRANCH   4  14
TORSDOF 3
