REMARK  Name = ZINC51364632
REMARK  6 active torsions:
REMARK  status: ('A' for Active; 'I' for Inactive)
REMARK    1  A    between atoms: C_1  and  C_2
REMARK    2  A    between atoms: C_5  and  N_9
REMARK    3  A    between atoms: C_6  and  C_8
REMARK    4  A    between atoms: C_13  and  N_17
REMARK    5  A    between atoms: C_20  and  C_23
REMARK    6  A    between atoms: C_20  and  C_29
REMARK                            x       y       z     vdW  Elec       q    Type
REMARK                         _______ _______ _______ _____ _____    ______ ____
ROOT
ATOM      1  N   UNL     1       2.025  -6.632   1.228  0.00  0.00    +0.388 N 
ATOM      2  C   UNL     1       3.460  -6.893   1.396  0.00  0.00    -0.077 C 
ATOM      3  C   UNL     1       3.688  -7.715   2.665  0.00  0.00    -0.002 C 
ATOM      4  C   UNL     1       2.937  -9.045   2.547  0.00  0.00    +0.046 C 
ATOM      5  C   UNL     1       1.453  -8.761   2.299  0.00  0.00    -0.002 C 
ATOM      6  C   UNL     1       1.307  -7.899   1.043  0.00  0.00    -0.077 C 
ATOM      7  H   UNL     1       1.672  -6.164   2.050  0.00  0.00    -0.081 HD
ENDROOT
BRANCH   1  12
ATOM      8  N   UNL     1       1.461  -3.483   0.212  0.00  0.00    -0.212 N 
ATOM      9  C   UNL     1       0.236  -3.973  -0.016  0.00  0.00    +0.225 C 
ATOM     10  O   UNL     1      -0.778  -3.314  -0.106  0.00  0.00    -0.275 OA
ATOM     11  C   UNL     1       0.318  -5.478  -0.144  0.00  0.00    +0.090 C 
ATOM     12  C   UNL     1       1.818  -5.777   0.052  0.00  0.00    +0.029 C 
ATOM     13  C   UNL     1       2.427  -4.409   0.265  0.00  0.00    +0.213 C 
ATOM     14  O   UNL     1       3.603  -4.185   0.455  0.00  0.00    -0.277 OA
BRANCH   8  19
ATOM     15  C   UNL     1       2.476   2.061   0.880  0.00  0.00    +0.044 C 
ATOM     16  C   UNL     1       2.206   0.589   0.703  0.00  0.00    -0.050 A 
ATOM     17  C   UNL     1       2.254   0.026  -0.559  0.00  0.00    +0.005 A 
ATOM     18  C   UNL     1       2.007  -1.323  -0.725  0.00  0.00    +0.024 A 
ATOM     19  C   UNL     1       1.712  -2.114   0.377  0.00  0.00    +0.047 A 
ATOM     20  C   UNL     1       1.665  -1.546   1.643  0.00  0.00    -0.028 A 
ATOM     21  C   UNL     1       1.918  -0.197   1.803  0.00  0.00    +0.008 A 
ATOM     22  C   UNL     1       1.345  -2.401   2.842  0.00  0.00    +0.046 C 
ENDBRANCH   8  19
ENDBRANCH   1  12
BRANCH   4  23
ATOM     23  C   UNL     1       3.096  -9.839   3.846  0.00  0.00    +0.004 C 
ATOM     24  C   UNL     1       4.580 -10.113   4.097  0.00  0.00    +0.004 C 
ATOM     25  C   UNL     1       4.739 -10.907   5.396  0.00  0.00    +0.000 C 
ATOM     26  C   UNL     1       3.988 -12.235   5.276  0.00  0.00    +0.000 C 
ATOM     27  C   UNL     1       2.504 -11.961   5.024  0.00  0.00    +0.000 C 
ATOM     28  C   UNL     1       2.345 -11.166   3.726  0.00  0.00    +0.004 C 
ENDBRANCH   4  23
BRANCH   4  29
ATOM     29  C   UNL     1       3.498  -9.840   1.397  0.00  0.00    +0.217 C 
ATOM     30  O   UNL     1       4.516  -9.476   0.847  0.00  0.00    -0.275 OA
ATOM     31  N   UNL     1       2.868 -10.956   0.978  0.00  0.00    -0.329 N 
ATOM     32  H   UNL     1       2.014 -11.205   1.366  0.00  0.00    +0.145 HD
ATOM     33  H   UNL     1       3.267 -11.509   0.289  0.00  0.00    +0.145 HD
ENDBRANCH   4  29
TORSDOF 4
