REMARK  Name = ZINC00369635
REMARK  1 active torsions:
REMARK  status: ('A' for Active; 'I' for Inactive)
REMARK    1  A    between atoms: C_10  and  C_13
REMARK                            x       y       z     vdW  Elec       q    Type
REMARK                         _______ _______ _______ _____ _____    ______ ____
ROOT
ATOM      1  C   UNL     1       1.802   5.613  -0.719  0.00  0.00    +0.001 A 
ATOM      2  C   UNL     1       2.687   4.952   0.117  0.00  0.00    +0.004 A 
ATOM      3  C   UNL     1       2.543   3.600   0.367  0.00  0.00    +0.046 A 
ATOM      4  C   UNL     1       1.506   2.899  -0.222  0.00  0.00    +0.135 A 
ATOM      5  C   UNL     1       0.608   3.567  -1.069  0.00  0.00    +0.078 A 
ATOM      6  C   UNL     1       0.762   4.928  -1.315  0.00  0.00    +0.017 A 
ATOM      7  C   UNL     1      -0.486   2.785  -1.679  0.00  0.00    +0.250 C 
ATOM      8  O   UNL     1      -1.127   3.224  -2.615  0.00  0.00    -0.270 OA
ATOM      9  N   UNL     1      -0.751   1.563  -1.162  0.00  0.00    -0.273 N 
ATOM     10  C   UNL     1      -0.013   1.086   0.008  0.00  0.00    +0.314 C 
ATOM     11  O   UNL     1       1.329   1.573  -0.002  0.00  0.00    -0.466 OA
ATOM     12  H   UNL     1      -1.431   1.003  -1.567  0.00  0.00    +0.153 HD
ENDROOT
BRANCH  10  13
ATOM     13  C   UNL     1      -0.715   1.572   1.278  0.00  0.00    +0.244 C 
ATOM     14 CL   UNL     1      -0.744   3.375   1.295  0.00  0.00    -0.078 Cl
ATOM     15 CL   UNL     1      -2.404   0.944   1.308  0.00  0.00    -0.078 Cl
ATOM     16 CL   UNL     1       0.176   0.971   2.725  0.00  0.00    -0.078 Cl
ENDBRANCH  10  13
TORSDOF 1
