REMARK  Name = ZINC14016715
REMARK  5 active torsions:
REMARK  status: ('A' for Active; 'I' for Inactive)
REMARK    1  A    between atoms: C_1  and  C_2
REMARK    2  A    between atoms: C_15  and  C_17
REMARK    3  A    between atoms: C_17  and  N_18
REMARK    4  A    between atoms: N_18  and  C_19
REMARK    5  A    between atoms: C_20  and  C_22
REMARK                            x       y       z     vdW  Elec       q    Type
REMARK                         _______ _______ _______ _____ _____    ______ ____
ROOT
ATOM      1  C   UNL     1       2.440   2.031   2.223  0.00  0.00    +0.029 C 
ATOM      2  C   UNL     1       2.116   1.616   0.786  0.00  0.00    +0.087 C 
ATOM      3  C   UNL     1       3.258   2.046  -0.143  0.00  0.00    +0.118 C 
ATOM      4  C   UNL     1       2.802   2.019  -1.577  0.00  0.00    +0.219 C 
ATOM      5  O   UNL     1       3.159   1.119  -2.307  0.00  0.00    -0.275 OA
ATOM      6  N   UNL     1       1.997   2.992  -2.057  0.00  0.00    -0.284 N 
ATOM      7  C   UNL     1       1.497   3.985  -1.206  0.00  0.00    +0.055 A 
ATOM      8  C   UNL     1       1.561   5.322  -1.560  0.00  0.00    +0.025 A 
ATOM      9  C   UNL     1       1.012   6.281  -0.728  0.00  0.00    +0.002 A 
ATOM     10  C   UNL     1       0.400   5.909   0.455  0.00  0.00    +0.002 A 
ATOM     11  C   UNL     1       0.343   4.577   0.821  0.00  0.00    +0.025 A 
ATOM     12  C   UNL     1       0.898   3.611  -0.002  0.00  0.00    +0.058 A 
ATOM     13  N   UNL     1       0.871   2.258   0.363  0.00  0.00    -0.265 N 
ATOM     14  C   UNL     1      -0.283   1.562   0.331  0.00  0.00    +0.237 C 
ATOM     15  O   UNL     1      -0.295   0.392   0.649  0.00  0.00    -0.274 OA
ATOM     16  H   UNL     1       1.729   3.008  -3.124  0.00  0.00    +0.155 HD
ENDROOT
BRANCH  14  17
ATOM     17  C   UNL     1      -1.558   2.236  -0.107  0.00  0.00    +0.203 C 
BRANCH  17  18
ATOM     18  N   UNL     1      -2.661   1.273  -0.062  0.00  0.00    -0.295 N 
ATOM     19  C   UNL     1      -3.450   1.120   1.163  0.00  0.00    +0.132 C 
ATOM     20  C   UNL     1      -2.948   0.527  -1.147  0.00  0.00    +0.219 C 
ATOM     21  O   UNL     1      -2.242   0.590  -2.131  0.00  0.00    -0.275 OA
BRANCH  20  22
ATOM     22  C   UNL     1      -4.147  -0.386  -1.137  0.00  0.00    +0.075 C 
ATOM     23  C   UNL     1      -3.852  -1.606  -0.262  0.00  0.00    +0.013 C 
ATOM     24  C   UNL     1      -5.070  -2.533  -0.252  0.00  0.00    +0.001 C 
ATOM     25  C   UNL     1      -5.374  -2.991  -1.680  0.00  0.00    +0.000 C 
ATOM     26  C   UNL     1      -5.669  -1.771  -2.555  0.00  0.00    +0.001 C 
ATOM     27  C   UNL     1      -4.451  -0.844  -2.565  0.00  0.00    +0.013 C 
ENDBRANCH  20  22
ENDBRANCH  17  18
ENDBRANCH  14  17
TORSDOF 3
