REMARK  Name = ZINC08021741
REMARK  6 active torsions:
REMARK  status: ('A' for Active; 'I' for Inactive)
REMARK    1  A    between atoms: C_1  and  C_2
REMARK    2  A    between atoms: C_5  and  N_9
REMARK    3  A    between atoms: C_7  and  C_8
REMARK    4  A    between atoms: C_10  and  C_24
REMARK    5  A    between atoms: C_11  and  C_14
REMARK    6  A    between atoms: N_16  and  C_17
REMARK                            x       y       z     vdW  Elec       q    Type
REMARK                         _______ _______ _______ _____ _____    ______ ____
ROOT
ATOM      1  N   UNL     1      -3.856  -4.455  -0.391  0.00  0.00    -0.216 N 
ATOM      2  C   UNL     1      -2.548  -4.144  -0.263  0.00  0.00    +0.074 A 
ATOM      3  C   UNL     1      -2.473  -2.783  -0.162  0.00  0.00    +0.170 A 
ATOM      4  N   UNL     1      -3.718  -2.282  -0.238  0.00  0.00    -0.124 NA
ATOM      5  N   UNL     1      -4.563  -3.244  -0.374  0.00  0.00    -0.060 NA
ATOM      6  C   UNL     1      -1.393  -5.112  -0.234  0.00  0.00    +0.068 C 
ENDROOT
BRANCH   1  11
ATOM      7  C   UNL     1      -6.064  -9.656  -0.924  0.00  0.00    +0.044 C 
ATOM      8  C   UNL     1      -5.478  -8.275  -0.783  0.00  0.00    -0.047 A 
ATOM      9  C   UNL     1      -4.456  -8.049   0.121  0.00  0.00    +0.006 A 
ATOM     10  C   UNL     1      -3.917  -6.784   0.253  0.00  0.00    +0.028 A 
ATOM     11  C   UNL     1      -4.402  -5.740  -0.523  0.00  0.00    +0.068 A 
ATOM     12  C   UNL     1      -5.431  -5.969  -1.425  0.00  0.00    +0.031 A 
ATOM     13  C   UNL     1      -5.963  -7.237  -1.557  0.00  0.00    -0.046 A 
ATOM     14  C   UNL     1      -7.076  -7.489  -2.540  0.00  0.00    +0.044 C 
ENDBRANCH   1  11
BRANCH   3  15
ATOM     15  C   UNL     1      -1.236  -1.997  -0.003  0.00  0.00    +0.270 C 
ATOM     16  O   UNL     1      -0.160  -2.561   0.053  0.00  0.00    -0.268 OA
ATOM     17  N   UNL     1      -1.297  -0.653   0.080  0.00  0.00    -0.278 N 
ATOM     18  H   UNL     1      -2.158  -0.208   0.104  0.00  0.00    +0.155 HD
BRANCH  17  19
ATOM     19  C   UNL     1      -0.118   0.099   0.130  0.00  0.00    +0.069 A 
ATOM     20  C   UNL     1       1.004  -0.406   0.773  0.00  0.00    +0.026 A 
ATOM     21  C   UNL     1       2.166   0.338   0.821  0.00  0.00    +0.002 A 
ATOM     22  C   UNL     1       2.215   1.587   0.228  0.00  0.00    +0.003 A 
ATOM     23  C   UNL     1       1.101   2.095  -0.413  0.00  0.00    +0.040 A 
ATOM     24  C   UNL     1      -0.067   1.355  -0.465  0.00  0.00    +0.144 A 
ATOM     25  F   UNL     1      -1.154   1.849  -1.097  0.00  0.00    -0.204 F 
ENDBRANCH  17  19
ENDBRANCH   3  15
TORSDOF 3
