REMARK  Name = ZINC52164931
REMARK  6 active torsions:
REMARK  status: ('A' for Active; 'I' for Inactive)
REMARK    1  A    between atoms: C_3  and  C_6
REMARK    2  A    between atoms: C_9  and  C_12
REMARK    3  A    between atoms: C_17  and  C_19
REMARK    4  A    between atoms: C_19  and  N_20
REMARK    5  A    between atoms: N_23  and  C_26
REMARK    6  A    between atoms: C_26  and  C_27
REMARK                            x       y       z     vdW  Elec       q    Type
REMARK                         _______ _______ _______ _____ _____    ______ ____
ROOT
ATOM      1  C   UNL     1       3.563   0.617  -0.029  0.00  0.00    +0.104 C 
ATOM      2  N   UNL     1       4.334   1.653  -0.026  0.00  0.00    -0.178 NA
ATOM      3  N   UNL     1       5.694   1.350  -0.043  0.00  0.00    -0.183 N 
ATOM      4  C   UNL     1       5.855  -0.113  -0.059  0.00  0.00    +0.144 C 
ATOM      5  C   UNL     1       4.406  -0.638  -0.044  0.00  0.00    +0.090 C 
ATOM      6  C   UNL     1       6.698   2.249  -0.043  0.00  0.00    +0.249 C 
ATOM      7  O   UNL     1       7.850   1.871  -0.059  0.00  0.00    -0.272 OA
ENDROOT
BRANCH   1  10
ATOM      8  C   UNL     1      -0.016   1.345   0.009  0.00  0.00    +0.042 A 
ATOM      9  C   UNL     1       1.323   1.776  -0.001  0.00  0.00    +0.051 A 
ATOM     10  C   UNL     1       2.098   0.653  -0.015  0.00  0.00    +0.150 A 
ATOM     11  O   UNL     1       1.279  -0.418  -0.012  0.00  0.00    -0.462 OA
ATOM     12  C   UNL     1       0.002  -0.004   0.002  0.00  0.00    +0.196 A 
ENDBRANCH   1  10
BRANCH   4  13
ATOM     13  C   UNL     1       6.574  -0.553  -1.308  0.00  0.00    +0.013 A 
ATOM     14  C   UNL     1       7.501  -1.530  -1.460  0.00  0.00    +0.013 A 
ATOM     15  C   UNL     1       8.031  -1.762  -2.715  0.00  0.00    +0.008 A 
ATOM     16  C   UNL     1       7.609  -1.005  -3.757  0.00  0.00    +0.045 A 
ATOM     17  S   UNL     1       6.420   0.072  -2.973  0.00  0.00    -0.100 S 
ENDBRANCH   4  13
BRANCH   6  18
ATOM     18  C   UNL     1       6.388   3.724  -0.025  0.00  0.00    +0.182 C 
BRANCH  18  19
ATOM     19  N   UNL     1       7.643   4.487  -0.030  0.00  0.00    -0.298 NA
ATOM     20  C   UNL     1       8.367   4.302  -1.296  0.00  0.00    +0.066 C 
ATOM     21  C   UNL     1       9.693   5.064  -1.237  0.00  0.00    -0.063 C 
ATOM     22  N   UNL     1       9.429   6.491  -1.008  0.00  0.00    +0.382 N 
ATOM     23  C   UNL     1       8.727   6.661   0.271  0.00  0.00    -0.063 C 
ATOM     24  C   UNL     1       7.394   5.913   0.225  0.00  0.00    +0.066 C 
ATOM     25  H   UNL     1       8.856   6.851  -1.757  0.00  0.00    -0.082 HD
BRANCH  22  26
ATOM     26  C   UNL     1      10.701   7.224  -0.970  0.00  0.00    -0.075 C 
BRANCH  26  27
ATOM     27  C   UNL     1      10.422   8.724  -0.857  0.00  0.00    -0.028 C 
ATOM     28  C   UNL     1      10.871   9.616  -2.016  0.00  0.00    +0.002 C 
ATOM     29  C   UNL     1      11.624   9.655  -0.684  0.00  0.00    +0.002 C 
ENDBRANCH  26  27
ENDBRANCH  22  26
ENDBRANCH  18  19
ENDBRANCH   6  18
TORSDOF 6
