REMARK  Name = ZINC01343093
REMARK  7 active torsions:
REMARK  status: ('A' for Active; 'I' for Inactive)
REMARK    1  A    between atoms: C_1  and  C_2
REMARK    2  A    between atoms: C_4  and  C_23
REMARK    3  A    between atoms: C_6  and  N_8
REMARK    4  A    between atoms: C_15  and  C_17
REMARK    5  A    between atoms: N_19  and  C_20
REMARK    6  A    between atoms: C_20  and  C_21
REMARK    7  A    between atoms: C_20  and  C_22
REMARK                            x       y       z     vdW  Elec       q    Type
REMARK                         _______ _______ _______ _____ _____    ______ ____
ROOT
ATOM      1  N   UNL     1      -2.783  -4.598  -3.361  0.00  0.00    -0.269 N 
ATOM      2  C   UNL     1      -2.444  -3.587  -2.537  0.00  0.00    +0.307 C 
ATOM      3  O   UNL     1      -1.585  -2.793  -2.869  0.00  0.00    -0.252 OA
ATOM      4  N   UNL     1      -3.056  -3.456  -1.343  0.00  0.00    -0.274 N 
ATOM      5  C   UNL     1      -4.107  -4.341  -0.815  0.00  0.00    +0.110 C 
ATOM      6  C   UNL     1      -4.486  -3.817   0.587  0.00  0.00    +0.021 C 
ATOM      7  C   UNL     1      -3.230  -3.008   1.006  0.00  0.00    +0.033 C 
ATOM      8  C   UNL     1      -2.784  -2.403  -0.348  0.00  0.00    +0.163 C 
ATOM      9  H   UNL     1      -3.412  -5.275  -3.065  0.00  0.00    +0.156 HD
ENDROOT
BRANCH   1  15
ATOM     10  C   UNL     1      -1.153  -7.316  -7.120  0.00  0.00    +0.044 C 
ATOM     11  C   UNL     1      -1.429  -5.975  -6.490  0.00  0.00    -0.048 A 
ATOM     12  C   UNL     1      -1.133  -4.814  -7.180  0.00  0.00    +0.006 A 
ATOM     13  C   UNL     1      -1.383  -3.581  -6.606  0.00  0.00    -0.048 A 
ATOM     14  C   UNL     1      -1.931  -3.506  -5.340  0.00  0.00    +0.026 A 
ATOM     15  C   UNL     1      -2.229  -4.670  -4.644  0.00  0.00    +0.035 A 
ATOM     16  C   UNL     1      -1.971  -5.907  -5.222  0.00  0.00    +0.026 A 
ATOM     17  C   UNL     1      -1.060  -2.318  -7.362  0.00  0.00    +0.044 C 
ENDBRANCH   1  15
BRANCH   8  18
ATOM     18  C   UNL     1      -1.313  -2.078  -0.318  0.00  0.00    +0.234 C 
ATOM     19  O   UNL     1      -0.511  -2.847  -0.805  0.00  0.00    -0.274 OA
ATOM     20  N   UNL     1      -0.887  -0.932   0.250  0.00  0.00    -0.311 N 
ATOM     21  H   UNL     1      -1.528  -0.316   0.639  0.00  0.00    +0.149 HD
BRANCH  20  22
ATOM     22  C   UNL     1       0.543  -0.616   0.279  0.00  0.00    +0.067 C 
ATOM     23  C   UNL     1       0.729   0.900   0.374  0.00  0.00    +0.027 C 
ATOM     24  C   UNL     1       1.189  -1.286   1.494  0.00  0.00    +0.027 C 
ENDBRANCH  20  22
ENDBRANCH   8  18
TORSDOF 3
