REMARK  Name = ZINC67471085
REMARK  5 active torsions:
REMARK  status: ('A' for Active; 'I' for Inactive)
REMARK    1  A    between atoms: C_1  and  C_2
REMARK    2  A    between atoms: C_2  and  C_3
REMARK    3  A    between atoms: C_2  and  C_4
REMARK    4  A    between atoms: C_2  and  N_11
REMARK    5  A    between atoms: C_17  and  N_20
REMARK                            x       y       z     vdW  Elec       q    Type
REMARK                         _______ _______ _______ _____ _____    ______ ____
ROOT
ATOM      1  N   UNL     1       0.556  -0.272  -1.327  0.00  0.00    -0.290 N 
ATOM      2  C   UNL     1       1.849   0.006  -1.587  0.00  0.00    +0.303 C 
ATOM      3  O   UNL     1       2.556   0.479  -0.719  0.00  0.00    -0.253 OA
ATOM      4  N   UNL     1       2.358  -0.241  -2.811  0.00  0.00    -0.287 N 
ATOM      5  C   UNL     1       1.618  -0.803  -3.950  0.00  0.00    +0.108 C 
ATOM      6  C   UNL     1       2.598  -0.880  -5.140  0.00  0.00    +0.005 C 
ATOM      7  C   UNL     1       3.680   0.168  -4.767  0.00  0.00    -0.049 C 
ATOM      8  C   UNL     1       3.749   0.013  -3.229  0.00  0.00    +0.094 C 
ATOM      9  H   UNL     1      -0.008  -0.650  -2.021  0.00  0.00    +0.151 HD
ENDROOT
BRANCH   7  10
ATOM     10  N   UNL     1       4.969  -0.162  -5.390  0.00  0.00    +0.383 N 
ATOM     11  C   UNL     1       4.853  -0.101  -6.870  0.00  0.00    -0.078 C 
ATOM     12  C   UNL     1       6.318   0.097  -7.332  0.00  0.00    -0.020 C 
ATOM     13  C   UNL     1       6.900   1.034  -6.249  0.00  0.00    -0.020 C 
ATOM     14  C   UNL     1       5.986   0.847  -5.023  0.00  0.00    -0.078 C 
ATOM     15  H   UNL     1       5.270  -1.081  -5.102  0.00  0.00    -0.081 HD
ENDBRANCH   7  10
BRANCH   1  17
ATOM     16  C   UNL     1       0.155   1.483   0.328  0.00  0.00    +0.036 C 
ATOM     17  C   UNL     1       0.002  -0.004   0.002  0.00  0.00    +0.056 C 
ATOM     18  C   UNL     1       0.753  -0.835   1.044  0.00  0.00    +0.036 C 
BRANCH  17  19
ATOM     19  C   UNL     1      -1.458  -0.375   0.022  0.00  0.00    -0.025 A 
ATOM     20  C   UNL     1      -2.073  -0.700   1.217  0.00  0.00    +0.007 A 
ATOM     21  C   UNL     1      -3.412  -1.040   1.236  0.00  0.00    +0.020 A 
ATOM     22  C   UNL     1      -4.138  -1.055   0.058  0.00  0.00    +0.041 A 
ATOM     23  C   UNL     1      -3.523  -0.729  -1.138  0.00  0.00    +0.020 A 
ATOM     24  C   UNL     1      -2.185  -0.384  -1.154  0.00  0.00    +0.007 A 
ATOM     25 CL   UNL     1      -5.821  -1.482   0.081  0.00  0.00    -0.084 Cl
ENDBRANCH  17  19
ENDBRANCH   1  17
TORSDOF 3
