REMARK  Name = ZINC39939392
REMARK  5 active torsions:
REMARK  status: ('A' for Active; 'I' for Inactive)
REMARK    1  A    between atoms: C_8  and  C_10
REMARK    2  A    between atoms: N_13  and  C_16
REMARK    3  A    between atoms: C_16  and  C_17
REMARK    4  A    between atoms: N_19  and  C_20
REMARK    5  A    between atoms: N_19  and  C_28
REMARK                            x       y       z     vdW  Elec       q    Type
REMARK                         _______ _______ _______ _____ _____    ______ ____
ROOT
ATOM      1  C   UNL     1       2.571  -4.460  -0.367  0.00  0.00    +0.041 C 
ATOM      2  C   UNL     1       3.484  -4.457   0.862  0.00  0.00    -0.009 C 
ATOM      3  C   UNL     1       4.192  -5.810   0.968  0.00  0.00    -0.078 C 
ATOM      4  N   UNL     1       4.994  -6.043  -0.239  0.00  0.00    +0.385 N 
ATOM      5  C   UNL     1       4.116  -6.118  -1.413  0.00  0.00    -0.078 C 
ATOM      6  C   UNL     1       3.406  -4.777  -1.611  0.00  0.00    -0.009 C 
ATOM      7  H   UNL     1       5.649  -5.284  -0.358  0.00  0.00    -0.081 HD
ENDROOT
BRANCH   1  15
ATOM      8  C   UNL     1      -1.351   0.268  -0.859  0.00  0.00    +0.002 A 
ATOM      9  C   UNL     1      -0.316   1.182  -1.005  0.00  0.00    +0.001 A 
ATOM     10  C   UNL     1       0.992   0.737  -0.985  0.00  0.00    +0.017 A 
ATOM     11  C   UNL     1       1.246  -0.603  -0.821  0.00  0.00    +0.039 A 
ATOM     12  C   UNL     1       0.211  -1.554  -0.670  0.00  0.00    +0.078 A 
ATOM     13  C   UNL     1      -1.111  -1.062  -0.696  0.00  0.00    +0.029 A 
ATOM     14  N   UNL     1       0.662  -2.817  -0.522  0.00  0.00    -0.244 NA
ATOM     15  C   UNL     1       1.931  -3.104  -0.522  0.00  0.00    +0.082 A 
ATOM     16  S   UNL     1       2.696  -1.620  -0.733  0.00  0.00    -0.072 S 
ENDBRANCH   1  15
BRANCH   4  17
ATOM     17  C   UNL     1       5.731  -7.305  -0.099  0.00  0.00    +0.019 C 
BRANCH  17  18
ATOM     18  C   UNL     1       6.648  -7.485  -1.282  0.00  0.00    +0.200 C 
ATOM     19  O   UNL     1       6.774  -6.592  -2.093  0.00  0.00    -0.278 OA
ATOM     20  N   UNL     1       7.328  -8.638  -1.438  0.00  0.00    -0.295 N 
BRANCH  20  21
ATOM     21  C   UNL     1       8.310  -8.769  -2.518  0.00  0.00    +0.099 C 
ATOM     22  C   UNL     1       9.395  -7.690  -2.367  0.00  0.00    +0.046 C 
ATOM     23  C   UNL     1      10.244  -7.612  -3.659  0.00  0.00    +0.168 C 
ATOM     24  S   UNL     1       9.062  -8.166  -4.954  0.00  0.00    -0.029 S 
ATOM     25  O   UNL     1       9.548  -9.366  -5.540  0.00  0.00    -0.174 OA
ATOM     26  O   UNL     1       8.738  -7.062  -5.787  0.00  0.00    -0.174 OA
ATOM     27  C   UNL     1       7.610  -8.563  -3.892  0.00  0.00    +0.188 C 
ENDBRANCH  20  21
BRANCH  20  28
ATOM     28  C   UNL     1       7.086  -9.760  -0.528  0.00  0.00    +0.076 C 
ATOM     29  C   UNL     1       8.378 -10.103   0.244  0.00  0.00    +0.022 C 
ATOM     30  C   UNL     1       8.356 -11.648   0.353  0.00  0.00    +0.002 C 
ATOM     31  C   UNL     1       7.781 -12.080  -1.018  0.00  0.00    +0.002 C 
ATOM     32  C   UNL     1       6.707 -11.017  -1.330  0.00  0.00    +0.022 C 
ENDBRANCH  20  28
ENDBRANCH  17  18
ENDBRANCH   4  17
TORSDOF 5
