REMARK  Name = ZINC22238275
REMARK  9 active torsions:
REMARK  status: ('A' for Active; 'I' for Inactive)
REMARK    1  A    between atoms: C_1  and  C_2
REMARK    2  A    between atoms: C_2  and  O_3
REMARK    3  A    between atoms: O_3  and  C_4
REMARK    4  A    between atoms: C_5  and  O_26
REMARK    5  A    between atoms: C_7  and  C_11
REMARK    6  A    between atoms: C_11  and  N_13
REMARK    7  A    between atoms: C_16  and  C_19
REMARK    8  A    between atoms: C_19  and  N_20
REMARK    9  A    between atoms: O_26  and  C_27
REMARK                            x       y       z     vdW  Elec       q    Type
REMARK                         _______ _______ _______ _____ _____    ______ ____
ROOT
ATOM      1  N   UNL     1       0.151  -6.688  -2.501  0.00  0.00    -0.152 NA
ATOM      2  C   UNL     1       0.252  -8.006  -2.662  0.00  0.00    +0.163 A 
ATOM      3  N   UNL     1      -0.607  -8.849  -3.297  0.00  0.00    -0.341 N 
ATOM      4  C   UNL     1      -0.308 -10.175  -3.347  0.00  0.00    +0.008 A 
ATOM      5  C   UNL     1       0.827 -10.570  -2.759  0.00  0.00    +0.067 A 
ATOM      6  S   UNL     1       1.476  -9.031  -2.136  0.00  0.00    -0.061 S 
ATOM      7  H   UNL     1      -1.419  -8.510  -3.707  0.00  0.00    +0.167 HD
ENDROOT
BRANCH   1   8
ATOM      8  C   UNL     1       1.105  -6.020  -1.847  0.00  0.00    +0.270 C 
ATOM      9  O   UNL     1       2.068  -6.617  -1.398  0.00  0.00    -0.268 OA
BRANCH   8  13
ATOM     10  C   UNL     1       0.777  -1.810  -1.336  0.00  0.00    +0.176 A 
ATOM     11  C   UNL     1       1.880  -2.488  -0.820  0.00  0.00    +0.163 A 
ATOM     12  C   UNL     1       1.988  -3.856  -0.985  0.00  0.00    +0.062 A 
ATOM     13  C   UNL     1       0.992  -4.555  -1.668  0.00  0.00    +0.044 A 
ATOM     14  C   UNL     1      -0.110  -3.871  -2.183  0.00  0.00    +0.032 A 
ATOM     15  C   UNL     1      -0.217  -2.506  -2.010  0.00  0.00    +0.064 A 
ATOM     16 BR   UNL     1      -1.715  -1.582  -2.701  0.00  0.00    -0.046 Br
BRANCH  11  17
ATOM     17  O   UNL     1       2.849  -1.804  -0.156  0.00  0.00    -0.491 OA
ATOM     18  C   UNL     1       3.951  -2.563   0.346  0.00  0.00    +0.277 C 
ENDBRANCH  11  17
BRANCH  10  19
ATOM     19  O   UNL     1       0.671  -0.465  -1.174  0.00  0.00    -0.487 OA
BRANCH  19  21
ATOM     20  C   UNL     1      -0.019   1.526   0.010  0.00  0.00    +0.048 C 
ATOM     21  C   UNL     1       0.002  -0.004   0.002  0.00  0.00    +0.226 C 
ENDBRANCH  19  21
ENDBRANCH  10  19
ENDBRANCH   8  13
ENDBRANCH   1   8
BRANCH   4  22
ATOM     22  C   UNL     1      -1.219 -11.159  -4.035  0.00  0.00    -0.024 C 
BRANCH  22  23
ATOM     23  N   UNL     1      -2.500 -11.223  -3.319  0.00  0.00    +0.383 N 
ATOM     24  C   UNL     1      -2.280 -11.762  -1.972  0.00  0.00    -0.078 C 
ATOM     25  C   UNL     1      -3.598 -11.755  -1.194  0.00  0.00    -0.019 C 
ATOM     26  C   UNL     1      -4.624 -12.622  -1.931  0.00  0.00    -0.004 C 
ATOM     27  C   UNL     1      -4.790 -12.095  -3.359  0.00  0.00    -0.019 C 
ATOM     28  C   UNL     1      -3.428 -12.090  -4.057  0.00  0.00    -0.078 C 
ATOM     29  H   UNL     1      -2.892 -10.296  -3.249  0.00  0.00    -0.081 HD
ENDBRANCH  22  23
ENDBRANCH   4  22
TORSDOF 7
