REMARK  Name = ZINC62647817
REMARK  11 active torsions:
REMARK  status: ('A' for Active; 'I' for Inactive)
REMARK    1  A    between atoms: C_1  and  C_2
REMARK    2  A    between atoms: C_6  and  C_8
REMARK    3  A    between atoms: C_6  and  N_27
REMARK    4  A    between atoms: C_8  and  N_9
REMARK    5  A    between atoms: N_12  and  C_13
REMARK    6  A    between atoms: N_12  and  C_14
REMARK    7  A    between atoms: C_14  and  C_15
REMARK    8  A    between atoms: C_14  and  C_16
REMARK    9  A    between atoms: C_19  and  N_22
REMARK   10  A    between atoms: N_27  and  C_28
REMARK   11  A    between atoms: N_27  and  C_29
REMARK                            x       y       z     vdW  Elec       q    Type
REMARK                         _______ _______ _______ _____ _____    ______ ____
ROOT
ATOM      1  N   UNL     1       0.929  -4.500   1.590  0.00  0.00    -0.301 N 
ATOM      2  C   UNL     1       1.491  -5.263   2.548  0.00  0.00    +0.302 C 
ATOM      3  O   UNL     1       1.970  -4.743   3.537  0.00  0.00    -0.253 OA
ATOM      4  N   UNL     1       1.522  -6.604   2.410  0.00  0.00    -0.282 N 
ATOM      5  C   UNL     1       0.946  -7.231   1.218  0.00  0.00    +0.134 C 
ATOM      6  H   UNL     1       0.547  -4.915   0.801  0.00  0.00    +0.150 HD
ENDROOT
BRANCH   4   7
ATOM      7  C   UNL     1       2.134  -7.433   3.451  0.00  0.00    +0.104 C 
ATOM      8  C   UNL     1       3.352  -8.159   2.876  0.00  0.00    +0.033 C 
BRANCH   7   9
ATOM      9  C   UNL     1       1.130  -8.446   3.939  0.00  0.00    -0.027 A 
ATOM     10  C   UNL     1       1.560  -9.679   4.395  0.00  0.00    +0.007 A 
ATOM     11  C   UNL     1       0.643 -10.609   4.843  0.00  0.00    +0.028 A 
ATOM     12  C   UNL     1      -0.712 -10.306   4.837  0.00  0.00    +0.067 A 
ATOM     13  C   UNL     1      -1.140  -9.067   4.379  0.00  0.00    +0.028 A 
ATOM     14  C   UNL     1      -0.218  -8.139   3.937  0.00  0.00    +0.007 A 
BRANCH  12  15
ATOM     15  N   UNL     1      -1.645 -11.248   5.291  0.00  0.00    -0.220 N 
ATOM     16  C   UNL     1      -2.983 -11.101   5.340  0.00  0.00    +0.225 A 
ATOM     17  N   UNL     1      -3.495 -12.203   5.825  0.00  0.00    -0.222 NA
ATOM     18  C   UNL     1      -2.521 -13.072   6.096  0.00  0.00    +0.245 A 
ATOM     19  N   UNL     1      -1.371 -12.536   5.781  0.00  0.00    -0.154 NA
ENDBRANCH  12  15
ENDBRANCH   7   9
ENDBRANCH   4   7
BRANCH   1  20
ATOM     20  C   UNL     1       0.894  -3.043   1.740  0.00  0.00    +0.094 C 
BRANCH  20  26
ATOM     21  C   UNL     1       0.731  -2.376  -3.209  0.00  0.00    +0.007 C 
ATOM     22  C   UNL     1       0.014  -2.096  -1.887  0.00  0.00    -0.015 C 
ATOM     23  C   UNL     1      -1.385  -2.715  -1.924  0.00  0.00    +0.003 C 
ATOM     24  C   UNL     1      -2.101  -2.436  -0.601  0.00  0.00    -0.001 C 
ATOM     25  C   UNL     1      -1.303  -3.049   0.551  0.00  0.00    -0.010 C 
ATOM     26  C   UNL     1       0.096  -2.430   0.588  0.00  0.00    -0.050 C 
ATOM     27  C   UNL     1       0.813  -2.709  -0.734  0.00  0.00    -0.007 C 
BRANCH  26  28
ATOM     28  N   UNL     1      -0.016  -0.979   0.788  0.00  0.00    +0.381 N 
ATOM     29  C   UNL     1      -0.628  -0.710   2.096  0.00  0.00    -0.096 C 
ATOM     30  C   UNL     1       1.322  -0.374   0.739  0.00  0.00    -0.096 C 
ATOM     31  H   UNL     1      -0.591  -0.583   0.059  0.00  0.00    -0.082 HD
ENDBRANCH  26  28
ENDBRANCH  20  26
ENDBRANCH   1  20
TORSDOF 6
