REMARK  Name = ZINC09820508
REMARK  7 active torsions:
REMARK  status: ('A' for Active; 'I' for Inactive)
REMARK    1  A    between atoms: C_1  and  C_2
REMARK    2  A    between atoms: C_2  and  O_3
REMARK    3  A    between atoms: O_3  and  C_4
REMARK    4  A    between atoms: C_4  and  C_6
REMARK    5  A    between atoms: C_12  and  C_14
REMARK    6  A    between atoms: N_16  and  C_33
REMARK    7  A    between atoms: N_23  and  C_26
REMARK                            x       y       z     vdW  Elec       q    Type
REMARK                         _______ _______ _______ _____ _____    ______ ____
ROOT
ATOM      1  C   UNL     1      -2.634   3.689   0.018  0.00  0.00    +0.079 A 
ATOM      2  C   UNL     1      -3.505   2.618  -0.024  0.00  0.00    +0.101 A 
ATOM      3  N   UNL     1      -2.794   1.478  -0.064  0.00  0.00    -0.344 N 
ATOM      4  C   UNL     1      -1.447   1.780  -0.063  0.00  0.00    +0.132 A 
ATOM      5  C   UNL     1      -1.321   3.160  -0.014  0.00  0.00    +0.086 A 
ATOM      6  N   UNL     1      -0.059   3.726  -0.011  0.00  0.00    -0.305 N 
ATOM      7  H   UNL     1       0.040   4.691   0.019  0.00  0.00    +0.170 HD
ATOM      8  C   UNL     1       1.033   2.939  -0.048  0.00  0.00    +0.334 A 
ATOM      9  O   UNL     1       2.136   3.451  -0.044  0.00  0.00    -0.246 OA
ATOM     10  N   UNL     1       0.931   1.599  -0.090  0.00  0.00    -0.227 N 
ATOM     11  C   UNL     1      -0.272   0.992  -0.096  0.00  0.00    +0.285 A 
ATOM     12  O   UNL     1      -0.348  -0.223  -0.134  0.00  0.00    -0.265 OA
ATOM     13  C   UNL     1      -3.359   0.128  -0.104  0.00  0.00    +0.149 C 
ENDROOT
BRANCH   1  20
ATOM     14  C   UNL     1      -4.658   6.791  -3.296  0.00  0.00    +0.101 C 
ATOM     15  C   UNL     1      -3.881   7.613  -2.266  0.00  0.00    +0.033 C 
ATOM     16  C   UNL     1      -4.158   7.060  -0.864  0.00  0.00    +0.109 C 
ATOM     17  N   UNL     1      -3.845   5.624  -0.851  0.00  0.00    -0.297 N 
ATOM     18  C   UNL     1      -4.465   4.757  -1.863  0.00  0.00    +0.109 C 
ATOM     19  C   UNL     1      -4.188   5.335  -3.250  0.00  0.00    +0.033 C 
ATOM     20  C   UNL     1      -3.002   5.114   0.068  0.00  0.00    +0.250 C 
ATOM     21  O   UNL     1      -2.544   5.830   0.938  0.00  0.00    -0.270 OA
BRANCH  14  22
ATOM     22  C   UNL     1      -4.415   7.353  -4.673  0.00  0.00    +0.310 C 
ATOM     23  O   UNL     1      -3.694   8.312  -4.816  0.00  0.00    -0.251 OA
BRANCH  22  24
ATOM     24  O   UNL     1      -4.998   6.788  -5.742  0.00  0.00    -0.465 OA
BRANCH  24  26
ATOM     25  C   UNL     1      -5.466   6.608  -8.125  0.00  0.00    +0.048 C 
ATOM     26  C   UNL     1      -4.719   7.382  -7.037  0.00  0.00    +0.229 C 
ENDBRANCH  24  26
ENDBRANCH  22  24
ENDBRANCH  14  22
ENDBRANCH   1  20
BRANCH  10  27
ATOM     27  C   UNL     1       2.096   0.820  -0.128  0.00  0.00    +0.055 A 
ATOM     28  C   UNL     1       2.932   0.873  -1.235  0.00  0.00    +0.029 A 
ATOM     29  C   UNL     1       4.082   0.109  -1.268  0.00  0.00    +0.040 A 
ATOM     30  C   UNL     1       4.396  -0.718  -0.202  0.00  0.00    +0.124 A 
ATOM     31  C   UNL     1       3.562  -0.775   0.901  0.00  0.00    +0.040 A 
ATOM     32  C   UNL     1       2.413  -0.009   0.940  0.00  0.00    +0.029 A 
ATOM     33  F   UNL     1       5.519  -1.469  -0.239  0.00  0.00    -0.205 F 
ENDBRANCH  10  27
TORSDOF 5
