REMARK  Name = ZINC05431295
REMARK  2 active torsions:
REMARK  status: ('A' for Active; 'I' for Inactive)
REMARK    1  A    between atoms: C_1  and  C_2
REMARK    2  A    between atoms: C_17  and  N_19
REMARK                            x       y       z     vdW  Elec       q    Type
REMARK                         _______ _______ _______ _____ _____    ______ ____
ROOT
ATOM      1  C   UNL     1      -2.164  -3.956   1.126  0.00  0.00    +0.110 C 
ATOM      2  C   UNL     1      -1.068  -4.777   0.497  0.00  0.00    +0.221 C 
ATOM      3  O   UNL     1      -1.176  -5.984   0.431  0.00  0.00    -0.275 OA
ATOM      4  N   UNL     1       0.032  -4.171   0.008  0.00  0.00    -0.238 N 
ATOM      5  C   UNL     1       1.086  -4.983  -0.398  0.00  0.00    +0.057 A 
ATOM      6  C   UNL     1       0.817  -6.302  -0.761  0.00  0.00    +0.025 A 
ATOM      7  C   UNL     1       1.839  -7.137  -1.160  0.00  0.00    +0.002 A 
ATOM      8  C   UNL     1       3.140  -6.669  -1.201  0.00  0.00    +0.001 A 
ATOM      9  C   UNL     1       3.414  -5.362  -0.844  0.00  0.00    +0.019 A 
ATOM     10  C   UNL     1       2.392  -4.521  -0.445  0.00  0.00    +0.065 A 
ATOM     11  S   UNL     1       2.763  -2.858   0.003  0.00  0.00    +0.089 S 
ATOM     12  O   UNL     1       3.060  -2.933   1.390  0.00  0.00    -0.247 OA
ATOM     13  C   UNL     1       1.201  -2.044  -0.055  0.00  0.00    +0.068 A 
ATOM     14  C   UNL     1       0.027  -2.782  -0.052  0.00  0.00    +0.058 A 
ATOM     15  C   UNL     1      -1.196  -2.116  -0.106  0.00  0.00    +0.027 A 
ATOM     16  C   UNL     1      -1.236  -0.738  -0.151  0.00  0.00    +0.034 A 
ATOM     17  C   UNL     1      -0.061  -0.009  -0.156  0.00  0.00    +0.127 A 
ATOM     18  C   UNL     1       1.155  -0.664  -0.106  0.00  0.00    +0.052 A 
ENDROOT
BRANCH  17  19
ATOM     19  N   UNL     1      -0.106   1.469  -0.208  0.00  0.00    +0.056 N 
ATOM     20  O   UNL     1       0.930   2.110  -0.207  0.00  0.00    -0.126 OA
ATOM     21  O   UNL     1      -1.179   2.045  -0.257  0.00  0.00    -0.126 OA
ENDBRANCH  17  19
TORSDOF 1
