REMARK  Name = ZINC04242717
REMARK  7 active torsions:
REMARK  status: ('A' for Active; 'I' for Inactive)
REMARK    1  A    between atoms: C_1  and  C_2
REMARK    2  A    between atoms: C_2  and  C_4
REMARK    3  A    between atoms: C_2  and  O_17
REMARK    4  A    between atoms: N_6  and  C_7
REMARK    5  A    between atoms: C_11  and  N_13
REMARK    6  A    between atoms: O_17  and  C_18
REMARK    7  A    between atoms: C_18  and  C_20
REMARK                            x       y       z     vdW  Elec       q    Type
REMARK                         _______ _______ _______ _____ _____    ______ ____
ROOT
ATOM      1  C   UNL     1       3.569   3.470  -0.113  0.00  0.00    +0.258 C 
ATOM      2  O   UNL     1       2.513   4.067  -0.101  0.00  0.00    -0.271 OA
ATOM      3  N   UNL     1       3.585   2.126  -0.019  0.00  0.00    -0.282 N 
ATOM      4  H   UNL     1       4.430   1.655   0.048  0.00  0.00    +0.155 HD
ENDROOT
BRANCH   3   5
ATOM      5  C   UNL     1       2.381   1.410  -0.019  0.00  0.00    +0.036 A 
ATOM      6  C   UNL     1       2.269   0.239   0.720  0.00  0.00    +0.026 A 
ATOM      7  C   UNL     1       1.082  -0.466   0.719  0.00  0.00    +0.042 A 
ATOM      8  C   UNL     1       0.003  -0.006  -0.018  0.00  0.00    +0.154 A 
ATOM      9  C   UNL     1       0.112   1.161  -0.754  0.00  0.00    +0.163 A 
ATOM     10  C   UNL     1       1.298   1.869  -0.756  0.00  0.00    +0.059 A 
ATOM     11  F   UNL     1      -1.158  -0.697  -0.018  0.00  0.00    -0.203 F 
BRANCH   9  12
ATOM     12  N   UNL     1      -1.042   1.651  -1.540  0.00  0.00    +0.059 N 
ATOM     13  O   UNL     1      -0.947   2.678  -2.188  0.00  0.00    -0.126 OA
ATOM     14  O   UNL     1      -2.088   1.026  -1.539  0.00  0.00    -0.126 OA
ENDBRANCH   9  12
ENDBRANCH   3   5
BRANCH   1  16
ATOM     15  C   UNL     1       5.544   3.875  -1.557  0.00  0.00    +0.062 C 
ATOM     16  C   UNL     1       4.863   4.233  -0.234  0.00  0.00    +0.259 C 
BRANCH  16  17
ATOM     17  O   UNL     1       4.595   5.636  -0.201  0.00  0.00    -0.448 OA
BRANCH  17  18
ATOM     18  C   UNL     1       5.555   6.431   0.314  0.00  0.00    +0.347 C 
ATOM     19  O   UNL     1       6.592   5.946   0.724  0.00  0.00    -0.244 OA
BRANCH  18  20
ATOM     20  C   UNL     1       5.349   7.878   0.380  0.00  0.00    +0.098 A 
ATOM     21  C   UNL     1       6.198   8.861   0.866  0.00  0.00    +0.024 A 
ATOM     22  C   UNL     1       5.753  10.157   0.808  0.00  0.00    +0.028 A 
ATOM     23  C   UNL     1       4.522  10.413   0.286  0.00  0.00    +0.079 A 
ATOM     24  S   UNL     1       3.942   8.839  -0.152  0.00  0.00    -0.070 S 
ATOM     25 CL   UNL     1       3.728  11.945   0.097  0.00  0.00    -0.076 Cl
ENDBRANCH  18  20
ENDBRANCH  17  18
ENDBRANCH  16  17
ENDBRANCH   1  16
TORSDOF 6
