REMARK  Name = ZINC21548878
REMARK  5 active torsions:
REMARK  status: ('A' for Active; 'I' for Inactive)
REMARK    1  A    between atoms: C_9  and  C_11
REMARK    2  A    between atoms: C_9  and  N_15
REMARK    3  A    between atoms: N_18  and  C_19
REMARK    4  A    between atoms: C_19  and  C_20
REMARK    5  A    between atoms: C_20  and  N_21
REMARK                            x       y       z     vdW  Elec       q    Type
REMARK                         _______ _______ _______ _____ _____    ______ ____
ROOT
ATOM      1  C   UNL     1      -0.017   1.379   0.010  0.00  0.00    +0.024 A 
ATOM      2  C   UNL     1       1.170   2.089   0.002  0.00  0.00    +0.051 A 
ATOM      3  C   UNL     1       2.380   1.417  -0.013  0.00  0.00    +0.169 A 
ATOM      4  C   UNL     1       2.400   0.024  -0.021  0.00  0.00    +0.170 A 
ATOM      5  C   UNL     1       1.208  -0.682  -0.013  0.00  0.00    +0.069 A 
ATOM      6  C   UNL     1       0.002  -0.004   0.002  0.00  0.00    +0.045 A 
ATOM      7 CL   UNL     1      -1.490  -0.891   0.012  0.00  0.00    -0.083 Cl
ATOM      8  O   UNL     1       3.699  -0.394  -0.035  0.00  0.00    -0.426 OA
ATOM      9  C   UNL     1       4.475   0.747   0.377  0.00  0.00    +0.436 C 
ATOM     10  O   UNL     1       3.668   1.871  -0.022  0.00  0.00    -0.426 OA
ENDROOT
BRANCH   9  11
ATOM     11  N   UNL     1       4.668   0.742   1.829  0.00  0.00    -0.220 N 
ATOM     12  C   UNL     1       3.600   0.766   2.651  0.00  0.00    +0.305 C 
ATOM     13  O   UNL     1       2.477   0.792   2.187  0.00  0.00    -0.253 OA
ATOM     14  N   UNL     1       3.778   0.762   3.987  0.00  0.00    -0.298 N 
ATOM     15  H   UNL     1       5.564   0.721   2.199  0.00  0.00    +0.158 HD
ATOM     16  H   UNL     1       4.674   0.741   4.357  0.00  0.00    +0.150 HD
BRANCH  14  17
ATOM     17  C   UNL     1       2.617   0.788   4.880  0.00  0.00    +0.121 C 
BRANCH  17  18
ATOM     18  C   UNL     1       3.093   0.776   6.334  0.00  0.00    +0.103 C 
BRANCH  18  19
ATOM     19  N   UNL     1       1.929   0.803   7.230  0.00  0.00    -0.297 NA
ATOM     20  C   UNL     1       1.205   2.077   7.116  0.00  0.00    +0.112 C 
ATOM     21  C   UNL     1      -0.030   2.039   8.020  0.00  0.00    +0.175 C 
ATOM     22  O   UNL     1       0.376   1.766   9.363  0.00  0.00    -0.377 OA
ATOM     23  C   UNL     1       1.083   0.531   9.511  0.00  0.00    +0.175 C 
ATOM     24  C   UNL     1       2.330   0.554   8.623  0.00  0.00    +0.112 C 
ENDBRANCH  18  19
ENDBRANCH  17  18
ENDBRANCH  14  17
ENDBRANCH   9  11
BRANCH   9  25
ATOM     25  C   UNL     1       5.823   0.770  -0.346  0.00  0.00    +0.490 C 
ATOM     26  F   UNL     1       5.610   0.824  -1.728  0.00  0.00    -0.162 F 
ATOM     27  F   UNL     1       6.550   1.895   0.058  0.00  0.00    -0.162 F 
ATOM     28  F   UNL     1       6.541  -0.388  -0.030  0.00  0.00    -0.162 F 
ENDBRANCH   9  25
TORSDOF 5
