REMARK  Name = ZINC25521031
REMARK  8 active torsions:
REMARK  status: ('A' for Active; 'I' for Inactive)
REMARK    1  A    between atoms: C_1  and  C_2
REMARK    2  A    between atoms: C_2  and  O_3
REMARK    3  A    between atoms: O_3  and  C_4
REMARK    4  A    between atoms: C_12  and  C_14
REMARK    5  A    between atoms: C_14  and  C_16
REMARK    6  A    between atoms: C_14  and  N_17
REMARK    7  A    between atoms: N_20  and  C_23
REMARK    8  A    between atoms: C_28  and  O_29
REMARK                            x       y       z     vdW  Elec       q    Type
REMARK                         _______ _______ _______ _____ _____    ______ ____
ROOT
ATOM      1  C   UNL     1       6.478   0.482   0.006  0.00  0.00    +0.016 C 
ATOM      2  C   UNL     1       6.171  -0.993   0.274  0.00  0.00    -0.004 C 
ENDROOT
BRANCH   1  11
ATOM      3  C   UNL     1      12.568   1.290   0.183  0.00  0.00    +0.403 C 
ATOM      4  O   UNL     1      13.291   1.796   1.018  0.00  0.00    -0.226 OA
ATOM      5  N   UNL     1      11.234   1.473   0.245  0.00  0.00    -0.264 N 
ATOM      6  C   UNL     1      10.640   2.283   1.318  0.00  0.00    +0.130 C 
ATOM      7  C   UNL     1       9.584   1.438   2.042  0.00  0.00    +0.127 C 
ATOM      8  N   UNL     1       8.698   0.833   1.038  0.00  0.00    -0.300 N 
ATOM      9  C   UNL     1       9.291   0.019  -0.031  0.00  0.00    +0.127 C 
ATOM     10  C   UNL     1      10.348   0.868  -0.759  0.00  0.00    +0.130 C 
ATOM     11  C   UNL     1       7.364   1.017   1.101  0.00  0.00    +0.202 C 
ATOM     12  O   UNL     1       6.878   1.613   2.039  0.00  0.00    -0.277 OA
BRANCH   3  13
ATOM     13  O   UNL     1      13.099   0.546  -0.806  0.00  0.00    -0.451 OA
BRANCH  13  15
ATOM     14  C   UNL     1      14.958  -0.480  -1.998  0.00  0.00    +0.048 C 
ATOM     15  C   UNL     1      14.543   0.391  -0.811  0.00  0.00    +0.230 C 
ENDBRANCH  13  15
ENDBRANCH   3  13
ENDBRANCH   1  11
BRANCH   1  16
ATOM     16  N   UNL     1       5.223   1.245  -0.025  0.00  0.00    +0.389 N 
ATOM     17  C   UNL     1       4.487   0.997  -1.273  0.00  0.00    -0.059 C 
ATOM     18  C   UNL     1       3.229   1.869  -1.301  0.00  0.00    +0.086 C 
ATOM     19  N   UNL     1       2.396   1.561  -0.131  0.00  0.00    -0.331 N 
ATOM     20  C   UNL     1       3.132   1.809   1.116  0.00  0.00    +0.086 C 
ATOM     21  C   UNL     1       4.390   0.937   1.145  0.00  0.00    -0.059 C 
ATOM     22  H   UNL     1       5.479   2.315   0.012  0.00  0.00    -0.081 HD
BRANCH  19  23
ATOM     23  C   UNL     1       1.201   2.289  -0.161  0.00  0.00    +0.072 A 
ATOM     24  C   UNL     1       1.230   3.676  -0.165  0.00  0.00    +0.027 A 
ATOM     25  C   UNL     1       0.049   4.392  -0.195  0.00  0.00    +0.002 A 
ATOM     26  C   UNL     1      -1.165   3.730  -0.221  0.00  0.00    +0.004 A 
ATOM     27  C   UNL     1      -1.202   2.347  -0.222  0.00  0.00    +0.047 A 
ATOM     28  C   UNL     1      -0.022   1.622  -0.187  0.00  0.00    +0.138 A 
BRANCH  28  29
ATOM     29  O   UNL     1      -0.058   0.263  -0.182  0.00  0.00    -0.505 OA
ATOM     30  H   UNL     1      -1.024  -0.263  -0.203  0.00  0.00    +0.292 HD
ENDBRANCH  28  29
ENDBRANCH  19  23
ENDBRANCH   1  16
TORSDOF 6
