REMARK  Name = ZINC67303303
REMARK  5 active torsions:
REMARK  status: ('A' for Active; 'I' for Inactive)
REMARK    1  A    between atoms: C_1  and  C_2
REMARK    2  A    between atoms: C_2  and  C_3
REMARK    3  A    between atoms: C_2  and  N_4
REMARK    4  A    between atoms: C_13  and  C_15
REMARK    5  A    between atoms: C_18  and  C_20
REMARK                            x       y       z     vdW  Elec       q    Type
REMARK                         _______ _______ _______ _____ _____    ______ ____
ROOT
ATOM      1  N   UNL     1      -1.371  -0.513   0.016  0.00  0.00    -0.297 N 
ATOM      2  C   UNL     1      -1.643  -1.734  -0.485  0.00  0.00    +0.302 C 
ATOM      3  O   UNL     1      -0.766  -2.378  -1.028  0.00  0.00    -0.253 OA
ATOM      4  N   UNL     1      -2.888  -2.242  -0.385  0.00  0.00    -0.283 N 
ATOM      5  C   UNL     1      -3.985  -1.430   0.160  0.00  0.00    +0.128 C 
ATOM      6  C   UNL     1      -5.125  -1.396  -0.866  0.00  0.00    +0.127 C 
ATOM      7  N   UNL     1      -5.408  -2.771  -1.300  0.00  0.00    -0.298 N 
ATOM      8  C   UNL     1      -4.311  -3.583  -1.844  0.00  0.00    +0.127 C 
ATOM      9  C   UNL     1      -3.172  -3.616  -0.823  0.00  0.00    +0.128 C 
ATOM     10  C   UNL     1      -6.653  -3.279  -1.199  0.00  0.00    +0.219 C 
ATOM     11  O   UNL     1      -7.550  -2.599  -0.748  0.00  0.00    -0.275 OA
ATOM     12  H   UNL     1      -2.086   0.030   0.384  0.00  0.00    +0.150 HD
ENDROOT
BRANCH   1  14
ATOM     13  C   UNL     1      -0.017   1.524   0.020  0.00  0.00    +0.027 C 
ATOM     14  C   UNL     1       0.003  -0.006   0.006  0.00  0.00    +0.068 C 
ATOM     15  C   UNL     1       0.745  -0.518   1.242  0.00  0.00    +0.027 C 
ENDBRANCH   1  14
BRANCH  10  16
ATOM     16  C   UNL     1      -6.928  -4.691  -1.647  0.00  0.00    +0.083 C 
ATOM     17  C   UNL     1      -7.796  -4.880  -2.893  0.00  0.00    +0.022 C 
ATOM     18  C   UNL     1      -8.362  -5.209  -1.510  0.00  0.00    +0.032 C 
BRANCH  18  19
ATOM     19  C   UNL     1      -8.546  -6.663  -1.161  0.00  0.00    -0.042 A 
ATOM     20  C   UNL     1      -8.041  -7.643  -1.996  0.00  0.00    +0.005 A 
ATOM     21  C   UNL     1      -8.209  -8.977  -1.677  0.00  0.00    +0.022 A 
ATOM     22  C   UNL     1      -8.883  -9.333  -0.522  0.00  0.00    +0.059 A 
ATOM     23  C   UNL     1      -9.388  -8.352   0.314  0.00  0.00    +0.060 A 
ATOM     24  C   UNL     1      -9.214  -7.017  -0.004  0.00  0.00    +0.025 A 
ATOM     25 CL   UNL     1     -10.234  -8.797   1.763  0.00  0.00    -0.082 Cl
ATOM     26 CL   UNL     1      -9.095 -11.009  -0.122  0.00  0.00    -0.082 Cl
ENDBRANCH  18  19
ENDBRANCH  10  16
TORSDOF 3
