REMARK  Name = ZINC58580121
REMARK  5 active torsions:
REMARK  status: ('A' for Active; 'I' for Inactive)
REMARK    1  A    between atoms: C_1  and  C_2
REMARK    2  A    between atoms: C_10  and  C_11
REMARK    3  A    between atoms: N_13  and  N_14
REMARK    4  A    between atoms: C_15  and  C_17
REMARK    5  A    between atoms: C_22  and  C_24
REMARK                            x       y       z     vdW  Elec       q    Type
REMARK                         _______ _______ _______ _____ _____    ______ ____
ROOT
ATOM      1  N   UNL     1       0.062  -0.867   4.814  0.00  0.00    -0.233 N 
ATOM      2  C   UNL     1       0.084  -1.776   5.809  0.00  0.00    +0.250 C 
ATOM      3  O   UNL     1       0.097  -2.960   5.549  0.00  0.00    -0.272 OA
ATOM      4  H   UNL     1       0.051   0.080   5.022  0.00  0.00    +0.173 HD
ENDROOT
BRANCH   2   5
ATOM      5  C   UNL     1       0.092  -1.320   7.246  0.00  0.00    +0.164 C 
ATOM      6  C   UNL     1      -1.341  -0.958   7.690  0.00  0.00    +0.033 C 
ATOM      7  C   UNL     1      -1.816  -2.246   8.412  0.00  0.00    +0.021 C 
ATOM      8  C   UNL     1      -0.507  -2.726   9.087  0.00  0.00    +0.109 C 
ATOM      9  N   UNL     1       0.556  -2.412   8.114  0.00  0.00    -0.285 N 
ATOM     10  C   UNL     1       1.753  -3.026   8.034  0.00  0.00    +0.254 C 
ATOM     11  O   UNL     1       2.557  -2.683   7.186  0.00  0.00    -0.269 OA
BRANCH  10  12
ATOM     12  C   UNL     1       2.087  -4.106   8.967  0.00  0.00    +0.074 A 
ATOM     13  C   UNL     1       3.252  -4.853   9.057  0.00  0.00    +0.021 A 
ATOM     14  C   UNL     1       3.273  -5.808  10.046  0.00  0.00    +0.008 A 
ATOM     15  C   UNL     1       2.187  -5.953  10.845  0.00  0.00    +0.046 A 
ATOM     16  S   UNL     1       1.107  -4.794  10.287  0.00  0.00    -0.092 S 
ENDBRANCH  10  12
ENDBRANCH   2   5
BRANCH   1  19
ATOM     17  C   UNL     1       0.032  -0.382   2.484  0.00  0.00    +0.296 C 
ATOM     18  O   UNL     1       0.019   0.806   2.745  0.00  0.00    -0.265 OA
ATOM     19  N   UNL     1       0.054  -1.291   3.479  0.00  0.00    -0.228 N 
ATOM     20  H   UNL     1       0.065  -2.238   3.270  0.00  0.00    +0.173 HD
BRANCH  17  30
ATOM     21  C   UNL     1      -0.018   1.503   0.010  0.00  0.00    +0.048 C 
ATOM     22  C   UNL     1       0.002  -0.004   0.002  0.00  0.00    +0.008 A 
ATOM     23  C   UNL     1       0.009  -0.877  -1.171  0.00  0.00    +0.024 A 
ATOM     24  C   UNL     1      -0.001  -0.654  -2.551  0.00  0.00    +0.012 A 
ATOM     25  C   UNL     1       0.009  -1.718  -3.408  0.00  0.00    +0.001 A 
ATOM     26  C   UNL     1       0.029  -3.017  -2.918  0.00  0.00    +0.004 A 
ATOM     27  C   UNL     1       0.039  -3.257  -1.561  0.00  0.00    +0.047 A 
ATOM     28  C   UNL     1       0.029  -2.191  -0.669  0.00  0.00    +0.136 A 
ATOM     29  O   UNL     1       0.035  -2.113   0.676  0.00  0.00    -0.450 OA
ATOM     30  C   UNL     1       0.024  -0.826   1.083  0.00  0.00    +0.195 A 
ENDBRANCH  17  30
ENDBRANCH   1  19
TORSDOF 4
