REMARK  Name = ZINC39947496
REMARK  5 active torsions:
REMARK  status: ('A' for Active; 'I' for Inactive)
REMARK    1  A    between atoms: C_4  and  C_7
REMARK    2  A    between atoms: C_7  and  C_9
REMARK    3  A    between atoms: C_7  and  N_20
REMARK    4  A    between atoms: C_9  and  C_11
REMARK    5  A    between atoms: C_26  and  C_28
REMARK                            x       y       z     vdW  Elec       q    Type
REMARK                         _______ _______ _______ _____ _____    ______ ____
ROOT
ATOM      1  C   UNL     1       3.711  -0.707  -0.038  0.00  0.00    +0.159 C 
ENDROOT
BRANCH   1   2
ATOM      2  N   UNL     1       3.940  -1.948  -0.789  0.00  0.00    -0.286 NA
ATOM      3  C   UNL     1       5.280  -2.487  -0.521  0.00  0.00    +0.104 C 
ATOM      4  C   UNL     1       5.413  -3.866  -1.175  0.00  0.00    +0.123 C 
ATOM      5  N   UNL     1       5.067  -3.743  -2.599  0.00  0.00    -0.296 N 
ATOM      6  C   UNL     1       3.798  -3.088  -2.952  0.00  0.00    +0.123 C 
ATOM      7  C   UNL     1       3.728  -1.740  -2.228  0.00  0.00    +0.104 C 
ATOM      8  C   UNL     1       5.889  -4.218  -3.555  0.00  0.00    +0.257 C 
ATOM      9  O   UNL     1       6.931  -4.756  -3.246  0.00  0.00    -0.272 OA
BRANCH   8  10
ATOM     10  C   UNL     1       5.514  -4.082  -5.008  0.00  0.00    +0.262 C 
ATOM     11  C   UNL     1       4.292  -4.969  -5.351  0.00  0.00    +0.084 C 
ATOM     12  C   UNL     1       4.653  -5.467  -6.740  0.00  0.00    +0.015 C 
ATOM     13  C   UNL     1       5.934  -5.228  -6.921  0.00  0.00    +0.184 C 
ATOM     14  O   UNL     1       6.533  -4.643  -5.859  0.00  0.00    -0.487 OA
ENDBRANCH   8  10
ENDBRANCH   1   2
BRANCH   1  18
ATOM     15  C   UNL     1      -0.209   0.764  -0.882  0.00  0.00    +0.000 A 
ATOM     16  C   UNL     1       0.874   1.621  -0.924  0.00  0.00    +0.000 A 
ATOM     17  C   UNL     1       2.143   1.145  -0.650  0.00  0.00    +0.005 A 
ATOM     18  C   UNL     1       2.328  -0.188  -0.335  0.00  0.00    -0.023 A 
ATOM     19  C   UNL     1       1.244  -1.045  -0.292  0.00  0.00    +0.005 A 
ATOM     20  C   UNL     1      -0.024  -0.569  -0.566  0.00  0.00    +0.000 A 
ENDBRANCH   1  18
BRANCH   1  21
ATOM     21  C   UNL     1       3.838  -0.983   1.438  0.00  0.00    +0.183 C 
ATOM     22  O   UNL     1       3.662  -2.107   1.863  0.00  0.00    -0.290 OA
BRANCH  21  23
ATOM     23  C   UNL     1       4.161   0.065   2.327  0.00  0.00    +0.025 C 
ATOM     24  C   UNL     1       4.319  -0.020   3.698  0.00  0.00    +0.006 A 
ATOM     25  C   UNL     1       4.221  -1.095   4.614  0.00  0.00    +0.010 A 
ATOM     26  C   UNL     1       4.431  -0.887   5.933  0.00  0.00    +0.001 A 
ATOM     27  C   UNL     1       4.751   0.376   6.456  0.00  0.00    +0.002 A 
ATOM     28  C   UNL     1       4.868   1.467   5.668  0.00  0.00    +0.026 A 
ATOM     29  C   UNL     1       4.656   1.328   4.218  0.00  0.00    +0.043 A 
ATOM     30  N   UNL     1       4.705   2.193   3.245  0.00  0.00    -0.380 N 
ATOM     31  C   UNL     1       4.413   1.515   1.978  0.00  0.00    +0.152 C 
ATOM     32  H   UNL     1       4.906   3.137   3.343  0.00  0.00    +0.160 HD
ENDBRANCH  21  23
ENDBRANCH   1  21
TORSDOF 5
