REMARK  Name = ZINC20598311
REMARK  5 active torsions:
REMARK  status: ('A' for Active; 'I' for Inactive)
REMARK    1  A    between atoms: C_9  and  C_12
REMARK    2  A    between atoms: C_12  and  N_13
REMARK    3  A    between atoms: C_20  and  C_22
REMARK    4  A    between atoms: N_27  and  C_30
REMARK    5  A    between atoms: C_30  and  C_31
REMARK                            x       y       z     vdW  Elec       q    Type
REMARK                         _______ _______ _______ _____ _____    ______ ____
ROOT
ATOM      1  N   UNL     1      -2.146   1.160   1.211  0.00  0.00    +0.383 N 
ATOM      2  C   UNL     1      -0.737   1.583   1.264  0.00  0.00    -0.078 C 
ATOM      3  C   UNL     1      -0.013   1.086   0.008  0.00  0.00    -0.011 C 
ATOM      4  C   UNL     1      -0.761   1.597  -1.228  0.00  0.00    -0.021 C 
ATOM      5  C   UNL     1      -2.265   1.307  -1.232  0.00  0.00    -0.011 C 
ATOM      6  C   UNL     1      -2.860   1.792   0.095  0.00  0.00    -0.078 C 
ATOM      7  C   UNL     1      -0.285   2.905  -1.858  0.00  0.00    +0.020 C 
ATOM      8  C   UNL     1      -0.026   1.573  -2.567  0.00  0.00    +0.082 C 
ATOM      9  H   UNL     1      -2.160   0.074   1.036  0.00  0.00    -0.081 HD
ENDROOT
BRANCH   8  10
ATOM     10  C   UNL     1      -0.837   1.272  -3.800  0.00  0.00    +0.219 C 
ATOM     11  O   UNL     1      -2.028   1.060  -3.706  0.00  0.00    -0.275 OA
ATOM     12  N   UNL     1      -0.240   1.239  -5.008  0.00  0.00    -0.299 N 
ATOM     13  C   UNL     1       1.201   1.499  -5.145  0.00  0.00    +0.123 C 
ATOM     14  C   UNL     1       1.823   0.352  -5.957  0.00  0.00    +0.104 C 
ATOM     15  N   UNL     1       1.096   0.205  -7.224  0.00  0.00    -0.295 NA
ATOM     16  C   UNL     1      -0.305  -0.173  -6.995  0.00  0.00    +0.104 C 
ATOM     17  C   UNL     1      -1.013   0.947  -6.225  0.00  0.00    +0.123 C 
BRANCH  15  18
ATOM     18  C   UNL     1       1.764  -0.761  -8.106  0.00  0.00    +0.127 C 
BRANCH  18  19
ATOM     19  C   UNL     1       3.109  -0.220  -8.517  0.00  0.00    +0.004 A 
ATOM     20  C   UNL     1       4.312  -0.374  -7.911  0.00  0.00    +0.012 A 
ATOM     21  C   UNL     1       5.426   0.219  -8.473  0.00  0.00    +0.008 A 
ATOM     22  C   UNL     1       5.284   0.937  -9.614  0.00  0.00    +0.045 A 
ATOM     23  S   UNL     1       3.534   0.783  -9.931  0.00  0.00    -0.100 S 
ENDBRANCH  18  19
ENDBRANCH  15  18
ENDBRANCH   8  10
BRANCH   1  24
ATOM     24  C   UNL     1      -2.822   1.427   2.488  0.00  0.00    -0.036 C 
BRANCH  24  33
ATOM     25  C   UNL     1       1.763   1.523   6.733  0.00  0.00    +0.001 A 
ATOM     26  C   UNL     1       1.441   0.291   7.284  0.00  0.00    +0.004 A 
ATOM     27  C   UNL     1       0.382  -0.443   6.795  0.00  0.00    +0.047 A 
ATOM     28  C   UNL     1      -0.376   0.051   5.740  0.00  0.00    +0.138 A 
ATOM     29  C   UNL     1      -0.049   1.298   5.184  0.00  0.00    +0.064 A 
ATOM     30  C   UNL     1       1.024   2.031   5.687  0.00  0.00    +0.015 A 
ATOM     31  C   UNL     1      -0.869   1.801   4.065  0.00  0.00    +0.194 A 
ATOM     32  O   UNL     1      -0.636   2.876   3.539  0.00  0.00    -0.287 OA
ATOM     33  C   UNL     1      -1.941   0.979   3.626  0.00  0.00    +0.018 A 
ATOM     34  C   UNL     1      -2.169  -0.198   4.236  0.00  0.00    +0.201 A 
ATOM     35  O   UNL     1      -1.418  -0.649   5.246  0.00  0.00    -0.462 OA
ENDBRANCH  24  33
ENDBRANCH   1  24
TORSDOF 5
