REMARK  Name = ZINC12869294
REMARK  2 active torsions:
REMARK  status: ('A' for Active; 'I' for Inactive)
REMARK    1  A    between atoms: C_6  and  C_11
REMARK    2  A    between atoms: C_11  and  C_12
REMARK                            x       y       z     vdW  Elec       q    Type
REMARK                         _______ _______ _______ _____ _____    ______ ____
ROOT
ATOM      1  C   UNL     1       1.050   7.942   1.453  0.00  0.00    +0.225 C 
ATOM      2  O   UNL     1       1.069   7.149   2.371  0.00  0.00    -0.275 OA
ATOM      3  N   UNL     1       1.034   9.266   1.706  0.00  0.00    -0.261 N 
ATOM      4  C   UNL     1       1.017  10.248   0.611  0.00  0.00    +0.209 C 
ATOM      5  C   UNL     1       1.953  11.377   0.944  0.00  0.00    +0.235 C 
ATOM      6  O   UNL     1       2.495  11.988   0.049  0.00  0.00    -0.274 OA
ATOM      7  N   UNL     1       2.198  11.716   2.224  0.00  0.00    -0.283 N 
ATOM      8  C   UNL     1       1.624  10.994   3.277  0.00  0.00    +0.055 A 
ATOM      9  C   UNL     1       1.040   9.752   3.023  0.00  0.00    +0.058 A 
ATOM     10  C   UNL     1       0.480   9.022   4.056  0.00  0.00    +0.025 A 
ATOM     11  C   UNL     1       0.497   9.530   5.343  0.00  0.00    +0.002 A 
ATOM     12  C   UNL     1       1.072  10.762   5.597  0.00  0.00    +0.002 A 
ATOM     13  C   UNL     1       1.635  11.496   4.569  0.00  0.00    +0.025 A 
ATOM     14  H   UNL     1       2.779  12.468   2.419  0.00  0.00    +0.155 HD
ENDROOT
BRANCH   1  15
ATOM     15  C   UNL     1       1.044   7.447   0.030  0.00  0.00    +0.131 C 
BRANCH  15  21
ATOM     16  C   UNL     1      -0.013   1.076   0.008  0.00  0.00    +0.001 A 
ATOM     17  C   UNL     1      -1.235   1.746   0.017  0.00  0.00    +0.001 A 
ATOM     18  C   UNL     1      -1.288   3.106   0.030  0.00  0.00    +0.008 A 
ATOM     19  C   UNL     1      -0.096   3.849   0.023  0.00  0.00    -0.018 A 
ATOM     20  C   UNL     1      -0.111   5.254   0.030  0.00  0.00    +0.012 A 
ATOM     21  C   UNL     1       1.064   5.940   0.022  0.00  0.00    -0.038 A 
ATOM     22  C   UNL     1       2.286   5.270   0.008  0.00  0.00    +0.005 A 
ATOM     23  C   UNL     1       2.340   3.910  -0.000  0.00  0.00    +0.009 A 
ATOM     24  C   UNL     1       1.147   3.167   0.008  0.00  0.00    -0.018 A 
ATOM     25  C   UNL     1       1.163   1.762   0.000  0.00  0.00    +0.008 A 
ENDBRANCH  15  21
ENDBRANCH   1  15
TORSDOF 2
