REMARK  Name = ZINC00933757
REMARK  10 active torsions:
REMARK  status: ('A' for Active; 'I' for Inactive)
REMARK    1  A    between atoms: C_5  and  C_7
REMARK    2  A    between atoms: C_7  and  N_8
REMARK    3  A    between atoms: N_8  and  C_9
REMARK    4  A    between atoms: N_8  and  S_16
REMARK    5  A    between atoms: C_9  and  C_10
REMARK    6  A    between atoms: S_16  and  C_19
REMARK    7  A    between atoms: C_22  and  S_25
REMARK    8  A    between atoms: S_25  and  N_28
REMARK    9  A    between atoms: N_28  and  C_29
REMARK   10  A    between atoms: C_29  and  C_30
REMARK                            x       y       z     vdW  Elec       q    Type
REMARK                         _______ _______ _______ _____ _____    ______ ____
ROOT
ATOM      1  S   UNL     1       0.101  -5.310  -4.409  0.00  0.00    +0.061 S 
ATOM      2  O   UNL     1       0.885  -6.070  -3.499  0.00  0.00    -0.153 OA
ATOM      3  O   UNL     1      -1.012  -5.861  -5.100  0.00  0.00    -0.153 OA
ENDROOT
BRANCH   1   4
ATOM      4  C   UNL     1      -0.501  -3.917  -3.514  0.00  0.00    +0.106 A 
ATOM      5  C   UNL     1      -1.588  -3.208  -3.989  0.00  0.00    +0.030 A 
ATOM      6  C   UNL     1      -2.061  -2.115  -3.286  0.00  0.00    +0.030 A 
ATOM      7  C   UNL     1      -1.447  -1.732  -2.108  0.00  0.00    +0.105 A 
ATOM      8  C   UNL     1      -0.357  -2.439  -1.636  0.00  0.00    +0.030 A 
ATOM      9  C   UNL     1       0.113  -3.534  -2.336  0.00  0.00    +0.030 A 
BRANCH   7  10
ATOM     10  S   UNL     1      -2.050  -0.340  -1.213  0.00  0.00    +0.058 S 
ATOM     11  O   UNL     1      -2.735   0.480  -2.150  0.00  0.00    -0.153 OA
ATOM     12  O   UNL     1      -0.966   0.140  -0.430  0.00  0.00    -0.153 OA
BRANCH  10  13
ATOM     13  N   UNL     1      -3.191  -0.898  -0.150  0.00  0.00    -0.187 NA
ATOM     14  H   UNL     1      -4.117  -0.627  -0.246  0.00  0.00    +0.148 HD
BRANCH  13  15
ATOM     15  C   UNL     1      -2.801  -1.802   0.936  0.00  0.00    +0.137 C 
BRANCH  15  16
ATOM     16  C   UNL     1      -3.925  -1.869   1.972  0.00  0.00    +0.134 C 
ATOM     17  C   UNL     1      -3.521  -2.811   3.122  0.00  0.00    +0.035 C 
ATOM     18  C   UNL     1      -3.588  -1.919   4.385  0.00  0.00    +0.031 C 
ATOM     19  C   UNL     1      -4.518  -0.769   3.921  0.00  0.00    +0.160 C 
ATOM     20  O   UNL     1      -4.144  -0.567   2.539  0.00  0.00    -0.375 OA
ENDBRANCH  15  16
ENDBRANCH  13  15
ENDBRANCH  10  13
ENDBRANCH   7  10
ENDBRANCH   1   4
BRANCH   1  21
ATOM     21  N   UNL     1       1.140  -4.738  -5.565  0.00  0.00    -0.170 NA
BRANCH  21  22
ATOM     22  C   UNL     1       0.618  -4.264  -6.849  0.00  0.00    +0.146 C 
BRANCH  22  27
ATOM     23  C   UNL     1       0.314  -7.176  -9.232  0.00  0.00    +0.000 A 
ATOM     24  C   UNL     1       1.525  -7.117  -9.897  0.00  0.00    +0.001 A 
ATOM     25  C   UNL     1       2.444  -6.136  -9.575  0.00  0.00    +0.020 A 
ATOM     26  C   UNL     1       2.148  -5.208  -8.591  0.00  0.00    +0.045 A 
ATOM     27  C   UNL     1       0.938  -5.270  -7.924  0.00  0.00    -0.013 A 
ATOM     28  C   UNL     1       0.021  -6.253  -8.246  0.00  0.00    +0.006 A 
ATOM     29 CL   UNL     1       3.298  -3.970  -8.192  0.00  0.00    -0.083 Cl
ENDBRANCH  22  27
ENDBRANCH  21  22
BRANCH  21  30
ATOM     30  C   UNL     1       2.581  -4.706  -5.303  0.00  0.00    +0.141 C 
BRANCH  30  31
ATOM     31  C   UNL     1       3.222  -5.997  -5.815  0.00  0.00    +0.134 C 
ATOM     32  C   UNL     1       4.736  -5.980  -5.530  0.00  0.00    +0.035 C 
ATOM     33  C   UNL     1       4.971  -7.236  -4.655  0.00  0.00    +0.031 C 
ATOM     34  C   UNL     1       3.727  -8.099  -4.985  0.00  0.00    +0.160 C 
ATOM     35  O   UNL     1       2.668  -7.127  -5.119  0.00  0.00    -0.375 OA
ENDBRANCH  30  31
ENDBRANCH  21  30
ENDBRANCH   1  21
TORSDOF 10
