REMARK  Name = ZINC26188263
REMARK  12 active torsions:
REMARK  status: ('A' for Active; 'I' for Inactive)
REMARK    1  A    between atoms: C_1  and  C_2
REMARK    2  A    between atoms: C_2  and  O_3
REMARK    3  A    between atoms: O_3  and  C_4
REMARK    4  A    between atoms: C_7  and  C_10
REMARK    5  A    between atoms: C_10  and  N_11
REMARK    6  A    between atoms: N_11  and  C_12
REMARK    7  A    between atoms: N_11  and  C_13
REMARK    8  A    between atoms: C_13  and  C_15
REMARK    9  A    between atoms: C_13  and  C_16
REMARK   10  A    between atoms: N_18  and  C_19
REMARK   11  A    between atoms: C_22  and  N_26
REMARK   12  A    between atoms: C_24  and  C_25
REMARK                            x       y       z     vdW  Elec       q    Type
REMARK                         _______ _______ _______ _____ _____    ______ ____
ROOT
ATOM      1  C   UNL     1       3.744  -0.963   0.178  0.00  0.00    +0.016 C 
ATOM      2  C   UNL     1       4.583  -0.665  -1.066  0.00  0.00    -0.004 C 
ENDROOT
BRANCH   1   3
ATOM      3  C   UNL     1       2.426  -0.238   0.080  0.00  0.00    +0.203 C 
ATOM      4  O   UNL     1       1.388  -0.864   0.087  0.00  0.00    -0.277 OA
ATOM      5  N   UNL     1       2.403   1.107  -0.015  0.00  0.00    -0.287 N 
ATOM      6  H   UNL     1       3.345   1.669  -0.095  0.00  0.00    +0.155 HD
BRANCH   5   7
ATOM      7  C   UNL     1       1.180   1.787  -0.010  0.00  0.00    +0.036 A 
ATOM      8  C   UNL     1       0.064   1.216  -0.609  0.00  0.00    +0.026 A 
ATOM      9  C   UNL     1      -1.140   1.891  -0.608  0.00  0.00    +0.034 A 
ATOM     10  C   UNL     1      -1.238   3.131  -0.002  0.00  0.00    +0.127 A 
ATOM     11  C   UNL     1      -0.130   3.702   0.595  0.00  0.00    +0.038 A 
ATOM     12  C   UNL     1       1.079   3.034   0.592  0.00  0.00    -0.027 A 
ATOM     13  C   UNL     1       2.287   3.656   1.243  0.00  0.00    +0.046 C 
BRANCH  10  14
ATOM     14  N   UNL     1      -2.532   3.851   0.002  0.00  0.00    +0.056 N 
ATOM     15  O   UNL     1      -2.619   4.944   0.531  0.00  0.00    -0.126 OA
ATOM     16  O   UNL     1      -3.510   3.349  -0.523  0.00  0.00    -0.126 OA
ENDBRANCH  10  14
ENDBRANCH   5   7
ENDBRANCH   1   3
BRANCH   1  17
ATOM     17  N   UNL     1       3.501  -2.409   0.270  0.00  0.00    +0.388 N 
ATOM     18  C   UNL     1       2.910  -2.924  -0.972  0.00  0.00    -0.095 C 
ATOM     19  H   UNL     1       2.781  -2.579   1.083  0.00  0.00    -0.081 HD
BRANCH  17  20
ATOM     20  C   UNL     1       4.737  -3.130   0.603  0.00  0.00    -0.042 C 
BRANCH  20  24
ATOM     21  C   UNL     1       3.808  -7.197   1.529  0.00  0.00    +0.121 A 
ATOM     22  C   UNL     1       4.098  -6.831   0.223  0.00  0.00    +0.046 A 
ATOM     23  C   UNL     1       4.399  -5.515  -0.074  0.00  0.00    +0.005 A 
ATOM     24  C   UNL     1       4.409  -4.564   0.930  0.00  0.00    -0.064 A 
ATOM     25  C   UNL     1       4.126  -4.928   2.233  0.00  0.00    +0.005 A 
ATOM     26  C   UNL     1       3.820  -6.241   2.534  0.00  0.00    +0.046 A 
BRANCH  21  27
ATOM     27  O   UNL     1       3.512  -8.490   1.823  0.00  0.00    -0.492 OA
BRANCH  27  29
ATOM     28  C   UNL     1       2.916 -10.288   3.325  0.00  0.00    +0.048 C 
ATOM     29  C   UNL     1       3.223  -8.795   3.189  0.00  0.00    +0.225 C 
ENDBRANCH  27  29
ENDBRANCH  21  27
ENDBRANCH  20  24
ENDBRANCH  17  20
ENDBRANCH   1  17
TORSDOF 8
