REMARK  Name = ZINC39480690
REMARK  7 active torsions:
REMARK  status: ('A' for Active; 'I' for Inactive)
REMARK    1  A    between atoms: C_4  and  C_7
REMARK    2  A    between atoms: C_7  and  C_8
REMARK    3  A    between atoms: C_11  and  N_28
REMARK    4  A    between atoms: C_12  and  N_14
REMARK    5  A    between atoms: C_18  and  C_21
REMARK    6  A    between atoms: C_26  and  O_27
REMARK    7  A    between atoms: N_28  and  S_29
REMARK                            x       y       z     vdW  Elec       q    Type
REMARK                         _______ _______ _______ _____ _____    ______ ____
ROOT
ATOM      1  C   UNL     1       4.164  -0.959   1.377  0.00  0.00    -0.041 A 
ATOM      2  C   UNL     1       4.952  -0.026   2.026  0.00  0.00    +0.006 A 
ATOM      3  C   UNL     1       5.371  -0.252   3.324  0.00  0.00    +0.027 A 
ATOM      4  C   UNL     1       5.002  -1.416   3.979  0.00  0.00    +0.071 A 
ATOM      5  C   UNL     1       4.207  -2.357   3.326  0.00  0.00    +0.053 A 
ATOM      6  C   UNL     1       3.787  -2.121   2.025  0.00  0.00    +0.029 A 
ENDROOT
BRANCH   5   7
ATOM      7  N   UNL     1       3.830  -3.535   3.982  0.00  0.00    -0.331 N 
ATOM      8  C   UNL     1       2.587  -3.600   4.766  0.00  0.00    +0.086 C 
ATOM      9  C   UNL     1       1.796  -4.835   4.322  0.00  0.00    -0.063 C 
ATOM     10  N   UNL     1       2.647  -6.027   4.435  0.00  0.00    +0.386 N 
ATOM     11  C   UNL     1       3.777  -5.925   3.503  0.00  0.00    -0.020 C 
ATOM     12  C   UNL     1       4.663  -4.745   3.902  0.00  0.00    +0.094 C 
ATOM     13  H   UNL     1       2.997  -6.101   5.378  0.00  0.00    -0.085 HD
ATOM     14  H   UNL     1       2.104  -6.848   4.215  0.00  0.00    -0.085 HD
BRANCH  11  15
ATOM     15  C   UNL     1       4.582  -7.198   3.547  0.00  0.00    -0.018 A 
ATOM     16  C   UNL     1       4.474  -8.046   4.632  0.00  0.00    +0.005 A 
ATOM     17  C   UNL     1       5.212  -9.214   4.674  0.00  0.00    +0.000 A 
ATOM     18  C   UNL     1       6.061  -9.537   3.631  0.00  0.00    +0.004 A 
ATOM     19  C   UNL     1       6.172  -8.692   2.544  0.00  0.00    +0.045 A 
ATOM     20  C   UNL     1       5.428  -7.522   2.497  0.00  0.00    +0.118 A 
BRANCH  20  21
ATOM     21  O   UNL     1       5.531  -6.692   1.426  0.00  0.00    -0.507 OA
ATOM     22  H   UNL     1       6.221  -6.020   1.514  0.00  0.00    +0.292 HD
ENDBRANCH  20  21
ENDBRANCH  11  15
ENDBRANCH   5   7
BRANCH   4  23
ATOM     23  N   UNL     1       5.425  -1.647   5.294  0.00  0.00    -0.193 N 
ATOM     24  H   UNL     1       5.635  -2.548   5.585  0.00  0.00    +0.176 HD
BRANCH  23  25
ATOM     25  S   UNL     1       5.569  -0.381   6.352  0.00  0.00    +0.194 S 
ATOM     26  O   UNL     1       6.136  -0.918   7.579  0.00  0.00    -0.124 OA
ATOM     27  O   UNL     1       6.449   0.594   5.727  0.00  0.00    -0.124 OA
ATOM     28  O   UNL     1       4.230   0.151   6.559  0.00  0.00    -0.029 OA
ENDBRANCH  23  25
ENDBRANCH   4  23
BRANCH   1  29
ATOM     29  C   UNL     1       3.711  -0.707  -0.038  0.00  0.00    +0.070 C 
BRANCH  29  33
ATOM     30  C   UNL     1      -0.017   1.378   0.010  0.00  0.00    +0.000 A 
ATOM     31  C   UNL     1       1.171   2.086   0.002  0.00  0.00    +0.000 A 
ATOM     32  C   UNL     1       2.377   1.411  -0.013  0.00  0.00    +0.004 A 
ATOM     33  C   UNL     1       2.396   0.029  -0.020  0.00  0.00    -0.043 A 
ATOM     34  C   UNL     1       1.208  -0.679  -0.012  0.00  0.00    +0.004 A 
ATOM     35  C   UNL     1       0.002  -0.004   0.002  0.00  0.00    +0.000 A 
ENDBRANCH  29  33
ENDBRANCH   1  29
TORSDOF 7
