REMARK  Name = ZINC56399327
REMARK  4 active torsions:
REMARK  status: ('A' for Active; 'I' for Inactive)
REMARK    1  A    between atoms: C_10  and  C_11
REMARK    2  A    between atoms: C_11  and  C_12
REMARK    3  A    between atoms: C_12  and  N_13
REMARK    4  A    between atoms: C_19  and  N_22
REMARK                            x       y       z     vdW  Elec       q    Type
REMARK                         _______ _______ _______ _____ _____    ______ ____
ROOT
ATOM      1  N   UNL     1       6.604   1.277   1.380  0.00  0.00    -0.299 N 
ATOM      2  C   UNL     1       7.141   1.706   2.540  0.00  0.00    +0.302 C 
ATOM      3  O   UNL     1       6.538   1.548   3.584  0.00  0.00    -0.253 OA
ATOM      4  N   UNL     1       8.345   2.311   2.542  0.00  0.00    -0.286 N 
ATOM      5  C   UNL     1       9.033   2.614   1.279  0.00  0.00    +0.111 C 
ATOM      6  C   UNL     1      10.443   2.016   1.330  0.00  0.00    +0.041 C 
ATOM      7  C   UNL     1      11.165   2.529   2.578  0.00  0.00    +0.081 C 
ATOM      8  C   UNL     1      10.406   2.082   3.829  0.00  0.00    +0.041 C 
ATOM      9  C   UNL     1       8.993   2.685   3.806  0.00  0.00    +0.111 C 
ATOM     10  H   UNL     1       7.049   1.468   0.540  0.00  0.00    +0.150 HD
ENDROOT
BRANCH   7  11
ATOM     11  N   UNL     1      12.525   1.986   2.612  0.00  0.00    -0.281 N 
ATOM     12  C   UNL     1      13.761   2.783   2.616  0.00  0.00    +0.128 C 
ATOM     13  C   UNL     1      14.882   1.726   2.657  0.00  0.00    +0.124 C 
ATOM     14  N   UNL     1      14.158   0.446   2.672  0.00  0.00    -0.298 N 
ATOM     15  C   UNL     1      12.840   0.685   2.650  0.00  0.00    +0.303 C 
ATOM     16  O   UNL     1      12.006  -0.200   2.661  0.00  0.00    -0.253 OA
ATOM     17  H   UNL     1      14.570  -0.432   2.697  0.00  0.00    +0.150 HD
ENDBRANCH   7  11
BRANCH   1  18
ATOM     18  C   UNL     1       5.348   0.522   1.389  0.00  0.00    +0.110 C 
BRANCH  18  19
ATOM     19  C   UNL     1       4.962   0.158  -0.045  0.00  0.00    +0.054 C 
BRANCH  19  29
ATOM     20  C   UNL     1      -0.016   1.349   0.010  0.00  0.00    +0.001 A 
ATOM     21  C   UNL     1       1.168   2.084   0.002  0.00  0.00    +0.001 A 
ATOM     22  C   UNL     1       2.379   1.462  -0.013  0.00  0.00    +0.009 A 
ATOM     23  C   UNL     1       2.439   0.058  -0.021  0.00  0.00    -0.015 A 
ATOM     24  C   UNL     1       1.235  -0.690  -0.013  0.00  0.00    -0.018 A 
ATOM     25  C   UNL     1       0.004  -0.012   0.003  0.00  0.00    +0.008 A 
ATOM     26  C   UNL     1       1.296  -2.093  -0.020  0.00  0.00    +0.008 A 
ATOM     27  C   UNL     1       2.507  -2.715  -0.035  0.00  0.00    +0.001 A 
ATOM     28  C   UNL     1       3.691  -1.980  -0.042  0.00  0.00    +0.004 A 
ATOM     29  C   UNL     1       3.670  -0.619  -0.036  0.00  0.00    -0.038 A 
ENDBRANCH  19  29
ENDBRANCH  18  19
ENDBRANCH   1  18
TORSDOF 4
