REMARK  Name = ZINC07737688
REMARK  3 active torsions:
REMARK  status: ('A' for Active; 'I' for Inactive)
REMARK    1  A    between atoms: N_12  and  C_16
REMARK    2  A    between atoms: C_16  and  C_17
REMARK    3  A    between atoms: C_17  and  C_19
REMARK                            x       y       z     vdW  Elec       q    Type
REMARK                         _______ _______ _______ _____ _____    ______ ____
ROOT
ATOM      1  C   UNL     1       5.101  -9.672   2.033  0.00  0.00    +0.000 A 
ATOM      2  C   UNL     1       4.962  -8.349   1.656  0.00  0.00    +0.000 A 
ATOM      3  C   UNL     1       3.752  -7.894   1.171  0.00  0.00    +0.006 A 
ATOM      4  C   UNL     1       2.674  -8.757   1.060  0.00  0.00    -0.012 A 
ATOM      5  C   UNL     1       2.814 -10.082   1.439  0.00  0.00    -0.042 A 
ATOM      6  C   UNL     1       4.029 -10.535   1.925  0.00  0.00    +0.004 A 
ATOM      7  C   UNL     1       1.507 -10.817   1.225  0.00  0.00    +0.038 C 
ATOM      8  C   UNL     1       0.438  -9.711   1.078  0.00  0.00    +0.045 C 
ATOM      9  C   UNL     1       1.269  -8.524   0.573  0.00  0.00    +0.138 C 
ATOM     10  C   UNL     1       0.716  -7.216   1.075  0.00  0.00    +0.251 C 
ATOM     11  O   UNL     1       0.577  -6.870   2.229  0.00  0.00    -0.272 OA
ATOM     12  N   UNL     1       0.406  -6.512  -0.035  0.00  0.00    -0.216 N 
ATOM     13  C   UNL     1       0.686  -7.201  -1.149  0.00  0.00    +0.310 C 
ATOM     14  O   UNL     1       0.490  -6.779  -2.272  0.00  0.00    -0.252 OA
ATOM     15  N   UNL     1       1.211  -8.414  -0.885  0.00  0.00    -0.281 N 
ATOM     16  H   UNL     1       1.491  -9.082  -1.531  0.00  0.00    +0.152 HD
ENDROOT
BRANCH  12  17
ATOM     17  C   UNL     1      -0.169  -5.165  -0.023  0.00  0.00    +0.197 C 
BRANCH  17  18
ATOM     18  C   UNL     1       0.941  -4.145  -0.028  0.00  0.00    +0.181 C 
ATOM     19  O   UNL     1       2.098  -4.508  -0.041  0.00  0.00    -0.290 OA
BRANCH  18  20
ATOM     20  C   UNL     1       0.620  -2.708  -0.017  0.00  0.00    +0.020 A 
ATOM     21  C   UNL     1      -0.715  -2.288  -0.002  0.00  0.00    +0.012 A 
ATOM     22  C   UNL     1      -1.012  -0.941   0.007  0.00  0.00    +0.005 A 
ATOM     23  C   UNL     1       0.002  -0.004   0.002  0.00  0.00    -0.035 A 
ATOM     24  C   UNL     1       1.337  -0.405  -0.013  0.00  0.00    -0.013 A 
ATOM     25  C   UNL     1       1.646  -1.763  -0.023  0.00  0.00    +0.020 A 
ATOM     26  C   UNL     1       2.212   0.794  -0.015  0.00  0.00    -0.014 A 
ATOM     27  C   UNL     1       3.603   0.917  -0.027  0.00  0.00    +0.009 A 
ATOM     28  C   UNL     1       4.184   2.168  -0.025  0.00  0.00    +0.001 A 
ATOM     29  C   UNL     1       3.394   3.304  -0.012  0.00  0.00    +0.000 A 
ATOM     30  C   UNL     1       2.015   3.189  -0.001  0.00  0.00    +0.004 A 
ATOM     31  C   UNL     1       1.426   1.943  -0.001  0.00  0.00    -0.035 A 
ATOM     32  C   UNL     1      -0.018   1.506   0.010  0.00  0.00    +0.071 C 
ENDBRANCH  18  20
ENDBRANCH  17  18
ENDBRANCH  12  17
TORSDOF 3
