REMARK  Name = ZINC36161497
REMARK  6 active torsions:
REMARK  status: ('A' for Active; 'I' for Inactive)
REMARK    1  A    between atoms: C_1  and  C_2
REMARK    2  A    between atoms: C_2  and  C_3
REMARK    3  A    between atoms: C_2  and  C_4
REMARK    4  A    between atoms: C_2  and  C_5
REMARK    5  A    between atoms: C_9  and  C_22
REMARK    6  A    between atoms: C_11  and  N_14
REMARK                            x       y       z     vdW  Elec       q    Type
REMARK                         _______ _______ _______ _____ _____    ______ ____
ROOT
ATOM      1  C   UNL     1       0.762  -0.497  -1.186  0.00  0.00    -0.004 C 
ATOM      2  C   UNL     1      -0.019   0.009  -2.401  0.00  0.00    +0.005 C 
ATOM      3  C   UNL     1       0.655  -0.485  -3.682  0.00  0.00    +0.020 C 
ATOM      4  C   UNL     1       2.089   0.045  -3.741  0.00  0.00    +0.109 C 
ATOM      5  C   UNL     1       2.870  -0.461  -2.526  0.00  0.00    +0.074 C 
ATOM      6  C   UNL     1       2.196   0.033  -1.245  0.00  0.00    +0.024 C 
ENDROOT
BRANCH   5   7
ATOM      7  N   UNL     1       2.890  -1.930  -2.534  0.00  0.00    -0.295 NA
ATOM      8  C   UNL     1       3.921  -2.436  -3.443  0.00  0.00    +0.107 C 
ATOM      9  C   UNL     1       3.647  -3.907  -3.774  0.00  0.00    +0.181 C 
ATOM     10  S   UNL     1       3.734  -4.872  -2.234  0.00  0.00    -0.029 S 
ATOM     11  O   UNL     1       3.169  -6.154  -2.470  0.00  0.00    -0.174 OA
ATOM     12  O   UNL     1       5.054  -4.780  -1.716  0.00  0.00    -0.174 OA
ATOM     13  C   UNL     1       2.615  -3.936  -1.149  0.00  0.00    +0.181 C 
ATOM     14  C   UNL     1       3.029  -2.461  -1.176  0.00  0.00    +0.107 C 
ENDBRANCH   5   7
BRANCH   1  16
ATOM     15  C   UNL     1       0.067   1.526   0.104  0.00  0.00    +0.011 C 
ATOM     16  C   UNL     1       0.087  -0.003   0.096  0.00  0.00    -0.035 C 
ATOM     17  C   UNL     1       0.868  -0.510   1.310  0.00  0.00    +0.011 C 
ATOM     18  C   UNL     1      -1.347  -0.533   0.154  0.00  0.00    +0.011 C 
ENDBRANCH   1  16
BRANCH   4  19
ATOM     19  C   UNL     1       2.737  -0.430  -4.974  0.00  0.00    +0.067 C 
ATOM     20  N   UNL     1       3.238  -0.797  -5.926  0.00  0.00    -0.196 NA
ENDBRANCH   4  19
TORSDOF 3
