REMARK  Name = ZINC35555280
REMARK  4 active torsions:
REMARK  status: ('A' for Active; 'I' for Inactive)
REMARK    1  A    between atoms: C_6  and  N_7
REMARK    2  A    between atoms: C_14  and  N_32
REMARK    3  A    between atoms: C_18  and  C_23
REMARK    4  A    between atoms: N_25  and  C_26
REMARK                            x       y       z     vdW  Elec       q    Type
REMARK                         _______ _______ _______ _____ _____    ______ ____
ROOT
ATOM      1  N   UNL     1      -1.198  -0.721   0.010  0.00  0.00    -0.327 N 
ATOM      2  C   UNL     1      -2.462  -0.003   0.131  0.00  0.00    +0.124 C 
ATOM      3  C   UNL     1      -3.303  -0.581   1.253  0.00  0.00    +0.124 C 
ATOM      4  N   UNL     1      -3.215  -2.026   1.360  0.00  0.00    -0.323 N 
ATOM      5  C   UNL     1      -4.175  -2.693   2.149  0.00  0.00    +0.033 A 
ATOM      6  C   UNL     1      -5.388  -2.068   2.406  0.00  0.00    +0.025 A 
ATOM      7  C   UNL     1      -6.336  -2.701   3.186  0.00  0.00    +0.034 A 
ATOM      8  C   UNL     1      -6.070  -3.954   3.708  0.00  0.00    +0.127 A 
ATOM      9  C   UNL     1      -4.865  -4.576   3.449  0.00  0.00    +0.038 A 
ATOM     10  C   UNL     1      -3.909  -3.952   2.661  0.00  0.00    -0.023 A 
ATOM     11  C   UNL     1      -2.620  -4.680   2.383  0.00  0.00    +0.051 C 
ATOM     12  C   UNL     1      -1.550  -3.719   1.858  0.00  0.00    +0.101 C 
ATOM     13  C   UNL     1      -2.180  -2.852   0.769  0.00  0.00    +0.103 C 
ATOM     14  C   UNL     1      -1.168  -2.170  -0.108  0.00  0.00    +0.128 C 
ENDROOT
BRANCH   1  20
ATOM     15  C   UNL     1       1.215  -0.680   0.000  0.00  0.00    +0.026 A 
ATOM     16  C   UNL     1       2.400   0.030  -0.008  0.00  0.00    +0.040 A 
ATOM     17  C   UNL     1       2.379   1.414  -0.015  0.00  0.00    +0.124 A 
ATOM     18  C   UNL     1       1.170   2.090  -0.013  0.00  0.00    +0.040 A 
ATOM     19  C   UNL     1      -0.017   1.385  -0.004  0.00  0.00    +0.026 A 
ATOM     20  C   UNL     1       0.002  -0.004   0.002  0.00  0.00    +0.030 A 
ATOM     21  F   UNL     1       3.539   2.107  -0.023  0.00  0.00    -0.205 F 
ENDBRANCH   1  20
BRANCH  12  22
ATOM     22  C   UNL     1      -1.056  -2.844   2.982  0.00  0.00    +0.218 C 
ATOM     23  O   UNL     1      -1.174  -1.639   2.910  0.00  0.00    -0.275 OA
ATOM     24  N   UNL     1      -0.484  -3.401   4.067  0.00  0.00    -0.312 N 
ATOM     25  H   UNL     1      -0.390  -4.365   4.125  0.00  0.00    +0.149 HD
BRANCH  24  26
ATOM     26  C   UNL     1      -0.004  -2.552   5.160  0.00  0.00    +0.073 C 
ATOM     27  C   UNL     1       1.412  -2.066   4.844  0.00  0.00    +0.022 C 
ATOM     28  C   UNL     1       1.913  -1.178   5.985  0.00  0.00    +0.002 C 
ATOM     29  C   UNL     1       1.929  -1.982   7.287  0.00  0.00    +0.000 C 
ATOM     30  C   UNL     1       0.513  -2.467   7.603  0.00  0.00    +0.002 C 
ATOM     31  C   UNL     1       0.011  -3.355   6.462  0.00  0.00    +0.022 C 
ENDBRANCH  24  26
ENDBRANCH  12  22
BRANCH   8  32
ATOM     32  N   UNL     1      -7.082  -4.631   4.549  0.00  0.00    +0.056 N 
ATOM     33  O   UNL     1      -8.138  -4.089   4.778  0.00  0.00    -0.126 OA
ATOM     34  O   UNL     1      -6.853  -5.727   5.006  0.00  0.00    -0.126 OA
ENDBRANCH   8  32
TORSDOF 4
