REMARK  Name = ZINC02356632
REMARK  3 active torsions:
REMARK  status: ('A' for Active; 'I' for Inactive)
REMARK    1  A    between atoms: C_1  and  C_2
REMARK    2  A    between atoms: C_16  and  C_18
REMARK    3  A    between atoms: C_21  and  O_24
REMARK                            x       y       z     vdW  Elec       q    Type
REMARK                         _______ _______ _______ _____ _____    ______ ____
ROOT
ATOM      1  C   UNL     1      -2.578   3.852   0.048  0.00  0.00    +0.044 C 
ATOM      2  C   UNL     1      -1.251   3.137   0.031  0.00  0.00    -0.050 A 
ATOM      3  C   UNL     1      -1.214   1.750   0.017  0.00  0.00    +0.007 A 
ATOM      4  C   UNL     1      -0.013   1.076   0.008  0.00  0.00    +0.047 A 
ATOM      5  C   UNL     1       1.183   1.790   0.000  0.00  0.00    +0.139 A 
ATOM      6  C   UNL     1       1.135   3.194   0.008  0.00  0.00    +0.065 A 
ATOM      7  C   UNL     1      -0.090   3.859   0.024  0.00  0.00    +0.018 A 
ATOM      8  C   UNL     1       2.413   3.933  -0.000  0.00  0.00    +0.199 A 
ATOM      9  O   UNL     1       2.448   5.151   0.006  0.00  0.00    -0.287 OA
ATOM     10  C   UNL     1       3.638   3.128  -0.017  0.00  0.00    +0.072 A 
ATOM     11  C   UNL     1       3.556   1.775  -0.024  0.00  0.00    +0.199 A 
ATOM     12  O   UNL     1       2.364   1.147  -0.015  0.00  0.00    -0.450 OA
ATOM     13  C   UNL     1       4.935   1.224  -0.041  0.00  0.00    +0.281 C 
ATOM     14  O   UNL     1       5.210   0.041  -0.050  0.00  0.00    -0.267 OA
ATOM     15  N   UNL     1       5.834   2.223  -0.044  0.00  0.00    -0.298 N 
ATOM     16  C   UNL     1       5.099   3.494  -0.030  0.00  0.00    +0.141 C 
ATOM     17  H   UNL     1       6.799   2.122  -0.054  0.00  0.00    +0.150 HD
ENDROOT
BRANCH  16  18
ATOM     18  C   UNL     1       5.423   4.296  -1.264  0.00  0.00    -0.022 A 
ATOM     19  C   UNL     1       5.622   3.654  -2.472  0.00  0.00    +0.009 A 
ATOM     20  C   UNL     1       5.913   4.388  -3.606  0.00  0.00    +0.046 A 
ATOM     21  C   UNL     1       6.017   5.769  -3.529  0.00  0.00    +0.117 A 
ATOM     22  C   UNL     1       5.822   6.410  -2.315  0.00  0.00    +0.046 A 
ATOM     23  C   UNL     1       5.526   5.673  -1.185  0.00  0.00    +0.009 A 
BRANCH  21  24
ATOM     24  O   UNL     1       6.308   6.492  -4.642  0.00  0.00    -0.507 OA
ATOM     25  H   UNL     1       7.254   6.628  -4.787  0.00  0.00    +0.292 HD
ENDBRANCH  21  24
ENDBRANCH  16  18
TORSDOF 2
