REMARK  Name = ZINC62261359
REMARK  6 active torsions:
REMARK  status: ('A' for Active; 'I' for Inactive)
REMARK    1  A    between atoms: C_1  and  N_2
REMARK    2  A    between atoms: N_2  and  C_3
REMARK    3  A    between atoms: N_2  and  C_4
REMARK    4  A    between atoms: C_7  and  N_10
REMARK    5  A    between atoms: C_11  and  C_17
REMARK    6  A    between atoms: C_12  and  C_15
REMARK                            x       y       z     vdW  Elec       q    Type
REMARK                         _______ _______ _______ _____ _____    ______ ____
ROOT
ATOM      1  N   UNL     1      -0.006  -2.762  -4.836  0.00  0.00    -0.211 N 
ATOM      2  C   UNL     1      -0.642  -2.390  -5.987  0.00  0.00    +0.114 A 
ATOM      3  C   UNL     1      -0.360  -3.381  -6.922  0.00  0.00    +0.190 A 
ATOM      4  N   UNL     1       0.417  -4.303  -6.332  0.00  0.00    -0.118 NA
ATOM      5  N   UNL     1       0.649  -3.970  -5.112  0.00  0.00    -0.059 NA
ENDROOT
BRANCH   1   9
ATOM      6  C   UNL     1       0.000  -0.696  -1.212  0.00  0.00    +0.029 A 
ATOM      7  C   UNL     1       0.013  -2.086  -1.220  0.00  0.00    +0.025 A 
ATOM      8  C   UNL     1       0.011  -2.769  -2.419  0.00  0.00    +0.029 A 
ATOM      9  C   UNL     1      -0.005  -2.068  -3.618  0.00  0.00    +0.068 A 
ATOM     10  C   UNL     1      -0.018  -0.679  -3.610  0.00  0.00    +0.029 A 
ATOM     11  C   UNL     1      -0.021   0.005  -2.412  0.00  0.00    +0.025 A 
BRANCH   6  13
ATOM     12  C   UNL     1      -0.018   1.461   0.010  0.00  0.00    +0.129 C 
ATOM     13  N   UNL     1       0.002  -0.004   0.002  0.00  0.00    -0.336 N 
ATOM     14  C   UNL     1       0.024  -0.743   1.267  0.00  0.00    +0.129 C 
ENDBRANCH   6  13
ENDBRANCH   1   9
BRANCH   2  15
ATOM     15  C   UNL     1      -1.463  -1.180  -6.196  0.00  0.00    +0.021 A 
ATOM     16  C   UNL     1      -1.308  -0.405  -7.352  0.00  0.00    +0.013 A 
ATOM     17  C   UNL     1      -2.101   0.718  -7.500  0.00  0.00    +0.020 A 
ATOM     18  C   UNL     1      -3.014   1.038  -6.510  0.00  0.00    +0.111 A 
ATOM     19  N   UNL     1      -3.139   0.289  -5.431  0.00  0.00    -0.263 NA
ATOM     20  C   UNL     1      -2.410  -0.793  -5.247  0.00  0.00    +0.120 A 
ENDBRANCH   2  15
BRANCH   3  21
ATOM     21  C   UNL     1      -0.820  -3.411  -8.278  0.00  0.00    +0.123 C 
ATOM     22  N   UNL     1      -1.185  -3.436  -9.353  0.00  0.00    -0.189 NA
ENDBRANCH   3  21
TORSDOF 4
