REMARK  Name = ZINC05280280
REMARK  4 active torsions:
REMARK  status: ('A' for Active; 'I' for Inactive)
REMARK    1  A    between atoms: C_7  and  C_12
REMARK    2  A    between atoms: C_12  and  N_23
REMARK    3  A    between atoms: C_13  and  N_14
REMARK    4  A    between atoms: N_14  and  C_15
REMARK                            x       y       z     vdW  Elec       q    Type
REMARK                         _______ _______ _______ _____ _____    ______ ____
ROOT
ATOM      1  C   UNL     1      -1.301   7.235   0.153  0.00  0.00    +0.162 C 
ATOM      2  C   UNL     1      -1.304   5.954  -0.166  0.00  0.00    +0.104 C 
ENDROOT
BRANCH   1   9
ATOM      3  C   UNL     1      -2.399   8.390   4.350  0.00  0.00    +0.000 A 
ATOM      4  C   UNL     1      -2.536   9.768   4.351  0.00  0.00    +0.001 A 
ATOM      5  C   UNL     1      -2.678  10.454   3.163  0.00  0.00    +0.015 A 
ATOM      6  C   UNL     1      -2.683   9.755   1.954  0.00  0.00    +0.066 A 
ATOM      7  C   UNL     1      -2.544   8.364   1.965  0.00  0.00    +0.013 A 
ATOM      8  C   UNL     1      -2.404   7.690   3.156  0.00  0.00    +0.008 A 
ATOM      9  C   UNL     1      -2.590   7.922   0.524  0.00  0.00    +0.262 C 
ATOM     10  O   UNL     1      -2.759   9.128  -0.270  0.00  0.00    -0.446 OA
ATOM     11  C   UNL     1      -2.814  10.189   0.551  0.00  0.00    +0.341 C 
ATOM     12  O   UNL     1      -2.951  11.341   0.191  0.00  0.00    -0.245 OA
ENDBRANCH   1   9
BRANCH   1  13
ATOM     13  N   UNL     1      -0.031   7.997   0.146  0.00  0.00    +0.058 N 
ATOM     14  O   UNL     1       1.024   7.421  -0.050  0.00  0.00    -0.126 OA
ATOM     15  O   UNL     1      -0.042   9.200   0.336  0.00  0.00    -0.126 OA
ENDBRANCH   1  13
BRANCH   2  16
ATOM     16  N   UNL     1      -0.152   5.361  -0.670  0.00  0.00    -0.319 N 
ATOM     17  H   UNL     1       0.730   5.978  -0.896  0.00  0.00    +0.152 HD
BRANCH  16  18
ATOM     18  C   UNL     1      -0.116   3.982  -0.889  0.00  0.00    +0.034 A 
ATOM     19  C   UNL     1       1.035   3.388  -1.392  0.00  0.00    +0.043 A 
ATOM     20  C   UNL     1       1.068   2.023  -1.607  0.00  0.00    +0.044 A 
ATOM     21  C   UNL     1      -0.042   1.248  -1.321  0.00  0.00    +0.040 A 
ATOM     22  C   UNL     1      -1.191   1.838  -0.824  0.00  0.00    +0.044 A 
ATOM     23  C   UNL     1      -1.229   3.202  -0.603  0.00  0.00    +0.043 A 
ATOM     24 CL   UNL     1      -2.584   0.863  -0.473  0.00  0.00    -0.083 Cl
ATOM     25 CL   UNL     1       2.505   1.279  -2.237  0.00  0.00    -0.083 Cl
ENDBRANCH  16  18
ENDBRANCH   2  16
TORSDOF 4
