REMARK  Name = ZINC61821158
REMARK  3 active torsions:
REMARK  status: ('A' for Active; 'I' for Inactive)
REMARK    1  A    between atoms: C_1  and  C_2
REMARK    2  A    between atoms: C_2  and  C_19
REMARK    3  A    between atoms: N_12  and  C_13
REMARK                            x       y       z     vdW  Elec       q    Type
REMARK                         _______ _______ _______ _____ _____    ______ ____
ROOT
ATOM      1  C   UNL     1       0.287   1.739   0.759  0.00  0.00    +0.011 C 
ATOM      2  C   UNL     1       0.222   0.224   0.554  0.00  0.00    -0.032 C 
ATOM      3  C   UNL     1      -1.241  -0.223   0.513  0.00  0.00    +0.025 C 
ATOM      4  C   UNL     1      -1.302  -1.735   0.274  0.00  0.00    +0.108 C 
ATOM      5  N   UNL     1      -0.493  -2.409   1.298  0.00  0.00    -0.300 N 
ATOM      6  C   UNL     1       0.903  -1.992   1.482  0.00  0.00    +0.108 C 
ATOM      7  C   UNL     1       0.940  -0.477   1.709  0.00  0.00    +0.025 C 
ATOM      8  C   UNL     1      -1.038  -3.420   2.076  0.00  0.00    +0.218 A 
ATOM      9  N   UNL     1      -2.257  -3.456   2.529  0.00  0.00    -0.137 NA
ATOM     10  N   UNL     1      -2.412  -4.637   3.267  0.00  0.00    -0.253 N 
ATOM     11  C   UNL     1      -1.233  -5.293   3.230  0.00  0.00    +0.177 A 
ATOM     12  N   UNL     1      -0.380  -4.554   2.493  0.00  0.00    -0.288 N 
ATOM     13  S   UNL     1      -0.886  -6.793   3.977  0.00  0.00    -0.011 S 
ATOM     14  C   UNL     1       0.903  -0.141  -0.767  0.00  0.00    +0.011 C 
ATOM     15  H   UNL     1      -3.217  -4.929   3.722  0.00  0.00    +0.191 HD
ENDROOT
BRANCH  12  16
ATOM     16  C   UNL     1       1.011  -4.898   2.190  0.00  0.00    +0.092 C 
ATOM     17  C   UNL     1       1.078  -6.287   1.520  0.00  0.00    +0.025 C 
ATOM     18  C   UNL     1       2.367  -6.924   2.096  0.00  0.00    +0.002 C 
ATOM     19  C   UNL     1       2.358  -6.444   3.568  0.00  0.00    +0.002 C 
ATOM     20  C   UNL     1       1.825  -4.998   3.492  0.00  0.00    +0.025 C 
ENDBRANCH  12  16
TORSDOF 1
