REMARK  Name = ZINC31865487
REMARK  5 active torsions:
REMARK  status: ('A' for Active; 'I' for Inactive)
REMARK    1  A    between atoms: C_1  and  C_2
REMARK    2  A    between atoms: C_8  and  C_25
REMARK    3  A    between atoms: C_12  and  C_13
REMARK    4  A    between atoms: C_17  and  C_24
REMARK    5  A    between atoms: C_20  and  C_23
REMARK                            x       y       z     vdW  Elec       q    Type
REMARK                         _______ _______ _______ _____ _____    ______ ____
ROOT
ATOM      1  C   UNL     1       1.589   1.913   0.976  0.00  0.00    +0.046 C 
ATOM      2  C   UNL     1       0.666   2.264   2.114  0.00  0.00    -0.017 A 
ATOM      3  C   UNL     1       0.490   3.598   2.487  0.00  0.00    +0.076 A 
ATOM      4  C   UNL     1       1.101   4.819   1.913  0.00  0.00    +0.260 A 
ATOM      5  O   UNL     1       1.881   4.747   0.980  0.00  0.00    -0.267 OA
ATOM      6  N   UNL     1       0.772   6.010   2.450  0.00  0.00    -0.311 N 
ATOM      7  H   UNL     1       1.164   6.819   2.086  0.00  0.00    +0.170 HD
ATOM      8  C   UNL     1      -0.095   6.101   3.488  0.00  0.00    +0.108 A 
ATOM      9  N   UNL     1      -0.651   5.046   4.017  0.00  0.00    -0.227 NA
ATOM     10  C   UNL     1      -0.396   3.825   3.565  0.00  0.00    +0.116 A 
ATOM     11  S   UNL     1      -0.934   2.190   4.001  0.00  0.00    -0.064 S 
ATOM     12  C   UNL     1      -0.005   1.279   2.779  0.00  0.00    +0.080 A 
ATOM     13  C   UNL     1      -0.426   7.461   4.048  0.00  0.00    +0.086 C 
ENDROOT
BRANCH  12  14
ATOM     14  C   UNL     1       0.030  -0.168   2.547  0.00  0.00    +0.254 C 
ATOM     15  O   UNL     1      -0.053  -0.606   1.415  0.00  0.00    -0.269 OA
ATOM     16  N   UNL     1       0.153  -1.014   3.589  0.00  0.00    -0.297 N 
ATOM     17  C   UNL     1       0.288  -2.461   3.368  0.00  0.00    +0.111 C 
ATOM     18  C   UNL     1       1.539  -2.957   4.099  0.00  0.00    +0.004 C 
ATOM     19  C   UNL     1       1.458  -2.552   5.572  0.00  0.00    +0.009 C 
ATOM     20  C   UNL     1       1.409  -1.027   5.682  0.00  0.00    +0.004 C 
ATOM     21  C   UNL     1       0.162  -0.507   4.968  0.00  0.00    +0.111 C 
ATOM     22  C   UNL     1       1.362  -0.622   7.157  0.00  0.00    +0.009 C 
ATOM     23  C   UNL     1       2.783  -2.333   3.464  0.00  0.00    +0.009 C 
ENDBRANCH  12  14
TORSDOF 1
