REMARK  Name = ZINC44784430
REMARK  3 active torsions:
REMARK  status: ('A' for Active; 'I' for Inactive)
REMARK    1  A    between atoms: C_10  and  C_12
REMARK    2  A    between atoms: C_12  and  C_18
REMARK    3  A    between atoms: N_19  and  O_20
REMARK                            x       y       z     vdW  Elec       q    Type
REMARK                         _______ _______ _______ _____ _____    ______ ____
ROOT
ATOM      1  C   UNL     1       5.143   1.005  -0.158  0.00  0.00    +0.105 C 
ATOM      2  C   UNL     1       4.317   1.438  -1.371  0.00  0.00    +0.024 C 
ATOM      3  C   UNL     1       4.819   0.706  -2.617  0.00  0.00    +0.001 C 
ATOM      4  C   UNL     1       6.291   1.050  -2.853  0.00  0.00    +0.000 C 
ATOM      5  C   UNL     1       7.117   0.617  -1.640  0.00  0.00    +0.001 C 
ATOM      6  C   UNL     1       6.615   1.349  -0.394  0.00  0.00    +0.024 C 
ENDROOT
BRANCH   1  16
ATOM      7  C   UNL     1       2.584  -4.972   0.761  0.00  0.00    +0.000 A 
ATOM      8  C   UNL     1       3.909  -4.751   0.432  0.00  0.00    +0.002 A 
ATOM      9  C   UNL     1       4.380  -3.465   0.279  0.00  0.00    +0.024 A 
ATOM     10  C   UNL     1       3.525  -2.376   0.455  0.00  0.00    +0.040 A 
ATOM     11  C   UNL     1       2.199  -2.607   0.784  0.00  0.00    -0.024 A 
ATOM     12  C   UNL     1       1.731  -3.898   0.936  0.00  0.00    +0.005 A 
ATOM     13  C   UNL     1       1.496  -1.275   0.916  0.00  0.00    +0.056 C 
ATOM     14  C   UNL     1       2.585  -0.232   0.620  0.00  0.00    +0.118 C 
ATOM     15  N   UNL     1       3.798  -1.008   0.348  0.00  0.00    -0.270 N 
ATOM     16  C   UNL     1       5.000  -0.482   0.042  0.00  0.00    +0.233 C 
ATOM     17  O   UNL     1       5.967  -1.205  -0.074  0.00  0.00    -0.274 OA
ENDBRANCH   1  16
BRANCH   1  18
ATOM     18  C   UNL     1       4.649   1.726   1.069  0.00  0.00    +0.147 C 
ATOM     19  N   UNL     1       5.154   1.453   2.226  0.00  0.00    -0.076 NA
ATOM     20  N   UNL     1       3.658   2.676   0.958  0.00  0.00    -0.343 N 
ATOM     21  H   UNL     1       3.225   2.828   0.103  0.00  0.00    +0.144 HD
ATOM     22  H   UNL     1       3.393   3.194   1.734  0.00  0.00    +0.144 HD
BRANCH  19  23
ATOM     23  O   UNL     1       6.095   0.404   2.358  0.00  0.00    -0.408 OA
ATOM     24  H   UNL     1       6.417   0.275   3.261  0.00  0.00    +0.328 HD
ENDBRANCH  19  23
ENDBRANCH   1  18
TORSDOF 3
