REMARK  Name = ZINC03396609
REMARK  3 active torsions:
REMARK  status: ('A' for Active; 'I' for Inactive)
REMARK    1  A    between atoms: C_5  and  C_7
REMARK    2  A    between atoms: C_10  and  C_12
REMARK    3  A    between atoms: C_12  and  N_13
REMARK                            x       y       z     vdW  Elec       q    Type
REMARK                         _______ _______ _______ _____ _____    ______ ____
ROOT
ATOM      1  N   UNL     1       4.006   0.560  -1.415  0.00  0.00    -0.205 N 
ATOM      2  C   UNL     1       4.086  -0.607  -2.061  0.00  0.00    +0.264 C 
ATOM      3  O   UNL     1       3.654  -1.594  -1.499  0.00  0.00    -0.269 OA
ATOM      4  C   UNL     1       4.655  -0.781  -3.406  0.00  0.00    +0.065 A 
ATOM      5  C   UNL     1       4.469  -1.981  -4.099  0.00  0.00    +0.015 A 
ATOM      6  C   UNL     1       4.984  -2.127  -5.370  0.00  0.00    +0.001 A 
ATOM      7  C   UNL     1       5.686  -1.095  -5.967  0.00  0.00    +0.002 A 
ATOM      8  C   UNL     1       5.882   0.096  -5.286  0.00  0.00    +0.029 A 
ATOM      9  C   UNL     1       5.375   0.248  -4.019  0.00  0.00    +0.119 A 
ATOM     10  S   UNL     1       5.616   1.750  -3.118  0.00  0.00    +0.074 S 
ATOM     11  O   UNL     1       5.394   2.820  -4.026  0.00  0.00    -0.152 OA
ATOM     12  O   UNL     1       6.820   1.605  -2.378  0.00  0.00    -0.152 OA
ATOM     13  N   UNL     1       4.365   1.779  -2.015  0.00  0.00    -0.105 NA
ATOM     14  H   UNL     1       3.904   2.604  -1.797  0.00  0.00    +0.172 HD
ENDROOT
BRANCH   1  15
ATOM     15  C   UNL     1       3.531   0.568  -0.029  0.00  0.00    +0.226 C 
BRANCH  15  19
ATOM     16  C   UNL     1      -0.016   1.308   0.009  0.00  0.00    +0.249 A 
ATOM     17  N   UNL     1       0.002  -0.004   0.002  0.00  0.00    -0.107 NA
ATOM     18  N   UNL     1       1.222  -0.412  -0.012  0.00  0.00    -0.110 NA
ATOM     19  C   UNL     1       2.025   0.616  -0.014  0.00  0.00    +0.236 A 
ATOM     20  O   UNL     1       1.266   1.725  -0.001  0.00  0.00    -0.418 OA
BRANCH  16  25
ATOM     21  C   UNL     1      -2.210   4.356   0.037  0.00  0.00    +0.001 A 
ATOM     22  C   UNL     1      -3.470   3.781   0.040  0.00  0.00    +0.001 A 
ATOM     23  C   UNL     1      -3.609   2.405   0.034  0.00  0.00    +0.016 A 
ATOM     24  C   UNL     1      -2.491   1.595   0.024  0.00  0.00    +0.030 A 
ATOM     25  C   UNL     1      -1.218   2.169   0.020  0.00  0.00    +0.052 A 
ATOM     26  C   UNL     1      -1.085   3.558   0.032  0.00  0.00    +0.014 A 
ATOM     27 BR   UNL     1      -2.683  -0.286   0.016  0.00  0.00    -0.050 Br
ENDBRANCH  16  25
ENDBRANCH  15  19
ENDBRANCH   1  15
TORSDOF 3
