REMARK  Name = ZINC00958829
REMARK  3 active torsions:
REMARK  status: ('A' for Active; 'I' for Inactive)
REMARK    1  A    between atoms: C_1  and  C_2
REMARK    2  A    between atoms: N_13  and  C_16
REMARK    3  A    between atoms: C_16  and  C_17
REMARK                            x       y       z     vdW  Elec       q    Type
REMARK                         _______ _______ _______ _____ _____    ______ ____
ROOT
ATOM      1  C   UNL     1       5.279   3.714   0.059  0.00  0.00    +0.008 C 
ATOM      2  C   UNL     1       3.881   3.170   0.359  0.00  0.00    -0.009 C 
ATOM      3  C   UNL     1       2.843   3.938  -0.464  0.00  0.00    +0.008 C 
ATOM      4  C   UNL     1       1.434   3.577   0.007  0.00  0.00    +0.037 C 
ATOM      5  C   UNL     1       1.287   2.058   0.001  0.00  0.00    -0.023 A 
ATOM      6  C   UNL     1       2.377   1.259  -0.014  0.00  0.00    -0.004 A 
ATOM      7  S   UNL     1       1.735  -0.393  -0.017  0.00  0.00    -0.071 S 
ATOM      8  C   UNL     1       0.002  -0.004   0.002  0.00  0.00    +0.138 A 
ATOM      9  C   UNL     1      -0.017   1.399   0.010  0.00  0.00    +0.079 A 
ATOM     10  C   UNL     1      -1.317   2.008   0.020  0.00  0.00    +0.279 A 
ATOM     11  O   UNL     1      -1.434   3.221   0.027  0.00  0.00    -0.265 OA
ATOM     12  N   UNL     1      -2.405   1.214   0.032  0.00  0.00    -0.201 N 
ATOM     13  N   UNL     1      -2.273  -0.178   0.024  0.00  0.00    -0.061 NA
ATOM     14  N   UNL     1      -1.110  -0.733   0.009  0.00  0.00    -0.123 NA
ATOM     15  C   UNL     1       3.813   1.685  -0.024  0.00  0.00    +0.046 C 
ENDROOT
BRANCH  12  16
ATOM     16  C   UNL     1      -3.740   1.816   0.047  0.00  0.00    +0.244 C 
BRANCH  16  17
ATOM     17  C   UNL     1      -4.212   2.029  -1.369  0.00  0.00    +0.237 C 
ATOM     18  O   UNL     1      -3.502   1.710  -2.299  0.00  0.00    -0.274 OA
ATOM     19  N   UNL     1      -5.422   2.574  -1.601  0.00  0.00    -0.300 N 
ATOM     20  C   UNL     1      -6.382   2.999  -0.572  0.00  0.00    +0.108 C 
ATOM     21  C   UNL     1      -7.630   3.537  -1.303  0.00  0.00    +0.020 C 
ATOM     22  C   UNL     1      -7.536   2.855  -2.694  0.00  0.00    +0.020 C 
ATOM     23  C   UNL     1      -6.005   2.838  -2.929  0.00  0.00    +0.108 C 
ENDBRANCH  16  17
ENDBRANCH  12  16
TORSDOF 2
