REMARK  Name = ZINC00124168
REMARK  2 active torsions:
REMARK  status: ('A' for Active; 'I' for Inactive)
REMARK    1  A    between atoms: C_11  and  C_17
REMARK    2  A    between atoms: C_21  and  N_23
REMARK                            x       y       z     vdW  Elec       q    Type
REMARK                         _______ _______ _______ _____ _____    ______ ____
ROOT
ATOM      1  C   UNL     1      -0.016   1.357   0.009  0.00  0.00    +0.001 A 
ATOM      2  C   UNL     1       1.168   2.091   0.002  0.00  0.00    +0.001 A 
ATOM      3  C   UNL     1       2.378   1.468  -0.012  0.00  0.00    +0.009 A 
ATOM      4  C   UNL     1       2.438   0.063  -0.019  0.00  0.00    -0.012 A 
ATOM      5  C   UNL     1       1.232  -0.683  -0.013  0.00  0.00    -0.017 A 
ATOM      6  C   UNL     1       0.002  -0.004   0.002  0.00  0.00    +0.008 A 
ATOM      7  C   UNL     1       1.289  -2.087  -0.022  0.00  0.00    +0.010 A 
ATOM      8  C   UNL     1       2.493  -2.717  -0.024  0.00  0.00    +0.024 A 
ATOM      9  C   UNL     1       3.690  -1.989  -0.018  0.00  0.00    +0.038 A 
ATOM     10  C   UNL     1       3.668  -0.612  -0.033  0.00  0.00    -0.011 A 
ATOM     11  C   UNL     1       4.955   0.169  -0.085  0.00  0.00    +0.060 C 
ATOM     12  C   UNL     1       6.043  -0.579   0.687  0.00  0.00    +0.109 C 
ATOM     13  C   UNL     1       6.060  -2.024   0.262  0.00  0.00    +0.218 C 
ATOM     14  O   UNL     1       7.117  -2.612   0.168  0.00  0.00    -0.275 OA
ATOM     15  N   UNL     1       4.913  -2.668  -0.011  0.00  0.00    -0.285 N 
ATOM     16  H   UNL     1       4.933  -3.617  -0.209  0.00  0.00    +0.155 HD
ENDROOT
BRANCH  11  17
ATOM     17  C   UNL     1       5.384   0.336  -1.520  0.00  0.00    -0.037 A 
ATOM     18  C   UNL     1       5.631  -0.778  -2.301  0.00  0.00    +0.004 A 
ATOM     19  C   UNL     1       6.024  -0.625  -3.617  0.00  0.00    +0.003 A 
ATOM     20  C   UNL     1       6.170   0.642  -4.153  0.00  0.00    +0.033 A 
ATOM     21  C   UNL     1       5.921   1.755  -3.372  0.00  0.00    +0.126 A 
ATOM     22  C   UNL     1       5.524   1.602  -2.056  0.00  0.00    +0.037 A 
BRANCH  21  23
ATOM     23  N   UNL     1       6.077   3.111  -3.945  0.00  0.00    +0.056 N 
ATOM     24  O   UNL     1       6.422   3.244  -5.096  0.00  0.00    -0.126 OA
ATOM     25  O   UNL     1       5.860   4.084  -3.262  0.00  0.00    -0.126 OA
ENDBRANCH  21  23
ENDBRANCH  11  17
TORSDOF 2
