REMARK  Name = ZINC36150756
REMARK  4 active torsions:
REMARK  status: ('A' for Active; 'I' for Inactive)
REMARK    1  A    between atoms: C_1  and  C_2
REMARK    2  A    between atoms: C_4  and  C_21
REMARK    3  A    between atoms: C_10  and  C_13
REMARK    4  A    between atoms: C_13  and  C_14
REMARK                            x       y       z     vdW  Elec       q    Type
REMARK                         _______ _______ _______ _____ _____    ______ ____
ROOT
ATOM      1  C   UNL     1      -0.019   1.526   0.010  0.00  0.00    +0.030 C 
ATOM      2  C   UNL     1       0.002  -0.004   0.002  0.00  0.00    +0.098 C 
ATOM      3  C   UNL     1      -1.442  -0.529  -0.005  0.00  0.00    +0.073 C 
ATOM      4  S   UNL     1      -2.325   0.318   1.353  0.00  0.00    -0.080 S 
ATOM      5  C   UNL     1      -1.086   0.285   2.615  0.00  0.00    +0.209 A 
ATOM      6  N   UNL     1      -1.190   0.576   3.876  0.00  0.00    -0.121 NA
ATOM      7  N   UNL     1      -0.040   0.433   4.443  0.00  0.00    -0.132 NA
ATOM      8  C   UNL     1       0.847   0.043   3.568  0.00  0.00    +0.156 A 
ATOM      9  N   UNL     1       0.211  -0.077   2.367  0.00  0.00    -0.225 N 
ATOM     10  N   UNL     1       0.725  -0.481   1.180  0.00  0.00    -0.277 N 
ATOM     11  C   UNL     1      -2.109  -0.206  -1.344  0.00  0.00    +0.021 C 
ATOM     12  H   UNL     1       0.834  -1.484   1.155  0.00  0.00    +0.167 HD
ENDROOT
BRANCH   8  13
ATOM     13  C   UNL     1       2.305  -0.227   3.836  0.00  0.00    +0.113 C 
BRANCH  13  14
ATOM     14  C   UNL     1       2.486  -1.673   4.221  0.00  0.00    -0.040 A 
ATOM     15  C   UNL     1       2.405  -2.049   5.549  0.00  0.00    +0.007 A 
ATOM     16  C   UNL     1       2.571  -3.375   5.903  0.00  0.00    +0.038 A 
ATOM     17  C   UNL     1       2.818  -4.326   4.928  0.00  0.00    +0.123 A 
ATOM     18  C   UNL     1       2.899  -3.947   3.598  0.00  0.00    +0.038 A 
ATOM     19  C   UNL     1       2.728  -2.622   3.246  0.00  0.00    +0.007 A 
ATOM     20  F   UNL     1       2.980  -5.622   5.273  0.00  0.00    -0.205 F 
ENDBRANCH  13  14
ENDBRANCH   8  13
TORSDOF 2
