REMARK  Name = ZINC29084442
REMARK  9 active torsions:
REMARK  status: ('A' for Active; 'I' for Inactive)
REMARK    1  A    between atoms: C_1  and  C_2
REMARK    2  A    between atoms: C_2  and  C_4
REMARK    3  A    between atoms: C_2  and  N_13
REMARK    4  A    between atoms: C_7  and  C_10
REMARK    5  A    between atoms: C_10  and  C_11
REMARK    6  A    between atoms: C_10  and  C_12
REMARK    7  A    between atoms: C_14  and  C_16
REMARK    8  A    between atoms: C_16  and  N_17
REMARK    9  A    between atoms: N_26  and  C_29
REMARK                            x       y       z     vdW  Elec       q    Type
REMARK                         _______ _______ _______ _____ _____    ______ ____
ROOT
ATOM      1  N   UNL     1      -1.230  -0.315  -0.160  0.00  0.00    -0.307 N 
ATOM      2  C   UNL     1      -1.963  -0.490  -1.278  0.00  0.00    +0.231 C 
ATOM      3  O   UNL     1      -1.518  -0.152  -2.354  0.00  0.00    -0.274 OA
ATOM      4  H   UNL     1      -1.585  -0.585   0.701  0.00  0.00    +0.149 HD
ENDROOT
BRANCH   1   6
ATOM      5  C   UNL     1      -0.019   1.809  -0.229  0.00  0.00    +0.033 C 
ATOM      6  C   UNL     1       0.104   0.284  -0.246  0.00  0.00    +0.100 C 
BRANCH   6   7
ATOM      7  C   UNL     1       0.934  -0.166   0.928  0.00  0.00    -0.027 A 
ATOM      8  C   UNL     1       0.360  -0.267   2.182  0.00  0.00    +0.006 A 
ATOM      9  C   UNL     1       1.121  -0.680   3.259  0.00  0.00    +0.004 A 
ATOM     10  C   UNL     1       2.456  -0.993   3.083  0.00  0.00    -0.045 A 
ATOM     11  C   UNL     1       3.030  -0.893   1.830  0.00  0.00    +0.004 A 
ATOM     12  C   UNL     1       2.268  -0.484   0.751  0.00  0.00    +0.006 A 
BRANCH  10  13
ATOM     13  C   UNL     1       3.286  -1.442   4.258  0.00  0.00    +0.013 C 
ATOM     14  C   UNL     1       3.832  -2.846   3.990  0.00  0.00    +0.012 C 
ATOM     15  C   UNL     1       4.451  -0.471   4.461  0.00  0.00    +0.012 C 
ENDBRANCH  10  13
ENDBRANCH   6   7
ENDBRANCH   1   6
BRANCH   2  16
ATOM     16  C   UNL     1      -3.335  -1.107  -1.189  0.00  0.00    +0.213 C 
BRANCH  16  17
ATOM     17  N   UNL     1      -3.921  -1.188  -2.529  0.00  0.00    -0.215 N 
ATOM     18  C   UNL     1      -4.667  -0.214  -3.091  0.00  0.00    +0.247 C 
ATOM     19  O   UNL     1      -4.968   0.854  -2.603  0.00  0.00    -0.273 OA
ATOM     20  C   UNL     1      -5.047  -0.735  -4.458  0.00  0.00    +0.115 C 
ATOM     21  C   UNL     1      -6.562  -0.854  -4.580  0.00  0.00    +0.035 C 
ATOM     22  C   UNL     1      -6.924  -1.411  -5.959  0.00  0.00    +0.003 C 
ATOM     23  C   UNL     1      -6.381  -0.478  -7.043  0.00  0.00    +0.000 C 
ATOM     24  C   UNL     1      -4.858  -0.387  -6.923  0.00  0.00    +0.003 C 
ATOM     25  C   UNL     1      -4.488   0.174  -5.548  0.00  0.00    +0.035 C 
ATOM     26  N   UNL     1      -4.419  -2.061  -4.522  0.00  0.00    -0.274 N 
ATOM     27  C   UNL     1      -3.779  -2.236  -3.350  0.00  0.00    +0.312 C 
ATOM     28  O   UNL     1      -3.145  -3.234  -3.069  0.00  0.00    -0.252 OA
ATOM     29  C   UNL     1      -4.474  -3.005  -5.641  0.00  0.00    +0.134 C 
ENDBRANCH  16  17
ENDBRANCH   2  16
TORSDOF 5
