REMARK  Name = ZINC53535072
REMARK  10 active torsions:
REMARK  status: ('A' for Active; 'I' for Inactive)
REMARK    1  A    between atoms: C_1  and  N_2
REMARK    2  A    between atoms: N_2  and  C_3
REMARK    3  A    between atoms: N_2  and  C_4
REMARK    4  A    between atoms: C_7  and  C_10
REMARK    5  A    between atoms: C_10  and  N_11
REMARK    6  A    between atoms: N_11  and  C_12
REMARK    7  A    between atoms: N_15  and  C_16
REMARK    8  A    between atoms: C_16  and  C_17
REMARK    9  A    between atoms: C_17  and  C_19
REMARK   10  A    between atoms: C_17  and  N_24
REMARK                            x       y       z     vdW  Elec       q    Type
REMARK                         _______ _______ _______ _____ _____    ______ ____
ROOT
ATOM      1  N   UNL     1      -1.420  -3.021  -5.245  0.00  0.00    -0.284 N 
ATOM      2  C   UNL     1      -2.013  -2.206  -6.308  0.00  0.00    +0.134 C 
ATOM      3  C   UNL     1      -2.087  -4.089  -4.764  0.00  0.00    +0.302 C 
ATOM      4  O   UNL     1      -1.595  -4.766  -3.882  0.00  0.00    -0.253 OA
ATOM      5  N   UNL     1      -3.299  -4.407  -5.261  0.00  0.00    -0.300 N 
ATOM      6  H   UNL     1      -3.691  -3.866  -5.964  0.00  0.00    +0.150 HD
ENDROOT
BRANCH   1   7
ATOM      7  C   UNL     1      -0.103  -2.676  -4.705  0.00  0.00    +0.144 C 
BRANCH   7  11
ATOM      8  C   UNL     1      -0.571   0.001  -1.406  0.00  0.00    +0.029 A 
ATOM      9  C   UNL     1      -0.557  -1.371  -1.192  0.00  0.00    +0.023 A 
ATOM     10  C   UNL     1      -0.407  -2.234  -2.260  0.00  0.00    +0.007 A 
ATOM     11  C   UNL     1      -0.268  -1.732  -3.542  0.00  0.00    -0.030 A 
ATOM     12  C   UNL     1      -0.281  -0.367  -3.758  0.00  0.00    +0.007 A 
ATOM     13  C   UNL     1      -0.437   0.501  -2.695  0.00  0.00    +0.023 A 
BRANCH   8  15
ATOM     14  C   UNL     1      -0.743   2.323  -0.556  0.00  0.00    +0.129 C 
ATOM     15  N   UNL     1      -0.724   0.876  -0.328  0.00  0.00    -0.336 N 
ATOM     16  C   UNL     1      -0.864   0.347   1.031  0.00  0.00    +0.129 C 
ENDBRANCH   8  15
ENDBRANCH   7  11
ENDBRANCH   1   7
BRANCH   5  17
ATOM     17  C   UNL     1      -4.024  -5.567  -4.738  0.00  0.00    +0.098 C 
BRANCH  17  18
ATOM     18  C   UNL     1      -5.416  -5.627  -5.370  0.00  0.00    +0.016 C 
BRANCH  18  19
ATOM     19  N   UNL     1      -6.093  -6.860  -4.948  0.00  0.00    +0.387 N 
ATOM     20  C   UNL     1      -7.445  -6.936  -5.559  0.00  0.00    -0.078 C 
ATOM     21  C   UNL     1      -7.774  -8.449  -5.504  0.00  0.00    -0.020 C 
ATOM     22  C   UNL     1      -6.409  -9.111  -5.802  0.00  0.00    -0.020 C 
ATOM     23  C   UNL     1      -5.358  -8.042  -5.447  0.00  0.00    -0.078 C 
ATOM     24  H   UNL     1      -6.163  -6.892  -3.942  0.00  0.00    -0.081 HD
ENDBRANCH  18  19
BRANCH  18  25
ATOM     25  C   UNL     1      -6.221  -4.433  -4.925  0.00  0.00    +0.093 A 
ATOM     26  C   UNL     1      -6.433  -3.315  -5.642  0.00  0.00    +0.043 A 
ATOM     27  C   UNL     1      -7.235  -2.465  -4.848  0.00  0.00    +0.041 A 
ATOM     28  C   UNL     1      -7.466  -3.114  -3.692  0.00  0.00    +0.195 A 
ATOM     29  O   UNL     1      -6.854  -4.308  -3.747  0.00  0.00    -0.469 OA
ENDBRANCH  18  25
ENDBRANCH  17  18
ENDBRANCH   5  17
TORSDOF 7
