REMARK  Name = ZINC38959872
REMARK  7 active torsions:
REMARK  status: ('A' for Active; 'I' for Inactive)
REMARK    1  A    between atoms: C_1  and  C_2
REMARK    2  A    between atoms: C_7  and  C_14
REMARK    3  A    between atoms: C_14  and  N_15
REMARK    4  A    between atoms: N_15  and  C_16
REMARK    5  A    between atoms: C_19  and  O_22
REMARK    6  A    between atoms: O_22  and  C_23
REMARK    7  A    between atoms: C_24  and  C_26
REMARK                            x       y       z     vdW  Elec       q    Type
REMARK                         _______ _______ _______ _____ _____    ______ ____
ROOT
ATOM      1  N   UNL     1      -1.236  -6.757   2.413  0.00  0.00    -0.268 N 
ATOM      2  C   UNL     1      -0.383  -7.799   2.365  0.00  0.00    +0.249 C 
ATOM      3  O   UNL     1      -0.086  -8.387   3.384  0.00  0.00    -0.272 OA
ENDROOT
BRANCH   1   4
ATOM      4  C   UNL     1      -1.885  -6.437   3.613  0.00  0.00    +0.037 A 
ATOM      5  C   UNL     1      -2.868  -5.457   3.632  0.00  0.00    +0.027 A 
ATOM      6  C   UNL     1      -3.507  -5.143   4.815  0.00  0.00    +0.047 A 
ATOM      7  C   UNL     1      -3.166  -5.806   5.985  0.00  0.00    +0.120 A 
ATOM      8  C   UNL     1      -2.184  -6.785   5.967  0.00  0.00    +0.047 A 
ATOM      9  C   UNL     1      -1.548  -7.104   4.784  0.00  0.00    +0.027 A 
BRANCH   7  10
ATOM     10  O   UNL     1      -3.796  -5.495   7.150  0.00  0.00    -0.495 OA
ATOM     11  C   UNL     1      -3.395  -6.217   8.316  0.00  0.00    +0.277 C 
ENDBRANCH   7  10
ENDBRANCH   1   4
BRANCH   2  12
ATOM     12  C   UNL     1       0.204  -8.233   1.046  0.00  0.00    +0.204 C 
ATOM     13  C   UNL     1       1.420  -7.345   0.680  0.00  0.00    +0.043 C 
ATOM     14  C   UNL     1       2.209  -8.299  -0.257  0.00  0.00    +0.031 C 
ATOM     15  C   UNL     1       1.923  -9.682   0.366  0.00  0.00    +0.161 C 
ATOM     16  O   UNL     1       0.727  -9.566   1.148  0.00  0.00    -0.367 OA
ENDBRANCH   2  12
BRANCH   1  17
ATOM     17  C   UNL     1      -1.486  -5.959   1.210  0.00  0.00    +0.130 C 
BRANCH  17  24
ATOM     18  C   UNL     1      -1.707   1.422  -0.088  0.00  0.00    +0.044 C 
ATOM     19  C   UNL     1      -1.423  -0.058  -0.106  0.00  0.00    -0.049 A 
ATOM     20  C   UNL     1      -1.349  -0.710  -1.337  0.00  0.00    +0.004 A 
ATOM     21  C   UNL     1      -1.095  -2.042  -1.418  0.00  0.00    +0.010 A 
ATOM     22  C   UNL     1      -0.897  -2.798  -0.181  0.00  0.00    -0.007 A 
ATOM     23  C   UNL     1      -0.639  -4.137  -0.213  0.00  0.00    -0.003 C 
ATOM     24  C   UNL     1      -0.447  -4.840   1.116  0.00  0.00    +0.116 C 
ATOM     25  C   UNL     1      -0.555  -4.000   2.369  0.00  0.00    +0.226 C 
ATOM     26  O   UNL     1      -0.409  -4.513   3.462  0.00  0.00    -0.275 OA
ATOM     27  N   UNL     1      -0.810  -2.706   2.271  0.00  0.00    -0.284 N 
ATOM     28  C   UNL     1      -0.980  -2.084   1.105  0.00  0.00    +0.041 A 
ATOM     29  C   UNL     1      -1.243  -0.702   1.076  0.00  0.00    +0.027 A 
ATOM     30  H   UNL     1      -0.875  -2.185   3.087  0.00  0.00    +0.155 HD
ENDBRANCH  17  24
ENDBRANCH   1  17
TORSDOF 5
