REMARK  Name = ZINC20690799
REMARK  9 active torsions:
REMARK  status: ('A' for Active; 'I' for Inactive)
REMARK    1  A    between atoms: C_1  and  C_2
REMARK    2  A    between atoms: C_2  and  C_3
REMARK    3  A    between atoms: C_3  and  C_5
REMARK    4  A    between atoms: C_3  and  N_6
REMARK    5  A    between atoms: C_7  and  C_9
REMARK    6  A    between atoms: C_16  and  C_25
REMARK    7  A    between atoms: C_28  and  O_32
REMARK    8  A    between atoms: C_29  and  O_31
REMARK    9  A    between atoms: O_32  and  C_33
REMARK                            x       y       z     vdW  Elec       q    Type
REMARK                         _______ _______ _______ _____ _____    ______ ____
ROOT
ATOM      1  C   UNL     1       1.235  -0.684  -0.007  0.00  0.00    +0.058 A 
ATOM      2  C   UNL     1       2.430   0.036  -0.012  0.00  0.00    +0.015 A 
ATOM      3  C   UNL     1       2.394   1.413  -0.008  0.00  0.00    +0.001 A 
ATOM      4  C   UNL     1       1.182   2.079   0.002  0.00  0.00    +0.006 A 
ATOM      5  C   UNL     1      -0.017   1.380   0.010  0.00  0.00    -0.019 A 
ATOM      6  C   UNL     1       0.002  -0.004   0.002  0.00  0.00    +0.044 A 
ATOM      7  N   UNL     1      -1.159  -0.761  -0.000  0.00  0.00    -0.336 N 
ATOM      8  C   UNL     1      -2.285  -0.050   0.608  0.00  0.00    +0.105 C 
ATOM      9  C   UNL     1      -2.526   1.261  -0.144  0.00  0.00    +0.029 C 
ATOM     10  C   UNL     1      -1.292   2.172   0.032  0.00  0.00    +0.049 C 
ATOM     11  C   UNL     1      -1.495   2.812   1.386  0.00  0.00    -0.023 C 
ATOM     12  C   UNL     1      -2.756   2.759   1.734  0.00  0.00    -0.030 C 
ATOM     13  C   UNL     1      -3.578   2.081   0.654  0.00  0.00    +0.033 C 
ATOM     14  H   UNL     1      -1.299  -1.779  -0.393  0.00  0.00    +0.147 HD
ENDROOT
BRANCH   8  15
ATOM     15  C   UNL     1      -3.521  -0.908   0.531  0.00  0.00    -0.023 A 
ATOM     16  C   UNL     1      -3.778  -1.647  -0.609  0.00  0.00    +0.009 A 
ATOM     17  C   UNL     1      -4.911  -2.437  -0.684  0.00  0.00    +0.050 A 
ATOM     18  C   UNL     1      -5.792  -2.487   0.384  0.00  0.00    +0.161 A 
ATOM     19  C   UNL     1      -5.534  -1.743   1.531  0.00  0.00    +0.159 A 
ATOM     20  C   UNL     1      -4.394  -0.958   1.602  0.00  0.00    +0.054 A 
BRANCH  19  21
ATOM     21  O   UNL     1      -6.396  -1.789   2.582  0.00  0.00    -0.503 OA
ATOM     22  H   UNL     1      -6.190  -1.200   3.488  0.00  0.00    +0.292 HD
ENDBRANCH  19  21
BRANCH  18  23
ATOM     23  O   UNL     1      -6.907  -3.263   0.311  0.00  0.00    -0.491 OA
ATOM     24  C   UNL     1      -7.107  -3.999  -0.897  0.00  0.00    +0.277 C 
ENDBRANCH  18  23
ENDBRANCH   8  15
BRANCH   1  26
ATOM     25  N   UNL     1       2.443  -2.810  -0.021  0.00  0.00    -0.309 N 
ATOM     26  C   UNL     1       1.263  -2.159  -0.012  0.00  0.00    +0.246 C 
ATOM     27  O   UNL     1       0.222  -2.787  -0.008  0.00  0.00    -0.270 OA
ATOM     28  H   UNL     1       3.385  -2.241  -0.025  0.00  0.00    +0.149 HD
BRANCH  25  29
ATOM     29  C   UNL     1       2.471  -4.274  -0.026  0.00  0.00    +0.070 C 
ATOM     30  C   UNL     1       2.347  -4.782  -1.464  0.00  0.00    +0.028 C 
BRANCH  29  32
ATOM     31  C   UNL     1       3.860  -4.360   2.049  0.00  0.00    +0.005 C 
ATOM     32  C   UNL     1       3.792  -4.761   0.574  0.00  0.00    +0.018 C 
ENDBRANCH  29  32
ENDBRANCH  25  29
ENDBRANCH   1  26
TORSDOF 6
