REMARK  Name = ZINC40562368
REMARK  6 active torsions:
REMARK  status: ('A' for Active; 'I' for Inactive)
REMARK    1  A    between atoms: C_1  and  C_2
REMARK    2  A    between atoms: C_2  and  C_4
REMARK    3  A    between atoms: C_2  and  N_10
REMARK    4  A    between atoms: N_10  and  C_11
REMARK    5  A    between atoms: N_18  and  C_25
REMARK    6  A    between atoms: C_21  and  N_22
REMARK                            x       y       z     vdW  Elec       q    Type
REMARK                         _______ _______ _______ _____ _____    ______ ____
ROOT
ATOM      1  C   UNL     1      -2.295  -0.583  -1.113  0.00  0.00    +0.073 A 
ATOM      2  C   UNL     1      -3.458  -1.395  -1.500  0.00  0.00    +0.022 A 
ATOM      3  C   UNL     1      -4.306  -1.950  -0.539  0.00  0.00    +0.012 A 
ATOM      4  C   UNL     1      -5.379  -2.699  -0.933  0.00  0.00    +0.001 A 
ATOM      5  C   UNL     1      -5.632  -2.914  -2.280  0.00  0.00    +0.002 A 
ATOM      6  C   UNL     1      -4.808  -2.376  -3.245  0.00  0.00    +0.027 A 
ATOM      7  C   UNL     1      -3.711  -1.610  -2.866  0.00  0.00    +0.059 A 
ATOM      8  N   UNL     1      -2.868  -1.057  -3.811  0.00  0.00    -0.275 N 
ATOM      9  C   UNL     1      -1.808  -0.316  -3.449  0.00  0.00    +0.288 A 
ATOM     10  O   UNL     1      -1.089   0.154  -4.316  0.00  0.00    -0.265 OA
ATOM     11  C   UNL     1      -1.506  -0.063  -2.104  0.00  0.00    +0.212 A 
ENDROOT
BRANCH   8  12
ATOM     12  C   UNL     1      -3.124  -1.274  -5.170  0.00  0.00    +0.050 A 
ATOM     13  C   UNL     1      -4.043  -0.477  -5.841  0.00  0.00    +0.026 A 
ATOM     14  C   UNL     1      -4.292  -0.694  -7.182  0.00  0.00    +0.002 A 
ATOM     15  C   UNL     1      -3.629  -1.702  -7.857  0.00  0.00    +0.000 A 
ATOM     16  C   UNL     1      -2.714  -2.497  -7.191  0.00  0.00    +0.002 A 
ATOM     17  C   UNL     1      -2.455  -2.282  -5.852  0.00  0.00    +0.026 A 
ENDBRANCH   8  12
BRANCH  11  18
ATOM     18  N   UNL     1      -0.330   0.764  -1.755  0.00  0.00    +0.064 N 
ATOM     19  O   UNL     1      -0.006   0.896  -0.597  0.00  0.00    -0.126 OA
ATOM     20  O   UNL     1       0.307   1.309  -2.626  0.00  0.00    -0.126 OA
ENDBRANCH  11  18
BRANCH   1  21
ATOM     21  N   UNL     1      -2.009  -0.346   0.215  0.00  0.00    -0.335 N 
ATOM     22  H   UNL     1      -1.952   0.565   0.544  0.00  0.00    +0.147 HD
BRANCH  21  24
ATOM     23  C   UNL     1      -0.294  -1.780   1.207  0.00  0.00    +0.033 C 
ATOM     24  C   UNL     1      -1.790  -1.470   1.129  0.00  0.00    +0.098 C 
BRANCH  24  25
ATOM     25  C   UNL     1      -2.300  -1.109   2.501  0.00  0.00    -0.028 A 
ATOM     26  C   UNL     1      -2.103   0.166   2.998  0.00  0.00    +0.005 A 
ATOM     27  C   UNL     1      -2.571   0.497   4.256  0.00  0.00    +0.000 A 
ATOM     28  C   UNL     1      -3.237  -0.446   5.016  0.00  0.00    +0.000 A 
ATOM     29  C   UNL     1      -3.436  -1.721   4.518  0.00  0.00    +0.000 A 
ATOM     30  C   UNL     1      -2.971  -2.050   3.258  0.00  0.00    +0.005 A 
ENDBRANCH  24  25
ENDBRANCH  21  24
ENDBRANCH   1  21
TORSDOF 5
