REMARK  Name = ZINC09210485
REMARK  6 active torsions:
REMARK  status: ('A' for Active; 'I' for Inactive)
REMARK    1  A    between atoms: C_1  and  O_2
REMARK    2  A    between atoms: O_2  and  C_3
REMARK    3  A    between atoms: C_6  and  C_9
REMARK    4  A    between atoms: C_14  and  O_34
REMARK    5  A    between atoms: C_22  and  C_27
REMARK    6  A    between atoms: C_27  and  C_28
REMARK                            x       y       z     vdW  Elec       q    Type
REMARK                         _______ _______ _______ _____ _____    ______ ____
ROOT
ATOM      1  C   UNL     1      -1.795   5.110   4.506  0.00  0.00    +0.091 C 
ATOM      2  C   UNL     1      -2.321   5.940   5.647  0.00  0.00    +0.007 A 
ATOM      3  C   UNL     1      -3.643   6.350   5.639  0.00  0.00    +0.012 A 
ATOM      4  C   UNL     1      -4.141   7.110   6.679  0.00  0.00    +0.046 A 
ATOM      5  C   UNL     1      -3.314   7.466   7.736  0.00  0.00    +0.120 A 
ATOM      6  C   UNL     1      -1.991   7.057   7.746  0.00  0.00    +0.092 A 
ATOM      7  C   UNL     1      -1.491   6.291   6.699  0.00  0.00    +0.138 A 
ATOM      8  O   UNL     1      -0.195   5.899   6.726  0.00  0.00    -0.437 OA
ATOM      9  C   UNL     1       0.430   5.519   5.588  0.00  0.00    +0.230 A 
ATOM     10  C   UNL     1      -0.297   5.129   4.496  0.00  0.00    +0.070 A 
ATOM     11  C   UNL     1       0.429   4.745   3.357  0.00  0.00    +0.167 A 
ATOM     12  N   UNL     1       0.071   4.329   2.165  0.00  0.00    -0.211 NA
ATOM     13  C   UNL     1       1.157   4.087   1.433  0.00  0.00    +0.156 A 
ATOM     14  N   UNL     1       2.237   4.351   2.138  0.00  0.00    -0.148 NA
ATOM     15  N   UNL     1       1.812   4.779   3.388  0.00  0.00    -0.201 N 
ATOM     16  C   UNL     1       2.474   5.179   4.502  0.00  0.00    +0.229 A 
ATOM     17  N   UNL     1       1.772   5.530   5.552  0.00  0.00    -0.201 NA
ENDROOT
BRANCH   1  21
ATOM     18  C   UNL     1      -3.155   1.084   4.952  0.00  0.00    +0.120 A 
ATOM     19  C   UNL     1      -3.509   1.816   3.828  0.00  0.00    +0.046 A 
ATOM     20  C   UNL     1      -3.068   3.118   3.686  0.00  0.00    +0.008 A 
ATOM     21  C   UNL     1      -2.275   3.691   4.663  0.00  0.00    -0.035 A 
ATOM     22  C   UNL     1      -1.916   2.961   5.782  0.00  0.00    +0.008 A 
ATOM     23  C   UNL     1      -2.360   1.661   5.931  0.00  0.00    +0.046 A 
BRANCH  18  25
ATOM     24  C   UNL     1      -3.185  -0.891   6.276  0.00  0.00    +0.277 C 
ATOM     25  O   UNL     1      -3.588  -0.197   5.093  0.00  0.00    -0.495 OA
ENDBRANCH  18  25
ENDBRANCH   1  21
BRANCH   5  26
ATOM     26  O   UNL     1      -3.803   8.214   8.759  0.00  0.00    -0.507 OA
ATOM     27  H   UNL     1      -4.175   7.693   9.484  0.00  0.00    +0.292 HD
ENDBRANCH   5  26
BRANCH  13  28
ATOM     28  C   UNL     1       1.151   3.592   0.010  0.00  0.00    +0.113 C 
BRANCH  28  29
ATOM     29  C   UNL     1       1.171   2.086   0.002  0.00  0.00    -0.040 A 
ATOM     30  C   UNL     1      -0.017   1.378   0.010  0.00  0.00    +0.004 A 
ATOM     31  C   UNL     1       0.002  -0.004   0.002  0.00  0.00    +0.000 A 
ATOM     32  C   UNL     1       1.208  -0.679  -0.013  0.00  0.00    +0.000 A 
ATOM     33  C   UNL     1       2.396   0.029  -0.021  0.00  0.00    +0.000 A 
ATOM     34  C   UNL     1       2.377   1.411  -0.015  0.00  0.00    +0.004 A 
ENDBRANCH  28  29
ENDBRANCH  13  28
TORSDOF 5
