REMARK  Name = ZINC08668467
REMARK  6 active torsions:
REMARK  status: ('A' for Active; 'I' for Inactive)
REMARK    1  A    between atoms: C_4  and  N_7
REMARK    2  A    between atoms: C_16  and  C_18
REMARK    3  A    between atoms: C_18  and  O_20
REMARK    4  A    between atoms: O_20  and  C_21
REMARK    5  A    between atoms: C_21  and  C_22
REMARK    6  A    between atoms: N_24  and  C_25
REMARK                            x       y       z     vdW  Elec       q    Type
REMARK                         _______ _______ _______ _____ _____    ______ ____
ROOT
ATOM      1  C   UNL     1       3.348   5.351   0.277  0.00  0.00    +0.361 C 
ATOM      2  O   UNL     1       4.365   4.729   0.041  0.00  0.00    -0.243 OA
ENDROOT
BRANCH   1  12
ATOM      3  N   UNL     1      -0.035   4.775   1.446  0.00  0.00    -0.196 N 
ATOM      4  C   UNL     1      -0.171   3.453   1.675  0.00  0.00    +0.280 A 
ATOM      5  O   UNL     1      -1.226   2.995   2.075  0.00  0.00    -0.265 OA
ATOM      6  C   UNL     1       0.985   2.578   1.437  0.00  0.00    +0.051 A 
ATOM      7  C   UNL     1       0.949   1.203   1.647  0.00  0.00    +0.014 A 
ATOM      8  C   UNL     1       2.076   0.451   1.394  0.00  0.00    +0.001 A 
ATOM      9  C   UNL     1       3.241   1.050   0.933  0.00  0.00    +0.001 A 
ATOM     10  C   UNL     1       3.297   2.411   0.718  0.00  0.00    +0.011 A 
ATOM     11  C   UNL     1       2.171   3.189   0.968  0.00  0.00    +0.021 A 
ATOM     12  C   UNL     1       2.148   4.646   0.764  0.00  0.00    +0.176 A 
ATOM     13  N   UNL     1       1.046   5.311   1.021  0.00  0.00    -0.156 NA
BRANCH   3  17
ATOM     14  C   UNL     1      -3.317   7.245   2.144  0.00  0.00    +0.000 A 
ATOM     15  C   UNL     1      -2.921   6.334   3.107  0.00  0.00    +0.002 A 
ATOM     16  C   UNL     1      -1.834   5.514   2.879  0.00  0.00    +0.028 A 
ATOM     17  C   UNL     1      -1.137   5.604   1.680  0.00  0.00    +0.069 A 
ATOM     18  C   UNL     1      -1.534   6.523   0.718  0.00  0.00    +0.028 A 
ATOM     19  C   UNL     1      -2.625   7.337   0.950  0.00  0.00    +0.002 A 
ENDBRANCH   3  17
ENDBRANCH   1  12
BRANCH   1  20
ATOM     20  O   UNL     1       3.318   6.686   0.093  0.00  0.00    -0.451 OA
BRANCH  20  21
ATOM     21  C   UNL     1       4.536   7.313  -0.388  0.00  0.00    +0.328 C 
BRANCH  21  22
ATOM     22  C   UNL     1       4.314   8.797  -0.532  0.00  0.00    +0.255 C 
ATOM     23  O   UNL     1       3.235   9.278  -0.256  0.00  0.00    -0.272 OA
ATOM     24  N   UNL     1       5.313   9.589  -0.967  0.00  0.00    -0.282 N 
ATOM     25  H   UNL     1       6.149   9.196  -1.266  0.00  0.00    +0.155 HD
BRANCH  24  26
ATOM     26  C   UNL     1       5.147  10.975  -0.990  0.00  0.00    +0.041 A 
ATOM     27  C   UNL     1       4.182  11.572  -0.207  0.00  0.00    +0.024 A 
ATOM     28  C   UNL     1       4.008  12.952  -0.222  0.00  0.00    +0.002 A 
ATOM     29  C   UNL     1       4.784  13.751  -1.006  0.00  0.00    +0.008 A 
ATOM     30  C   UNL     1       5.779  13.181  -1.819  0.00  0.00    -0.016 A 
ATOM     31  C   UNL     1       5.969  11.777  -1.809  0.00  0.00    +0.003 A 
ATOM     32  C   UNL     1       6.961  11.210  -2.624  0.00  0.00    +0.010 A 
ATOM     33  C   UNL     1       7.732  12.015  -3.406  0.00  0.00    +0.001 A 
ATOM     34  C   UNL     1       7.549  13.396  -3.413  0.00  0.00    +0.001 A 
ATOM     35  C   UNL     1       6.594  13.980  -2.639  0.00  0.00    +0.008 A 
ENDBRANCH  24  26
ENDBRANCH  21  22
ENDBRANCH  20  21
ENDBRANCH   1  20
TORSDOF 6
