REMARK  Name = ZINC00124127
REMARK  2 active torsions:
REMARK  status: ('A' for Active; 'I' for Inactive)
REMARK    1  A    between atoms: C_4  and  N_7
REMARK    2  A    between atoms: N_11  and  C_17
REMARK                            x       y       z     vdW  Elec       q    Type
REMARK                         _______ _______ _______ _____ _____    ______ ____
ROOT
ATOM      1  N   UNL     1      -1.243   2.053   0.048  0.00  0.00    -0.230 N 
ATOM      2  C   UNL     1      -1.485   3.258   0.639  0.00  0.00    +0.100 A 
ATOM      3  C   UNL     1      -0.669   4.260   1.198  0.00  0.00    +0.162 A 
ATOM      4  N   UNL     1      -1.189   5.340   1.706  0.00  0.00    -0.170 NA
ATOM      5  N   UNL     1      -2.567   5.568   1.728  0.00  0.00    -0.196 N 
ATOM      6  C   UNL     1      -3.426   4.662   1.213  0.00  0.00    +0.283 A 
ATOM      7  O   UNL     1      -4.628   4.861   1.231  0.00  0.00    -0.265 OA
ATOM      8  C   UNL     1      -2.879   3.436   0.633  0.00  0.00    +0.088 A 
ATOM      9  C   UNL     1      -3.441   2.299   0.023  0.00  0.00    +0.148 A 
ATOM     10  N   UNL     1      -2.473   1.495  -0.324  0.00  0.00    -0.173 NA
ENDROOT
BRANCH   1  14
ATOM     11  C   UNL     1       2.503   0.337  -0.572  0.00  0.00    +0.000 A 
ATOM     12  C   UNL     1       1.417  -0.465  -0.273  0.00  0.00    +0.002 A 
ATOM     13  C   UNL     1       0.175   0.100  -0.065  0.00  0.00    +0.028 A 
ATOM     14  C   UNL     1       0.016   1.477  -0.156  0.00  0.00    +0.066 A 
ATOM     15  C   UNL     1       1.109   2.281  -0.456  0.00  0.00    +0.028 A 
ATOM     16  C   UNL     1       2.349   1.709  -0.662  0.00  0.00    +0.002 A 
ENDBRANCH   1  14
BRANCH   5  17
ATOM     17  C   UNL     1      -3.063   6.750   2.289  0.00  0.00    +0.069 A 
ATOM     18  C   UNL     1      -2.625   7.163   3.541  0.00  0.00    +0.028 A 
ATOM     19  C   UNL     1      -3.112   8.333   4.090  0.00  0.00    +0.002 A 
ATOM     20  C   UNL     1      -4.044   9.087   3.399  0.00  0.00    +0.000 A 
ATOM     21  C   UNL     1      -4.486   8.676   2.155  0.00  0.00    +0.002 A 
ATOM     22  C   UNL     1      -3.998   7.510   1.598  0.00  0.00    +0.028 A 
ENDBRANCH   5  17
TORSDOF 2
