REMARK  Name = ZINC24094909
REMARK  12 active torsions:
REMARK  status: ('A' for Active; 'I' for Inactive)
REMARK    1  A    between atoms: C_1  and  C_2
REMARK    2  A    between atoms: C_2  and  C_4
REMARK    3  A    between atoms: C_2  and  N_29
REMARK    4  A    between atoms: C_7  and  S_16
REMARK    5  A    between atoms: N_8  and  C_9
REMARK    6  A    between atoms: S_16  and  C_17
REMARK    7  A    between atoms: C_17  and  C_18
REMARK    8  A    between atoms: C_18  and  C_20
REMARK    9  A    between atoms: C_23  and  O_27
REMARK   10  A    between atoms: O_27  and  C_28
REMARK   11  A    between atoms: N_29  and  C_30
REMARK   12  A    between atoms: N_29  and  C_31
REMARK                            x       y       z     vdW  Elec       q    Type
REMARK                         _______ _______ _______ _____ _____    ______ ____
ROOT
ATOM      1  C   UNL     1      -0.581  -2.106  -0.003  0.00  0.00    +0.125 A 
ATOM      2  N   UNL     1       0.718  -2.007  -0.015  0.00  0.00    -0.135 NA
ATOM      3  N   UNL     1       1.068  -0.771  -0.012  0.00  0.00    -0.122 NA
ATOM      4  C   UNL     1       0.002  -0.004   0.002  0.00  0.00    +0.196 A 
ATOM      5  N   UNL     1      -1.086  -0.833   0.013  0.00  0.00    -0.275 N 
ENDROOT
BRANCH   5   6
ATOM      6  C   UNL     1      -2.438  -0.457   0.035  0.00  0.00    +0.050 A 
ATOM      7  C   UNL     1      -3.229  -0.769   1.131  0.00  0.00    +0.028 A 
ATOM      8  C   UNL     1      -4.558  -0.394   1.151  0.00  0.00    +0.022 A 
ATOM      9  C   UNL     1      -5.104   0.284   0.075  0.00  0.00    +0.041 A 
ATOM     10  C   UNL     1      -4.318   0.592  -1.021  0.00  0.00    +0.022 A 
ATOM     11  C   UNL     1      -2.987   0.223  -1.044  0.00  0.00    +0.028 A 
ATOM     12 CL   UNL     1      -6.776   0.749   0.101  0.00  0.00    -0.084 Cl
ENDBRANCH   5   6
BRANCH   1  14
ATOM     13  C   UNL     1      -1.348  -4.007  -1.397  0.00  0.00    -0.005 C 
ATOM     14  C   UNL     1      -1.380  -3.384  -0.001  0.00  0.00    -0.003 C 
BRANCH  14  15
ATOM     15  N   UNL     1      -0.800  -4.323   0.969  0.00  0.00    +0.382 N 
ATOM     16  C   UNL     1      -0.728  -3.721   2.307  0.00  0.00    -0.096 C 
ATOM     17  C   UNL     1      -1.554  -5.582   0.998  0.00  0.00    -0.096 C 
ATOM     18  H   UNL     1       0.226  -4.551   0.645  0.00  0.00    -0.082 HD
ENDBRANCH  14  15
ENDBRANCH   1  14
BRANCH   4  19
ATOM     19  S   UNL     1      -0.022   1.758   0.012  0.00  0.00    -0.078 S 
BRANCH  19  20
ATOM     20  C   UNL     1       1.756   2.096  -0.004  0.00  0.00    +0.157 C 
BRANCH  20  21
ATOM     21  C   UNL     1       1.984   3.586   0.002  0.00  0.00    +0.173 C 
ATOM     22  O   UNL     1       1.037   4.344   0.015  0.00  0.00    -0.291 OA
BRANCH  21  23
ATOM     23  C   UNL     1       3.352   4.120  -0.008  0.00  0.00    +0.020 A 
ATOM     24  C   UNL     1       4.447   3.246  -0.017  0.00  0.00    +0.015 A 
ATOM     25  C   UNL     1       5.727   3.751  -0.034  0.00  0.00    +0.048 A 
ATOM     26  C   UNL     1       5.935   5.126  -0.028  0.00  0.00    +0.138 A 
ATOM     27  C   UNL     1       4.851   5.998  -0.012  0.00  0.00    +0.083 A 
ATOM     28  C   UNL     1       3.566   5.503  -0.002  0.00  0.00    +0.035 A 
ATOM     29 CL   UNL     1       5.120   7.713  -0.005  0.00  0.00    -0.080 Cl
BRANCH  26  30
ATOM     30  O   UNL     1       7.200   5.618  -0.038  0.00  0.00    -0.494 OA
ATOM     31  C   UNL     1       8.266   4.667  -0.053  0.00  0.00    +0.277 C 
ENDBRANCH  26  30
ENDBRANCH  21  23
ENDBRANCH  20  21
ENDBRANCH  19  20
ENDBRANCH   4  19
TORSDOF 8
