REMARK  Name = ZINC66710511
REMARK  4 active torsions:
REMARK  status: ('A' for Active; 'I' for Inactive)
REMARK    1  A    between atoms: C_1  and  C_2
REMARK    2  A    between atoms: C_6  and  C_20
REMARK    3  A    between atoms: C_10  and  C_12
REMARK    4  A    between atoms: C_15  and  N_17
REMARK                            x       y       z     vdW  Elec       q    Type
REMARK                         _______ _______ _______ _____ _____    ______ ____
ROOT
ATOM      1  C   UNL     1      -0.019   1.526   0.010  0.00  0.00    +0.030 C 
ATOM      2  C   UNL     1       0.002  -0.004   0.002  0.00  0.00    +0.099 C 
ATOM      3  C   UNL     1      -1.434  -0.540   0.026  0.00  0.00    +0.182 C 
ATOM      4  O   UNL     1      -2.033  -0.226   1.285  0.00  0.00    -0.369 OA
ATOM      5  C   UNL     1      -1.388  -0.832   2.408  0.00  0.00    +0.166 C 
ATOM      6  C   UNL     1       0.050  -0.311   2.506  0.00  0.00    +0.144 C 
ATOM      7  N   UNL     1       0.702  -0.497   1.199  0.00  0.00    -0.293 N 
ATOM      8  C   UNL     1       1.903  -1.101   1.101  0.00  0.00    +0.221 C 
ATOM      9  O   UNL     1       2.423  -1.244   0.015  0.00  0.00    -0.275 OA
ENDROOT
BRANCH   5  10
ATOM     10  C   UNL     1      -2.138  -0.484   3.668  0.00  0.00    -0.017 A 
ATOM     11  C   UNL     1      -2.738   0.755   3.795  0.00  0.00    +0.006 A 
ATOM     12  C   UNL     1      -3.425   1.074   4.951  0.00  0.00    +0.000 A 
ATOM     13  C   UNL     1      -3.513   0.155   5.979  0.00  0.00    +0.000 A 
ATOM     14  C   UNL     1      -2.914  -1.084   5.852  0.00  0.00    +0.000 A 
ATOM     15  C   UNL     1      -2.230  -1.405   4.694  0.00  0.00    +0.006 A 
ENDBRANCH   5  10
BRANCH   8  16
ATOM     16  C   UNL     1       2.600  -1.597   2.341  0.00  0.00    +0.107 C 
ATOM     17  C   UNL     1       3.876  -0.870   2.773  0.00  0.00    +0.047 C 
ATOM     18  C   UNL     1       3.962  -2.272   2.164  0.00  0.00    +0.182 C 
BRANCH  18  19
ATOM     19  N   UNL     1       4.488  -2.386   0.801  0.00  0.00    +0.026 N 
ATOM     20  O   UNL     1       4.688  -1.390   0.145  0.00  0.00    -0.131 OA
ATOM     21  O   UNL     1       4.723  -3.475   0.333  0.00  0.00    -0.131 OA
ENDBRANCH  18  19
ENDBRANCH   8  16
TORSDOF 3
