REMARK  Name = ZINC41069909
REMARK  5 active torsions:
REMARK  status: ('A' for Active; 'I' for Inactive)
REMARK    1  A    between atoms: C_1  and  C_2
REMARK    2  A    between atoms: N_8  and  S_9
REMARK    3  A    between atoms: S_9  and  C_12
REMARK    4  A    between atoms: C_17  and  N_18
REMARK    5  A    between atoms: N_18  and  N_19
REMARK                            x       y       z     vdW  Elec       q    Type
REMARK                         _______ _______ _______ _____ _____    ______ ____
ROOT
ATOM      1  C   UNL     1       2.317   1.796   1.377  0.00  0.00    +0.147 A 
ATOM      2  C   UNL     1       1.955   3.128   1.472  0.00  0.00    +0.048 A 
ATOM      3  C   UNL     1       2.707   4.069   0.781  0.00  0.00    +0.038 A 
ATOM      4  C   UNL     1       3.785   3.652   0.025  0.00  0.00    +0.128 A 
ATOM      5  N   UNL     1       4.106   2.374  -0.047  0.00  0.00    -0.236 NA
ATOM      6  C   UNL     1       3.418   1.447   0.601  0.00  0.00    +0.159 A 
ATOM      7 BR   UNL     1       2.259   5.904   0.874  0.00  0.00    -0.049 Br
ENDROOT
BRANCH   1   8
ATOM      8  S   UNL     1       1.399   0.558   2.231  0.00  0.00    +0.064 S 
ATOM      9  O   UNL     1       0.331   1.226   2.889  0.00  0.00    -0.153 OA
ATOM     10  O   UNL     1       2.345  -0.239   2.930  0.00  0.00    -0.153 OA
BRANCH   8  17
ATOM     11  C   UNL     1      -0.761   1.492   0.658  0.00  0.00    +0.026 C 
ATOM     12  C   UNL     1      -0.464   0.029   0.326  0.00  0.00    +0.077 C 
ATOM     13  C   UNL     1      -0.169  -0.108  -1.171  0.00  0.00    +0.020 C 
ATOM     14  C   UNL     1       0.263  -1.545  -1.472  0.00  0.00    +0.003 C 
ATOM     15  C   UNL     1       1.542  -1.869  -0.696  0.00  0.00    +0.017 C 
ATOM     16  C   UNL     1       1.266  -1.752   0.806  0.00  0.00    +0.110 C 
ATOM     17  N   UNL     1       0.711  -0.420   1.086  0.00  0.00    -0.174 NA
ENDBRANCH   8  17
ENDBRANCH   1   8
BRANCH   6  18
ATOM     18  N   UNL     1       3.796   0.113   0.502  0.00  0.00    -0.266 N 
ATOM     19  H   UNL     1       3.343  -0.560   1.034  0.00  0.00    +0.167 HD
BRANCH  18  20
ATOM     20  N   UNL     1       4.803  -0.250  -0.345  0.00  0.00    -0.255 NA
ATOM     21  H   UNL     1       5.649   0.260  -0.141  0.00  0.00    +0.140 HD
ATOM     22  H   UNL     1       4.965  -1.246  -0.310  0.00  0.00    +0.140 HD
ENDBRANCH  18  20
ENDBRANCH   6  18
TORSDOF 4
