REMARK  Name = ZINC51732757
REMARK  3 active torsions:
REMARK  status: ('A' for Active; 'I' for Inactive)
REMARK    1  A    between atoms: C_1  and  C_2
REMARK    2  A    between atoms: C_7  and  C_10
REMARK    3  A    between atoms: C_11  and  C_13
REMARK                            x       y       z     vdW  Elec       q    Type
REMARK                         _______ _______ _______ _____ _____    ______ ____
ROOT
ATOM      1  C   UNL     1       2.961  -3.263  -1.648  0.00  0.00    +0.171 C 
ATOM      2  C   UNL     1       2.083  -4.293  -2.310  0.00  0.00    -0.018 A 
ATOM      3  C   UNL     1       0.708  -4.185  -2.155  0.00  0.00    +0.006 A 
ATOM      4  C   UNL     1      -0.135  -5.104  -2.747  0.00  0.00    +0.000 A 
ATOM      5  C   UNL     1       0.393  -6.137  -3.499  0.00  0.00    +0.000 A 
ATOM      6  C   UNL     1       1.760  -6.247  -3.653  0.00  0.00    +0.004 A 
ATOM      7  C   UNL     1       2.608  -5.325  -3.056  0.00  0.00    -0.041 A 
ATOM      8  C   UNL     1       4.094  -5.491  -3.241  0.00  0.00    +0.050 C 
ATOM      9  C   UNL     1       4.814  -4.192  -2.879  0.00  0.00    +0.086 C 
ATOM     10  N   UNL     1       4.340  -3.754  -1.557  0.00  0.00    -0.302 NA
ATOM     11  H   UNL     1       4.950  -3.048  -1.173  0.00  0.00    +0.123 HD
ENDROOT
BRANCH   1  20
ATOM     12  C   UNL     1       0.561   1.998   0.917  0.00  0.00    +0.007 C 
ATOM     13  C   UNL     1       0.448   0.524   0.524  0.00  0.00    -0.011 C 
ATOM     14  C   UNL     1       1.206   0.285  -0.783  0.00  0.00    +0.022 C 
ATOM     15  C   UNL     1       1.062  -1.184  -1.192  0.00  0.00    +0.108 C 
ATOM     16  N   UNL     1       1.503  -2.031  -0.075  0.00  0.00    -0.297 N 
ATOM     17  C   UNL     1       0.902  -1.823   1.250  0.00  0.00    +0.073 C 
ATOM     18  C   UNL     1       1.048  -0.346   1.630  0.00  0.00    +0.025 C 
ATOM     19  C   UNL     1       1.620  -2.695   2.281  0.00  0.00    +0.028 C 
ATOM     20  C   UNL     1       2.440  -2.981  -0.262  0.00  0.00    +0.237 C 
ATOM     21  O   UNL     1       2.865  -3.609   0.685  0.00  0.00    -0.274 OA
ENDBRANCH   1  20
TORSDOF 1
