REMARK  Name = ZINC12768514
REMARK  6 active torsions:
REMARK  status: ('A' for Active; 'I' for Inactive)
REMARK    1  A    between atoms: C_1  and  C_2
REMARK    2  A    between atoms: C_2  and  N_3
REMARK    3  A    between atoms: N_3  and  C_4
REMARK    4  A    between atoms: C_10  and  C_12
REMARK    5  A    between atoms: N_17  and  S_19
REMARK    6  A    between atoms: S_19  and  C_22
REMARK                            x       y       z     vdW  Elec       q    Type
REMARK                         _______ _______ _______ _____ _____    ______ ____
ROOT
ATOM      1  C   UNL     1      -1.975   2.931  -1.500  0.00  0.00    +0.091 C 
ATOM      2  C   UNL     1      -0.638   3.252  -0.828  0.00  0.00    +0.015 C 
ATOM      3  C   UNL     1       0.344   2.102  -1.065  0.00  0.00    +0.018 C 
ATOM      4  C   UNL     1      -0.217   0.821  -0.440  0.00  0.00    +0.109 C 
ATOM      5  N   UNL     1      -1.565   0.584  -0.974  0.00  0.00    -0.176 NA
ATOM      6  C   UNL     1      -2.560   1.661  -0.884  0.00  0.00    +0.122 C 
ENDROOT
BRANCH   1   8
ATOM      7  N   UNL     1      -2.719   5.253  -1.920  0.00  0.00    -0.271 N 
ATOM      8  C   UNL     1      -2.930   4.079  -1.293  0.00  0.00    +0.224 C 
ATOM      9  O   UNL     1      -3.889   3.945  -0.562  0.00  0.00    -0.275 OA
BRANCH   7  10
ATOM     10  C   UNL     1      -3.548   6.348  -1.653  0.00  0.00    +0.036 A 
ATOM     11  C   UNL     1      -4.524   6.258  -0.669  0.00  0.00    +0.023 A 
ATOM     12  C   UNL     1      -5.337   7.342  -0.405  0.00  0.00    +0.002 A 
ATOM     13  C   UNL     1      -5.189   8.512  -1.126  0.00  0.00    +0.000 A 
ATOM     14  C   UNL     1      -4.221   8.603  -2.110  0.00  0.00    +0.002 A 
ATOM     15  C   UNL     1      -3.401   7.524  -2.376  0.00  0.00    +0.023 A 
ENDBRANCH   7  10
BRANCH   7  17
ATOM     16  C   UNL     1      -2.058   4.817  -4.234  0.00  0.00    +0.025 C 
ATOM     17  C   UNL     1      -1.621   5.383  -2.881  0.00  0.00    +0.110 C 
ENDBRANCH   7  17
ENDBRANCH   1   8
BRANCH   5  18
ATOM     18  S   UNL     1      -1.954  -0.867  -1.670  0.00  0.00    +0.061 S 
ATOM     19  O   UNL     1      -3.043  -0.618  -2.547  0.00  0.00    -0.153 OA
ATOM     20  O   UNL     1      -0.733  -1.444  -2.115  0.00  0.00    -0.153 OA
BRANCH  18  21
ATOM     21  C   UNL     1      -2.566  -1.912  -0.390  0.00  0.00    +0.106 A 
ATOM     22  C   UNL     1      -1.697  -2.722   0.316  0.00  0.00    +0.029 A 
ATOM     23  C   UNL     1      -2.177  -3.538   1.323  0.00  0.00    +0.017 A 
ATOM     24  C   UNL     1      -3.528  -3.551   1.618  0.00  0.00    +0.018 A 
ATOM     25  C   UNL     1      -4.398  -2.743   0.908  0.00  0.00    +0.017 A 
ATOM     26  C   UNL     1      -3.917  -1.924  -0.096  0.00  0.00    +0.029 A 
ATOM     27 BR   UNL     1      -4.186  -4.672   2.992  0.00  0.00    -0.050 Br
ENDBRANCH  18  21
ENDBRANCH   5  18
TORSDOF 5
