REMARK  Name = ZINC63280250
REMARK  4 active torsions:
REMARK  status: ('A' for Active; 'I' for Inactive)
REMARK    1  A    between atoms: C_1  and  C_2
REMARK    2  A    between atoms: C_5  and  N_12
REMARK    3  A    between atoms: C_8  and  C_10
REMARK    4  A    between atoms: C_8  and  C_11
REMARK                            x       y       z     vdW  Elec       q    Type
REMARK                         _______ _______ _______ _____ _____    ______ ____
ROOT
ATOM      1  N   UNL     1      -0.704  -2.344  -0.962  0.00  0.00    -0.327 N 
ATOM      2  C   UNL     1      -1.027  -3.431  -1.692  0.00  0.00    +0.129 C 
ATOM      3  N   UNL     1      -0.123  -4.061  -2.420  0.00  0.00    -0.223 NA
ATOM      4  C   UNL     1      -0.398  -5.097  -3.207  0.00  0.00    +0.225 C 
ATOM      5  N   UNL     1      -1.635  -5.396  -3.584  0.00  0.00    -0.218 NA
ATOM      6  C   UNL     1      -2.600  -4.638  -3.071  0.00  0.00    +0.164 C 
ATOM      7  N   UNL     1      -3.757  -4.230  -3.497  0.00  0.00    -0.219 NA
ATOM      8  C   UNL     1      -4.205  -3.196  -2.772  0.00  0.00    +0.218 C 
ATOM      9  N   UNL     1      -3.472  -2.949  -1.722  0.00  0.00    -0.253 NA
ATOM     10  C   UNL     1      -2.429  -3.976  -1.702  0.00  0.00    +0.237 C 
ATOM     11  H   UNL     1      -1.381  -1.897  -0.430  0.00  0.00    +0.148 HD
ENDROOT
BRANCH   1  15
ATOM     12  C   UNL     1       0.219   0.915   1.683  0.00  0.00    +0.007 C 
ATOM     13  C   UNL     1       0.189  -0.489   1.075  0.00  0.00    -0.012 C 
ATOM     14  C   UNL     1       0.701  -0.433  -0.365  0.00  0.00    +0.025 C 
ATOM     15  C   UNL     1       0.671  -1.837  -0.973  0.00  0.00    +0.072 C 
ATOM     16  C   UNL     1       1.564  -2.767  -0.150  0.00  0.00    +0.028 C 
ATOM     17  C   UNL     1       1.052  -2.824   1.291  0.00  0.00    -0.033 C 
ATOM     18  C   UNL     1       1.082  -1.420   1.898  0.00  0.00    +0.009 C 
ATOM     19  C   UNL     1       1.945  -3.755   2.114  0.00  0.00    +0.011 C 
ATOM     20  C   UNL     1      -0.383  -3.353   1.302  0.00  0.00    +0.011 C 
ENDBRANCH   1  15
TORSDOF 1
