REMARK  Name = ZINC48655884
REMARK  5 active torsions:
REMARK  status: ('A' for Active; 'I' for Inactive)
REMARK    1  A    between atoms: C_3  and  S_6
REMARK    2  A    between atoms: S_6  and  N_9
REMARK    3  A    between atoms: N_9  and  N_10
REMARK    4  A    between atoms: C_11  and  C_13
REMARK    5  A    between atoms: C_18  and  O_19
REMARK                            x       y       z     vdW  Elec       q    Type
REMARK                         _______ _______ _______ _____ _____    ______ ____
ROOT
ATOM      1  N   UNL     1       4.490   0.970   2.395  0.00  0.00    -0.228 N 
ATOM      2  C   UNL     1       5.619   0.633   3.050  0.00  0.00    +0.262 C 
ATOM      3  O   UNL     1       6.625   1.300   2.909  0.00  0.00    -0.269 OA
ATOM      4  H   UNL     1       3.687   0.438   2.507  0.00  0.00    +0.171 HD
ENDROOT
BRANCH   2   5
ATOM      5  C   UNL     1       5.632  -0.545   3.937  0.00  0.00    +0.079 A 
ATOM      6  C   UNL     1       4.479  -1.318   4.097  0.00  0.00    +0.018 A 
ATOM      7  C   UNL     1       4.498  -2.417   4.926  0.00  0.00    +0.021 A 
ATOM      8  C   UNL     1       5.657  -2.761   5.605  0.00  0.00    +0.044 A 
ATOM      9  C   UNL     1       6.805  -2.005   5.456  0.00  0.00    +0.066 A 
ATOM     10  C   UNL     1       6.804  -0.899   4.620  0.00  0.00    +0.130 A 
ATOM     11 CL   UNL     1       5.667  -4.149   6.648  0.00  0.00    -0.083 Cl
BRANCH  10  12
ATOM     12  O   UNL     1       7.931  -0.159   4.468  0.00  0.00    -0.506 OA
ATOM     13  H   UNL     1       8.015   0.564   5.104  0.00  0.00    +0.292 HD
ENDBRANCH  10  12
ENDBRANCH   2   5
BRANCH   1  14
ATOM     14  N   UNL     1       4.477   2.089   1.552  0.00  0.00    -0.107 NA
ATOM     15  H   UNL     1       4.747   2.956   1.893  0.00  0.00    +0.172 HD
BRANCH  14  16
ATOM     16  S   UNL     1       4.001   1.932  -0.026  0.00  0.00    +0.080 S 
ATOM     17  O   UNL     1       4.799   0.900  -0.590  0.00  0.00    -0.151 OA
ATOM     18  O   UNL     1       3.957   3.244  -0.570  0.00  0.00    -0.151 OA
BRANCH  16  21
ATOM     19  C   UNL     1      -0.016   1.351   0.009  0.00  0.00    +0.010 A 
ATOM     20  C   UNL     1       1.183   2.038   0.002  0.00  0.00    +0.036 A 
ATOM     21  C   UNL     1       2.343   1.336  -0.013  0.00  0.00    +0.144 A 
ATOM     22  S   UNL     1       1.754  -0.349  -0.017  0.00  0.00    -0.077 S 
ATOM     23  C   UNL     1       0.002  -0.004   0.002  0.00  0.00    +0.047 A 
ENDBRANCH  16  21
ENDBRANCH  14  16
ENDBRANCH   1  14
TORSDOF 5
