REMARK  Name = ZINC41851921
REMARK  11 active torsions:
REMARK  status: ('A' for Active; 'I' for Inactive)
REMARK    1  A    between atoms: C_1  and  C_2
REMARK    2  A    between atoms: C_2  and  C_3
REMARK    3  A    between atoms: C_2  and  C_4
REMARK    4  A    between atoms: C_2  and  C_5
REMARK    5  A    between atoms: C_5  and  C_6
REMARK    6  A    between atoms: C_6  and  C_8
REMARK    7  A    between atoms: C_6  and  N_15
REMARK    8  A    between atoms: C_16  and  C_18
REMARK    9  A    between atoms: N_20  and  C_21
REMARK   10  A    between atoms: C_24  and  C_27
REMARK   11  A    between atoms: C_27  and  C_28
REMARK                            x       y       z     vdW  Elec       q    Type
REMARK                         _______ _______ _______ _____ _____    ______ ____
ROOT
ATOM      1  N   UNL     1       2.714   1.260  -2.163  0.00  0.00    -0.301 N 
ATOM      2  C   UNL     1       3.025   2.116  -1.170  0.00  0.00    +0.300 C 
ATOM      3  O   UNL     1       3.037   1.732  -0.019  0.00  0.00    -0.265 OA
ATOM      4  H   UNL     1       2.775   1.547  -3.088  0.00  0.00    +0.150 HD
ENDROOT
BRANCH   2   5
ATOM      5  C   UNL     1       3.354   3.538  -1.486  0.00  0.00    +0.303 C 
ATOM      6  O   UNL     1       3.342   3.923  -2.637  0.00  0.00    -0.265 OA
ATOM      7  N   UNL     1       3.665   4.395  -0.492  0.00  0.00    -0.278 N 
ATOM      8  H   UNL     1       3.745   4.072   0.419  0.00  0.00    +0.155 HD
BRANCH   7   9
ATOM      9  C   UNL     1       3.873   5.747  -0.775  0.00  0.00    +0.034 A 
ATOM     10  C   UNL     1       4.804   6.476  -0.046  0.00  0.00    +0.023 A 
ATOM     11  C   UNL     1       5.006   7.813  -0.328  0.00  0.00    +0.006 A 
ATOM     12  C   UNL     1       4.283   8.426  -1.335  0.00  0.00    -0.039 A 
ATOM     13  C   UNL     1       3.355   7.703  -2.063  0.00  0.00    +0.006 A 
ATOM     14  C   UNL     1       3.152   6.365  -1.790  0.00  0.00    +0.023 A 
BRANCH  12  15
ATOM     15  C   UNL     1       4.507   9.884  -1.641  0.00  0.00    +0.130 C 
BRANCH  15  16
ATOM     16  C   UNL     1       5.590  10.020  -2.679  0.00  0.00    +0.215 C 
ATOM     17  O   UNL     1       6.128   9.030  -3.128  0.00  0.00    -0.276 OA
ATOM     18  N   UNL     1       5.962  11.242  -3.110  0.00  0.00    -0.329 N 
ATOM     19  H   UNL     1       5.532  12.034  -2.751  0.00  0.00    +0.145 HD
ATOM     20  H   UNL     1       6.659  11.329  -3.779  0.00  0.00    +0.145 HD
ENDBRANCH  15  16
ENDBRANCH  12  15
ENDBRANCH   7   9
ENDBRANCH   2   5
BRANCH   1  21
ATOM     21  C   UNL     1       2.284  -0.104  -1.847  0.00  0.00    +0.104 C 
BRANCH  21  22
ATOM     22  C   UNL     1       2.659  -1.025  -2.979  0.00  0.00    -0.027 A 
ATOM     23  C   UNL     1       2.204  -0.767  -4.259  0.00  0.00    +0.008 A 
ATOM     24  C   UNL     1       2.548  -1.611  -5.298  0.00  0.00    +0.038 A 
ATOM     25  C   UNL     1       3.349  -2.714  -5.057  0.00  0.00    +0.123 A 
ATOM     26  C   UNL     1       3.805  -2.971  -3.775  0.00  0.00    +0.038 A 
ATOM     27  C   UNL     1       3.464  -2.123  -2.739  0.00  0.00    +0.008 A 
ATOM     28  F   UNL     1       3.686  -3.539  -6.072  0.00  0.00    -0.205 F 
ENDBRANCH  21  22
BRANCH  21  29
ATOM     29  C   UNL     1       0.766  -0.128  -1.652  0.00  0.00    +0.033 C 
BRANCH  29  31
ATOM     30  C   UNL     1       1.153  -1.863   0.104  0.00  0.00    +0.010 C 
ATOM     31  C   UNL     1       0.339  -1.506  -1.142  0.00  0.00    -0.036 C 
ATOM     32  C   UNL     1       0.588  -2.552  -2.230  0.00  0.00    +0.010 C 
ATOM     33  C   UNL     1      -1.149  -1.480  -0.789  0.00  0.00    +0.010 C 
ENDBRANCH  29  31
ENDBRANCH  21  29
ENDBRANCH   1  21
TORSDOF 8
