REMARK  Name = ZINC12024194
REMARK  4 active torsions:
REMARK  status: ('A' for Active; 'I' for Inactive)
REMARK    1  A    between atoms: C_1  and  C_2
REMARK    2  A    between atoms: N_8  and  C_11
REMARK    3  A    between atoms: C_14  and  C_18
REMARK    4  A    between atoms: N_20  and  C_21
REMARK                            x       y       z     vdW  Elec       q    Type
REMARK                         _______ _______ _______ _____ _____    ______ ____
ROOT
ATOM      1  C   UNL     1       1.301  -2.006  -0.499  0.00  0.00    +0.061 A 
ATOM      2  C   UNL     1       2.582  -2.546  -0.419  0.00  0.00    +0.026 A 
ATOM      3  C   UNL     1       2.763  -3.907  -0.512  0.00  0.00    +0.016 A 
ATOM      4  C   UNL     1       1.662  -4.747  -0.700  0.00  0.00    +0.055 A 
ATOM      5  C   UNL     1       0.377  -4.200  -0.787  0.00  0.00    +0.055 A 
ATOM      6  C   UNL     1       0.202  -2.837  -0.686  0.00  0.00    +0.046 A 
ATOM      7 CL   UNL     1      -0.995  -5.238  -1.021  0.00  0.00    -0.083 Cl
ENDROOT
BRANCH   1  14
ATOM      8  C   UNL     1      -0.730   1.993   1.270  0.00  0.00    +0.019 C 
ATOM      9  C   UNL     1      -0.018   1.495   0.010  0.00  0.00    +0.097 C 
ATOM     10  C   UNL     1       1.445   2.011  -0.001  0.00  0.00    +0.201 C 
ATOM     11  S   UNL     1       2.263   0.545  -0.754  0.00  0.00    +0.053 S 
ATOM     12  O   UNL     1       3.427   0.182  -0.023  0.00  0.00    -0.155 OA
ATOM     13  O   UNL     1       2.282   0.646  -2.171  0.00  0.00    -0.155 OA
ATOM     14  N   UNL     1       1.121  -0.627  -0.398  0.00  0.00    -0.143 N 
ATOM     15  C   UNL     1       0.002  -0.004   0.002  0.00  0.00    +0.243 C 
ATOM     16  O   UNL     1      -0.971  -0.639   0.349  0.00  0.00    -0.273 OA
ENDBRANCH   1  14
BRANCH   4  17
ATOM     17  C   UNL     1       1.854  -6.205  -0.808  0.00  0.00    +0.246 C 
ATOM     18  O   UNL     1       0.894  -6.934  -0.972  0.00  0.00    -0.270 OA
ATOM     19  N   UNL     1       3.092  -6.730  -0.725  0.00  0.00    -0.307 N 
ATOM     20  H   UNL     1       3.858  -6.149  -0.594  0.00  0.00    +0.149 HD
BRANCH  19  21
ATOM     21  C   UNL     1       3.283  -8.179  -0.831  0.00  0.00    +0.096 C 
ATOM     22  C   UNL     1       3.111  -8.829   0.551  0.00  0.00    +0.046 C 
ATOM     23  C   UNL     1       3.618 -10.290   0.515  0.00  0.00    +0.168 C 
ATOM     24  S   UNL     1       4.901 -10.239  -0.802  0.00  0.00    -0.029 S 
ATOM     25  O   UNL     1       4.502 -11.088  -1.870  0.00  0.00    -0.174 OA
ATOM     26  O   UNL     1       6.181 -10.415  -0.210  0.00  0.00    -0.174 OA
ATOM     27  C   UNL     1       4.723  -8.483  -1.333  0.00  0.00    +0.188 C 
ENDBRANCH  19  21
ENDBRANCH   4  17
TORSDOF 3
