REMARK  Name = ZINC58020748
REMARK  6 active torsions:
REMARK  status: ('A' for Active; 'I' for Inactive)
REMARK    1  A    between atoms: C_1  and  C_2
REMARK    2  A    between atoms: C_6  and  S_8
REMARK    3  A    between atoms: S_8  and  N_11
REMARK    4  A    between atoms: N_11  and  C_12
REMARK    5  A    between atoms: C_18  and  C_21
REMARK    6  A    between atoms: C_21  and  N_22
REMARK                            x       y       z     vdW  Elec       q    Type
REMARK                         _______ _______ _______ _____ _____    ______ ____
ROOT
ATOM      1  C   UNL     1      -0.018   1.503   0.010  0.00  0.00    +0.044 C 
ATOM      2  C   UNL     1       0.002  -0.004   0.002  0.00  0.00    -0.048 A 
ATOM      3  C   UNL     1       0.006  -0.692  -1.199  0.00  0.00    +0.010 A 
ATOM      4  C   UNL     1       0.024  -2.069  -1.203  0.00  0.00    -0.000 A 
ATOM      5  C   UNL     1       0.032  -2.783  -0.012  0.00  0.00    +0.150 A 
ATOM      6  C   UNL     1       0.033  -2.084   1.192  0.00  0.00    +0.147 A 
ATOM      7  C   UNL     1       0.023  -0.704   1.194  0.00  0.00    +0.035 A 
ATOM      8  O   UNL     1       0.026  -4.125  -0.242  0.00  0.00    -0.488 OA
ATOM      9  C   UNL     1       0.461  -4.376  -1.590  0.00  0.00    +0.161 C 
ATOM     10  C   UNL     1       0.043  -3.083  -2.330  0.00  0.00    +0.081 C 
ENDROOT
BRANCH   6  11
ATOM     11  S   UNL     1       0.053  -2.964   2.719  0.00  0.00    +0.062 S 
ATOM     12  O   UNL     1       1.089  -3.931   2.616  0.00  0.00    -0.153 OA
ATOM     13  O   UNL     1       0.023  -1.987   3.751  0.00  0.00    -0.153 OA
BRANCH  11  14
ATOM     14  N   UNL     1      -1.371  -3.803   2.819  0.00  0.00    -0.187 NA
ATOM     15  H   UNL     1      -2.015  -3.584   3.511  0.00  0.00    +0.148 HD
BRANCH  14  16
ATOM     16  C   UNL     1      -1.658  -4.876   1.863  0.00  0.00    +0.077 C 
ATOM     17  C   UNL     1      -2.557  -4.345   0.728  0.00  0.00    +0.020 C 
ATOM     18  C   UNL     1      -3.510  -5.525   0.415  0.00  0.00    +0.002 C 
ATOM     19  C   UNL     1      -3.793  -6.117   1.818  0.00  0.00    +0.002 C 
ATOM     20  C   UNL     1      -2.444  -6.003   2.556  0.00  0.00    +0.020 C 
ENDBRANCH  14  16
ENDBRANCH  11  14
ENDBRANCH   6  11
BRANCH   9  21
ATOM     21  C   UNL     1      -0.257  -5.595  -2.172  0.00  0.00    -0.041 C 
BRANCH  21  22
ATOM     22  N   UNL     1       0.067  -6.783  -1.372  0.00  0.00    +0.380 N 
ATOM     23  H   UNL     1      -0.407  -7.587  -1.756  0.00  0.00    -0.090 HD
ATOM     24  H   UNL     1       1.063  -6.939  -1.390  0.00  0.00    -0.090 HD
ATOM     25  H   UNL     1      -0.234  -6.639  -0.419  0.00  0.00    -0.090 HD
ENDBRANCH  21  22
ENDBRANCH   9  21
TORSDOF 5
