REMARK  Name = ZINC05598907
REMARK  3 active torsions:
REMARK  status: ('A' for Active; 'I' for Inactive)
REMARK    1  A    between atoms: C_13  and  N_17
REMARK    2  A    between atoms: N_17  and  S_18
REMARK    3  A    between atoms: S_18  and  C_21
REMARK                            x       y       z     vdW  Elec       q    Type
REMARK                         _______ _______ _______ _____ _____    ______ ____
ROOT
ATOM      1  C   UNL     1       0.818   1.256  -0.479  0.00  0.00    +0.001 A 
ATOM      2  C   UNL     1      -0.416   0.661  -0.288  0.00  0.00    +0.001 A 
ATOM      3  C   UNL     1      -1.558   1.435  -0.182  0.00  0.00    +0.012 A 
ATOM      4  C   UNL     1      -1.466   2.822  -0.257  0.00  0.00    +0.033 A 
ATOM      5  C   UNL     1      -0.211   3.427  -0.452  0.00  0.00    +0.033 A 
ATOM      6  C   UNL     1       0.927   2.633  -0.562  0.00  0.00    +0.012 A 
ATOM      7  C   UNL     1      -0.105   4.898  -0.539  0.00  0.00    +0.195 C 
ATOM      8  O   UNL     1       0.978   5.422  -0.707  0.00  0.00    -0.287 OA
ATOM      9  C   UNL     1      -1.320   5.731  -0.421  0.00  0.00    +0.035 A 
ATOM     10  C   UNL     1      -1.231   7.116  -0.502  0.00  0.00    +0.012 A 
ATOM     11  C   UNL     1      -2.374   7.895  -0.393  0.00  0.00    +0.003 A 
ATOM     12  C   UNL     1      -3.607   7.309  -0.202  0.00  0.00    +0.025 A 
ATOM     13  C   UNL     1      -3.721   5.921  -0.117  0.00  0.00    +0.059 A 
ATOM     14  C   UNL     1      -2.575   5.123  -0.227  0.00  0.00    +0.055 A 
ATOM     15  C   UNL     1      -2.680   3.657  -0.139  0.00  0.00    +0.196 C 
ATOM     16  O   UNL     1      -3.764   3.133   0.029  0.00  0.00    -0.287 OA
ENDROOT
BRANCH  13  17
ATOM     17  N   UNL     1      -4.962   5.334   0.075  0.00  0.00    -0.220 N 
ATOM     18  H   UNL     1      -5.043   4.536   0.621  0.00  0.00    +0.173 HD
BRANCH  17  19
ATOM     19  S   UNL     1      -6.308   5.996  -0.627  0.00  0.00    +0.048 S 
ATOM     20  O   UNL     1      -7.361   5.096  -0.312  0.00  0.00    -0.155 OA
ATOM     21  O   UNL     1      -6.338   7.338  -0.161  0.00  0.00    -0.155 OA
BRANCH  19  22
ATOM     22  C   UNL     1      -5.968   5.962  -2.409  0.00  0.00    +0.174 C 
ATOM     23  C   UNL     1      -5.736   4.509  -2.857  0.00  0.00    +0.052 C 
ATOM     24  C   UNL     1      -5.761   4.471  -4.411  0.00  0.00    +0.168 C 
ATOM     25  S   UNL     1      -7.158   5.623  -4.754  0.00  0.00    -0.029 S 
ATOM     26  O   UNL     1      -8.361   4.873  -4.857  0.00  0.00    -0.174 OA
ATOM     27  O   UNL     1      -6.787   6.499  -5.809  0.00  0.00    -0.174 OA
ATOM     28  C   UNL     1      -7.173   6.563  -3.173  0.00  0.00    +0.194 C 
ENDBRANCH  19  22
ENDBRANCH  17  19
ENDBRANCH  13  17
TORSDOF 3
