REMARK  Name = ZINC64889652
REMARK  3 active torsions:
REMARK  status: ('A' for Active; 'I' for Inactive)
REMARK    1  A    between atoms: C_5  and  S_8
REMARK    2  A    between atoms: S_8  and  N_11
REMARK    3  A    between atoms: C_17  and  C_19
REMARK                            x       y       z     vdW  Elec       q    Type
REMARK                         _______ _______ _______ _____ _____    ______ ____
ROOT
ATOM      1  S   UNL     1       1.222  -2.445  -0.022  0.00  0.00    +0.062 S 
ATOM      2  O   UNL     1       0.399  -3.094  -0.981  0.00  0.00    -0.153 OA
ATOM      3  O   UNL     1       2.638  -2.575  -0.020  0.00  0.00    -0.153 OA
ENDROOT
BRANCH   1   8
ATOM      4  C   UNL     1       1.289   1.532   0.567  0.00  0.00    +0.049 A 
ATOM      5  C   UNL     1       0.334   1.986  -0.327  0.00  0.00    +0.077 A 
ATOM      6  C   UNL     1      -0.354   1.080  -1.132  0.00  0.00    +0.144 A 
ATOM      7  C   UNL     1      -0.080  -0.273  -1.037  0.00  0.00    +0.077 A 
ATOM      8  C   UNL     1       0.875  -0.722  -0.143  0.00  0.00    +0.127 A 
ATOM      9  C   UNL     1       1.557   0.177   0.658  0.00  0.00    +0.069 A 
ATOM     10 CL   UNL     1       2.753  -0.396   1.778  0.00  0.00    -0.081 Cl
ATOM     11  O   UNL     1      -1.291   1.538  -2.005  0.00  0.00    -0.481 OA
ATOM     12  C   UNL     1      -2.029   2.696  -1.606  0.00  0.00    +0.325 C 
ATOM     13  C   UNL     1      -1.083   3.739  -1.066  0.00  0.00    +0.255 C 
ATOM     14  O   UNL     1      -1.337   4.918  -1.198  0.00  0.00    -0.272 OA
ATOM     15  N   UNL     1       0.048   3.354  -0.435  0.00  0.00    -0.280 N 
ATOM     16  H   UNL     1       0.652   4.015  -0.062  0.00  0.00    +0.155 HD
ENDBRANCH   1   8
BRANCH   1  17
ATOM     17  N   UNL     1       0.700  -2.947   1.467  0.00  0.00    -0.174 NA
ATOM     18  C   UNL     1       1.639  -3.055   2.593  0.00  0.00    +0.128 C 
ATOM     19  C   UNL     1       1.105  -2.214   3.759  0.00  0.00    +0.125 C 
ATOM     20  N   UNL     1      -0.306  -2.559   3.979  0.00  0.00    -0.297 N 
ATOM     21  C   UNL     1      -1.246  -2.451   2.854  0.00  0.00    +0.125 C 
ATOM     22  C   UNL     1      -0.713  -3.286   1.689  0.00  0.00    +0.128 C 
ATOM     23  C   UNL     1      -0.732  -2.967   5.191  0.00  0.00    +0.245 C 
ATOM     24  O   UNL     1       0.053  -3.052   6.112  0.00  0.00    -0.273 OA
BRANCH  23  25
ATOM     25  C   UNL     1      -2.182  -3.317   5.402  0.00  0.00    +0.204 C 
ATOM     26  C   UNL     1      -3.057  -2.057   5.223  0.00  0.00    +0.043 C 
ATOM     27  C   UNL     1      -4.118  -2.232   6.343  0.00  0.00    +0.031 C 
ATOM     28  C   UNL     1      -3.274  -2.922   7.444  0.00  0.00    +0.161 C 
ATOM     29  O   UNL     1      -2.377  -3.796   6.738  0.00  0.00    -0.367 OA
ENDBRANCH  23  25
ENDBRANCH   1  17
TORSDOF 3
