REMARK  Name = ZINC67039959
REMARK  7 active torsions:
REMARK  status: ('A' for Active; 'I' for Inactive)
REMARK    1  A    between atoms: C_1  and  N_2
REMARK    2  A    between atoms: N_2  and  C_3
REMARK    3  A    between atoms: N_2  and  C_4
REMARK    4  A    between atoms: C_4  and  C_5
REMARK    5  A    between atoms: C_10  and  C_11
REMARK    6  A    between atoms: C_11  and  N_12
REMARK    7  A    between atoms: C_19  and  C_22
REMARK                            x       y       z     vdW  Elec       q    Type
REMARK                         _______ _______ _______ _____ _____    ______ ____
ROOT
ATOM      1  N   UNL     1      -0.719  -3.196   2.338  0.00  0.00    -0.295 N 
ATOM      2  C   UNL     1      -0.915  -4.385   1.734  0.00  0.00    +0.303 C 
ATOM      3  O   UNL     1      -1.857  -4.535   0.980  0.00  0.00    -0.253 OA
ATOM      4  N   UNL     1      -0.068  -5.407   1.966  0.00  0.00    -0.281 N 
ATOM      5  C   UNL     1       1.007  -5.288   2.964  0.00  0.00    +0.137 C 
ATOM      6  C   UNL     1       0.941  -6.505   3.894  0.00  0.00    +0.179 C 
ATOM      7  O   UNL     1       0.934  -7.699   3.107  0.00  0.00    -0.369 OA
ATOM      8  C   UNL     1      -0.199  -7.824   2.244  0.00  0.00    +0.166 C 
ATOM      9  C   UNL     1      -0.194  -6.677   1.234  0.00  0.00    +0.145 C 
ATOM     10  H   UNL     1      -0.011  -3.097   2.994  0.00  0.00    +0.151 HD
ENDROOT
BRANCH   8  11
ATOM     11  C   UNL     1      -0.132  -9.141   1.514  0.00  0.00    -0.015 A 
ATOM     12  C   UNL     1       1.093  -9.661   1.137  0.00  0.00    +0.006 A 
ATOM     13  C   UNL     1       1.156 -10.869   0.468  0.00  0.00    +0.003 A 
ATOM     14  C   UNL     1      -0.006 -11.558   0.174  0.00  0.00    +0.038 A 
ATOM     15  C   UNL     1      -1.232 -11.039   0.551  0.00  0.00    +0.124 A 
ATOM     16  C   UNL     1      -1.294  -9.832   1.227  0.00  0.00    +0.044 A 
ATOM     17  F   UNL     1      -2.368 -11.711   0.265  0.00  0.00    -0.205 F 
ENDBRANCH   8  11
BRANCH   1  18
ATOM     18  C   UNL     1      -1.573  -2.054   2.004  0.00  0.00    +0.141 C 
BRANCH  18  24
ATOM     19  C   UNL     1      -0.055  -0.108   2.416  0.00  0.00    -0.059 A 
ATOM     20  C   UNL     1       0.331   0.996   3.154  0.00  0.00    +0.002 A 
ATOM     21  C   UNL     1      -0.373   1.348   4.290  0.00  0.00    +0.000 A 
ATOM     22  C   UNL     1      -1.464   0.598   4.688  0.00  0.00    +0.000 A 
ATOM     23  C   UNL     1      -1.850  -0.505   3.950  0.00  0.00    +0.005 A 
ATOM     24  C   UNL     1      -1.149  -0.855   2.811  0.00  0.00    -0.029 A 
BRANCH  19  25
ATOM     25  C   UNL     1       0.713  -0.493   1.177  0.00  0.00    -0.043 C 
BRANCH  25  27
ATOM     26  C   UNL     1      -0.021   1.460  -0.007  0.00  0.00    -0.096 C 
ATOM     27  N   UNL     1      -0.002  -0.009  -0.011  0.00  0.00    +0.379 N 
ATOM     28  C   UNL     1       0.682  -0.485  -1.221  0.00  0.00    -0.096 C 
ATOM     29  H   UNL     1      -0.948  -0.357  -0.000  0.00  0.00    -0.082 HD
ENDBRANCH  25  27
ENDBRANCH  19  25
ENDBRANCH  18  24
ENDBRANCH   1  18
TORSDOF 5
