REMARK  Name = ZINC13634278
REMARK  4 active torsions:
REMARK  status: ('A' for Active; 'I' for Inactive)
REMARK    1  A    between atoms: C_3  and  C_6
REMARK    2  A    between atoms: C_16  and  S_18
REMARK    3  A    between atoms: S_18  and  C_19
REMARK    4  A    between atoms: C_19  and  C_20
REMARK                            x       y       z     vdW  Elec       q    Type
REMARK                         _______ _______ _______ _____ _____    ______ ____
ROOT
ATOM      1  C   UNL     1       6.062   3.219  -0.567  0.00  0.00    +0.068 C 
ATOM      2  C   UNL     1       5.546   1.891  -0.022  0.00  0.00    +0.068 C 
ATOM      3  C   UNL     1       4.043   1.851  -0.020  0.00  0.00    +0.058 A 
ATOM      4  C   UNL     1       3.278   3.039  -0.016  0.00  0.00    +0.057 A 
ATOM      5  C   UNL     1       1.895   2.959  -0.004  0.00  0.00    +0.129 A 
ATOM      6  N   UNL     1       1.319   1.740  -0.001  0.00  0.00    -0.202 N 
ATOM      7  C   UNL     1       2.090   0.610  -0.012  0.00  0.00    +0.254 A 
ATOM      8  N   UNL     1       3.427   0.690  -0.021  0.00  0.00    -0.215 NA
ATOM      9  N   UNL     1       1.264  -0.430  -0.011  0.00  0.00    -0.183 NA
ATOM     10  C   UNL     1       0.002  -0.004   0.002  0.00  0.00    +0.211 A 
ATOM     11  N   UNL     1      -0.016   1.313   0.009  0.00  0.00    -0.137 NA
ATOM     12  C   UNL     1       3.946   4.349  -0.028  0.00  0.00    +0.167 C 
ATOM     13  O   UNL     1       3.325   5.370  -0.234  0.00  0.00    -0.292 OA
ATOM     14  C   UNL     1       5.440   4.376   0.225  0.00  0.00    +0.091 C 
ENDROOT
BRANCH   1  17
ATOM     15  C   UNL     1       9.731   3.402  -0.870  0.00  0.00    +0.041 A 
ATOM     16  C   UNL     1       8.439   3.400  -1.445  0.00  0.00    +0.045 A 
ATOM     17  C   UNL     1       7.563   3.269  -0.433  0.00  0.00    +0.109 A 
ATOM     18  O   UNL     1       8.251   3.183   0.717  0.00  0.00    -0.468 OA
ATOM     19  C   UNL     1       9.567   3.264   0.458  0.00  0.00    +0.195 A 
ENDBRANCH   1  17
BRANCH  10  20
ATOM     20  S   UNL     1      -1.422  -1.041   0.009  0.00  0.00    -0.080 S 
BRANCH  20  21
ATOM     21  C   UNL     1      -0.741  -2.722  -0.006  0.00  0.00    +0.112 C 
BRANCH  21  22
ATOM     22  C   UNL     1      -1.869  -3.722  -0.002  0.00  0.00    -0.037 A 
ATOM     23  C   UNL     1      -2.372  -4.190   1.198  0.00  0.00    +0.006 A 
ATOM     24  C   UNL     1      -3.410  -5.103   1.203  0.00  0.00    +0.020 A 
ATOM     25  C   UNL     1      -3.939  -5.555   0.007  0.00  0.00    +0.041 A 
ATOM     26  C   UNL     1      -3.432  -5.090  -1.193  0.00  0.00    +0.020 A 
ATOM     27  C   UNL     1      -2.397  -4.173  -1.197  0.00  0.00    +0.006 A 
ATOM     28 CL   UNL     1      -5.239  -6.706   0.012  0.00  0.00    -0.084 Cl
ENDBRANCH  21  22
ENDBRANCH  20  21
ENDBRANCH  10  20
TORSDOF 4
