REMARK  Name = ZINC39995781
REMARK  2 active torsions:
REMARK  status: ('A' for Active; 'I' for Inactive)
REMARK    1  A    between atoms: C_5  and  N_9
REMARK    2  A    between atoms: N_9  and  C_10
REMARK                            x       y       z     vdW  Elec       q    Type
REMARK                         _______ _______ _______ _____ _____    ______ ____
ROOT
ATOM      1  N   UNL     1       4.350  -0.724  -0.827  0.00  0.00    -0.341 N 
ATOM      2  H   UNL     1       4.470  -1.046  -1.734  0.00  0.00    +0.146 HD
ENDROOT
BRANCH   1   7
ATOM      3  C   UNL     1      -0.019   1.526   0.010  0.00  0.00    +0.000 C 
ATOM      4  C   UNL     1       1.417   2.055  -0.000  0.00  0.00    +0.000 C 
ATOM      5  C   UNL     1       2.003   1.911  -1.406  0.00  0.00    +0.002 C 
ATOM      6  C   UNL     1       2.370   0.447  -1.657  0.00  0.00    +0.022 C 
ATOM      7  C   UNL     1       3.077  -0.122  -0.425  0.00  0.00    +0.070 C 
ATOM      8  C   UNL     1       2.191  -1.187   0.225  0.00  0.00    +0.022 C 
ATOM      9  C   UNL     1       1.056  -0.506   0.991  0.00  0.00    +0.002 C 
ATOM     10  C   UNL     1       0.002  -0.004   0.002  0.00  0.00    +0.000 C 
ENDBRANCH   1   7
BRANCH   1  11
ATOM     11  C   UNL     1       5.364  -0.833   0.071  0.00  0.00    +0.051 C 
ATOM     12  C   UNL     1       5.232  -0.396   1.363  0.00  0.00    +0.152 C 
ATOM     13  N   UNL     1       6.217  -0.502   2.232  0.00  0.00    -0.164 NA
ATOM     14  N   UNL     1       7.371  -1.000   2.005  0.00  0.00    -0.079 NA
ATOM     15  C   UNL     1       7.733  -1.494   0.811  0.00  0.00    +0.277 C 
ATOM     16  O   UNL     1       8.839  -1.961   0.629  0.00  0.00    -0.270 OA
ATOM     17  C   UNL     1       6.701  -1.450  -0.303  0.00  0.00    +0.215 C 
ATOM     18 CL   UNL     1       6.406  -3.135  -0.875  0.00  0.00    -0.105 Cl
ENDBRANCH   1  11
TORSDOF 2
