REMARK  Name = ZINC37078227
REMARK  8 active torsions:
REMARK  status: ('A' for Active; 'I' for Inactive)
REMARK    1  A    between atoms: C_1  and  C_2
REMARK    2  A    between atoms: C_2  and  N_3
REMARK    3  A    between atoms: N_3  and  C_4
REMARK    4  A    between atoms: N_3  and  S_5
REMARK    5  A    between atoms: S_5  and  C_8
REMARK    6  A    between atoms: C_9  and  C_16
REMARK    7  A    between atoms: C_12  and  N_15
REMARK    8  A    between atoms: C_13  and  C_14
REMARK                            x       y       z     vdW  Elec       q    Type
REMARK                         _______ _______ _______ _____ _____    ______ ____
ROOT
ATOM      1  C   UNL     1      -0.368   0.391  -3.710  0.00  0.00    +0.113 A 
ATOM      2  C   UNL     1      -1.381   1.251  -3.328  0.00  0.00    -0.024 A 
ATOM      3  C   UNL     1      -1.423   2.540  -3.827  0.00  0.00    +0.007 A 
ATOM      4  C   UNL     1      -0.451   2.973  -4.709  0.00  0.00    +0.023 A 
ATOM      5  C   UNL     1       0.568   2.111  -5.094  0.00  0.00    +0.029 A 
ATOM      6  C   UNL     1       0.609   0.818  -4.587  0.00  0.00    -0.003 A 
ATOM      7  C   UNL     1       1.716  -0.118  -4.997  0.00  0.00    +0.048 C 
ATOM      8  C   UNL     1      -2.443   0.783  -2.366  0.00  0.00    +0.046 C 
ENDROOT
BRANCH   1   9
ATOM      9  S   UNL     1      -0.320  -1.251  -3.071  0.00  0.00    +0.061 S 
ATOM     10  O   UNL     1      -1.113  -1.251  -1.892  0.00  0.00    -0.153 OA
ATOM     11  O   UNL     1       1.044  -1.647  -3.071  0.00  0.00    -0.153 OA
BRANCH   9  12
ATOM     12  N   UNL     1      -1.096  -2.224  -4.164  0.00  0.00    -0.180 NA
ATOM     13  C   UNL     1      -2.482  -2.633  -3.925  0.00  0.00    +0.131 C 
BRANCH  12  15
ATOM     14  C   UNL     1      -0.720  -1.733  -6.530  0.00  0.00    +0.022 C 
ATOM     15  C   UNL     1      -0.396  -2.675  -5.369  0.00  0.00    +0.106 C 
ENDBRANCH  12  15
ENDBRANCH   9  12
ENDBRANCH   1   9
BRANCH   5  16
ATOM     16  N   UNL     1       1.551   2.545  -5.986  0.00  0.00    -0.358 N 
ATOM     17  H   UNL     1       1.523   3.449  -6.337  0.00  0.00    +0.142 HD
ATOM     18  H   UNL     1       2.263   1.942  -6.254  0.00  0.00    +0.142 HD
ENDBRANCH   5  16
TORSDOF 4
