REMARK  Name = ZINC47241631
REMARK  4 active torsions:
REMARK  status: ('A' for Active; 'I' for Inactive)
REMARK    1  A    between atoms: C_1  and  C_2
REMARK    2  A    between atoms: C_5  and  N_9
REMARK    3  A    between atoms: C_10  and  C_12
REMARK    4  A    between atoms: C_15  and  N_17
REMARK                            x       y       z     vdW  Elec       q    Type
REMARK                         _______ _______ _______ _____ _____    ______ ____
ROOT
ATOM      1  N   UNL     1       0.057  -4.171  -0.023  0.00  0.00    -0.284 N 
ATOM      2  C   UNL     1      -0.042  -4.839  -1.189  0.00  0.00    +0.223 C 
ATOM      3  O   UNL     1      -0.055  -4.230  -2.238  0.00  0.00    -0.275 OA
ATOM      4  H   UNL     1       0.134  -4.660   0.811  0.00  0.00    +0.155 HD
ENDROOT
BRANCH   1   9
ATOM      5  C   UNL     1       0.026   1.503   0.005  0.00  0.00    +0.044 C 
ATOM      6  C   UNL     1       0.034  -0.004  -0.002  0.00  0.00    -0.049 A 
ATOM      7  C   UNL     1       0.632  -0.686  -1.046  0.00  0.00    +0.005 A 
ATOM      8  C   UNL     1       0.641  -2.067  -1.056  0.00  0.00    +0.024 A 
ATOM      9  C   UNL     1       0.050  -2.771  -0.015  0.00  0.00    +0.047 A 
ATOM     10  C   UNL     1      -0.549  -2.084   1.033  0.00  0.00    +0.039 A 
ATOM     11  C   UNL     1      -0.550  -0.702   1.039  0.00  0.00    +0.020 A 
ATOM     12 BR   UNL     1      -1.356  -3.038   2.452  0.00  0.00    -0.048 Br
ENDBRANCH   1   9
BRANCH   2  13
ATOM     13  C   UNL     1      -0.136  -6.343  -1.190  0.00  0.00    +0.107 C 
ATOM     14  C   UNL     1      -1.465  -6.967  -1.620  0.00  0.00    +0.047 C 
ATOM     15  C   UNL     1      -0.248  -7.043  -2.546  0.00  0.00    +0.182 C 
BRANCH  15  16
ATOM     16  N   UNL     1      -0.256  -6.200  -3.744  0.00  0.00    +0.026 N 
ATOM     17  O   UNL     1       0.602  -6.335  -4.584  0.00  0.00    -0.131 OA
ATOM     18  O   UNL     1      -1.121  -5.368  -3.892  0.00  0.00    -0.131 OA
ENDBRANCH  15  16
ENDBRANCH   2  13
TORSDOF 3
