REMARK  Name = ZINC40287386
REMARK  4 active torsions:
REMARK  status: ('A' for Active; 'I' for Inactive)
REMARK    1  A    between atoms: C_1  and  S_2
REMARK    2  A    between atoms: S_2  and  C_3
REMARK    3  A    between atoms: N_5  and  C_21
REMARK    4  A    between atoms: C_21  and  C_22
REMARK                            x       y       z     vdW  Elec       q    Type
REMARK                         _______ _______ _______ _____ _____    ______ ____
ROOT
ATOM      1  C   UNL     1       0.848  -0.411  -1.489  0.00  0.00    +0.198 A 
ATOM      2  N   UNL     1       1.328   0.445  -2.342  0.00  0.00    -0.142 NA
ATOM      3  N   UNL     1       1.926  -0.261  -3.394  0.00  0.00    -0.221 N 
ATOM      4  C   UNL     1       1.779  -1.589  -3.126  0.00  0.00    +0.238 A 
ATOM      5  N   UNL     1       1.114  -1.690  -1.936  0.00  0.00    -0.222 N 
ATOM      6  C   UNL     1       0.828  -2.895  -1.404  0.00  0.00    +0.270 A 
ATOM      7  O   UNL     1       0.234  -2.974  -0.342  0.00  0.00    -0.266 OA
ATOM      8  C   UNL     1       1.227  -4.077  -2.096  0.00  0.00    +0.076 A 
ATOM      9  C   UNL     1       1.015  -5.475  -1.697  0.00  0.00    -0.023 A 
ATOM     10  C   UNL     1       1.494  -6.421  -2.527  0.00  0.00    -0.004 A 
ATOM     11  S   UNL     1       2.234  -5.530  -3.872  0.00  0.00    -0.073 S 
ATOM     12  C   UNL     1       1.907  -3.879  -3.311  0.00  0.00    +0.118 A 
ATOM     13  N   UNL     1       2.156  -2.669  -3.789  0.00  0.00    -0.205 NA
ATOM     14  C   UNL     1       1.434  -7.907  -2.358  0.00  0.00    +0.043 C 
ATOM     15  C   UNL     1      -0.001  -8.320  -2.006  0.00  0.00    +0.005 C 
ATOM     16  C   UNL     1      -0.151  -8.291  -0.488  0.00  0.00    +0.001 C 
ATOM     17  C   UNL     1       0.723  -7.185   0.101  0.00  0.00    +0.005 C 
ATOM     18  C   UNL     1       0.275  -5.821  -0.408  0.00  0.00    +0.037 C 
ENDROOT
BRANCH   1  20
ATOM     19  C   UNL     1      -0.022   1.810   0.012  0.00  0.00    +0.093 C 
ATOM     20  S   UNL     1       0.002  -0.004   0.002  0.00  0.00    -0.089 S 
ENDBRANCH   1  20
BRANCH   3  21
ATOM     21  C   UNL     1       2.587   0.321  -4.565  0.00  0.00    +0.242 C 
BRANCH  21  22
ATOM     22  C   UNL     1       1.577   0.516  -5.666  0.00  0.00    +0.232 C 
ATOM     23  O   UNL     1       0.419   0.201  -5.490  0.00  0.00    -0.274 OA
ATOM     24  N   UNL     1       1.961   1.042  -6.847  0.00  0.00    -0.328 N 
ATOM     25  H   UNL     1       2.887   1.294  -6.987  0.00  0.00    +0.145 HD
ATOM     26  H   UNL     1       1.311   1.167  -7.556  0.00  0.00    +0.145 HD
ENDBRANCH  21  22
ENDBRANCH   3  21
TORSDOF 3
