REMARK  Name = ZINC38752727
REMARK  6 active torsions:
REMARK  status: ('A' for Active; 'I' for Inactive)
REMARK    1  A    between atoms: C_1  and  C_2
REMARK    2  A    between atoms: C_5  and  C_8
REMARK    3  A    between atoms: C_10  and  C_13
REMARK    4  A    between atoms: C_13  and  N_14
REMARK    5  A    between atoms: C_15  and  C_17
REMARK    6  A    between atoms: C_17  and  C_18
REMARK                            x       y       z     vdW  Elec       q    Type
REMARK                         _______ _______ _______ _____ _____    ______ ____
ROOT
ATOM      1  N   UNL     1      -1.298  -7.930   1.983  0.00  0.00    -0.310 N 
ATOM      2  C   UNL     1      -1.505  -9.143   2.532  0.00  0.00    +0.215 C 
ATOM      3  O   UNL     1      -0.565  -9.795   2.934  0.00  0.00    -0.276 OA
ATOM      4  H   UNL     1      -2.050  -7.408   1.661  0.00  0.00    +0.149 HD
ENDROOT
BRANCH   1   5
ATOM      5  C   UNL     1       0.063  -7.398   1.872  0.00  0.00    +0.163 C 
BRANCH   5   8
ATOM      6  C   UNL     1      -0.043  -3.817   0.973  0.00  0.00    +0.168 A 
ATOM      7  C   UNL     1      -0.009  -4.808   1.904  0.00  0.00    +0.077 A 
ATOM      8  C   UNL     1       0.020  -6.037   1.228  0.00  0.00    +0.101 A 
ATOM      9  N   UNL     1       0.004  -5.798  -0.054  0.00  0.00    -0.081 NA
ATOM     10  O   UNL     1      -0.041  -4.396  -0.242  0.00  0.00    -0.354 OA
BRANCH   6  15
ATOM     11  C   UNL     1      -0.197   1.836   2.040  0.00  0.00    +0.044 C 
ATOM     12  C   UNL     1      -0.157   0.356   1.760  0.00  0.00    -0.050 A 
ATOM     13  C   UNL     1      -0.158  -0.099   0.454  0.00  0.00    +0.004 A 
ATOM     14  C   UNL     1      -0.121  -1.453   0.191  0.00  0.00    +0.012 A 
ATOM     15  C   UNL     1      -0.082  -2.364   1.247  0.00  0.00    +0.020 A 
ATOM     16  C   UNL     1      -0.081  -1.899   2.563  0.00  0.00    +0.012 A 
ATOM     17  C   UNL     1      -0.113  -0.542   2.812  0.00  0.00    +0.004 A 
ENDBRANCH   6  15
ENDBRANCH   5   8
ENDBRANCH   1   5
BRANCH   2  18
ATOM     18  C   UNL     1      -2.905  -9.689   2.646  0.00  0.00    +0.119 C 
BRANCH  18  19
ATOM     19  C   UNL     1      -2.878 -11.001   3.433  0.00  0.00    +0.102 C 
ATOM     20  C   UNL     1      -2.366 -10.711   4.862  0.00  0.00    +0.100 C 
ATOM     21  S   UNL     1      -3.958 -10.764   5.788  0.00  0.00    -0.088 S 
ATOM     22  C   UNL     1      -4.904 -11.686   4.604  0.00  0.00    +0.159 C 
ATOM     23  N   UNL     1      -6.016 -12.327   4.790  0.00  0.00    -0.259 NA
ATOM     24  C   UNL     1      -6.570 -13.085   3.670  0.00  0.00    +0.120 C 
ATOM     25  C   UNL     1      -8.081 -13.259   3.792  0.00  0.00    +0.027 C 
ATOM     26  C   UNL     1      -8.569 -14.138   2.635  0.00  0.00    +0.002 C 
ATOM     27  C   UNL     1      -8.216 -13.491   1.296  0.00  0.00    +0.001 C 
ATOM     28  C   UNL     1      -6.701 -13.286   1.192  0.00  0.00    +0.015 C 
ATOM     29  C   UNL     1      -6.270 -12.383   2.349  0.00  0.00    +0.100 C 
ATOM     30  C   UNL     1      -4.813 -12.032   2.252  0.00  0.00    +0.227 C 
ATOM     31  O   UNL     1      -4.201 -12.134   1.210  0.00  0.00    -0.275 OA
ATOM     32  N   UNL     1      -4.208 -11.588   3.407  0.00  0.00    -0.246 N 
ENDBRANCH  18  19
ENDBRANCH   2  18
TORSDOF 5
