REMARK  Name = ZINC13003069
REMARK  6 active torsions:
REMARK  status: ('A' for Active; 'I' for Inactive)
REMARK    1  A    between atoms: C_4  and  C_7
REMARK    2  A    between atoms: C_7  and  N_52
REMARK    3  A    between atoms: C_8  and  C_9
REMARK    4  A    between atoms: C_8  and  N_52
REMARK    5  A    between atoms: C_22  and  C_24
REMARK    6  A    between atoms: C_28  and  N_52
REMARK                            x       y       z     vdW  Elec       q    Type
REMARK                         _______ _______ _______ _____ _____    ______ ____
ROOT
ATOM      1  C   UNL     1       5.980  -1.574  -2.764  0.00  0.00    +0.204 C 
ATOM      2  O   UNL     1       5.344  -1.198  -3.725  0.00  0.00    -0.277 OA
ATOM      3  N   UNL     1       7.195  -2.131  -2.935  0.00  0.00    -0.259 N 
ATOM      4  C   UNL     1       7.941  -2.570  -1.832  0.00  0.00    +0.058 A 
ATOM      5  C   UNL     1       7.567  -3.705  -1.133  0.00  0.00    +0.025 A 
ATOM      6  C   UNL     1       8.329  -4.136  -0.062  0.00  0.00    +0.002 A 
ATOM      7  C   UNL     1       9.463  -3.438   0.312  0.00  0.00    +0.002 A 
ATOM      8  C   UNL     1       9.838  -2.299  -0.376  0.00  0.00    +0.025 A 
ATOM      9  C   UNL     1       9.075  -1.855  -1.442  0.00  0.00    +0.055 A 
ATOM     10  N   UNL     1       9.403  -0.674  -2.118  0.00  0.00    -0.284 N 
ATOM     11  C   UNL     1       9.445  -0.646  -3.467  0.00  0.00    +0.219 C 
ATOM     12  O   UNL     1       9.649   0.402  -4.042  0.00  0.00    -0.275 OA
ATOM     13  C   UNL     1       9.242  -1.908  -4.263  0.00  0.00    +0.128 C 
ATOM     14  C   UNL     1       7.758  -2.294  -4.277  0.00  0.00    +0.194 C 
ATOM     15  H   UNL     1       9.601   0.130  -1.613  0.00  0.00    +0.155 HD
ENDROOT
BRANCH  14  16
ATOM     16  C   UNL     1       7.611  -3.752  -4.716  0.00  0.00    +0.409 C 
ATOM     17  F   UNL     1       6.255  -4.099  -4.733  0.00  0.00    -0.169 F 
ATOM     18  F   UNL     1       8.148  -3.909  -5.998  0.00  0.00    -0.169 F 
ATOM     19  F   UNL     1       8.294  -4.581  -3.820  0.00  0.00    -0.169 F 
ENDBRANCH  14  16
BRANCH   1  20
ATOM     20  C   UNL     1       5.411  -1.419  -1.377  0.00  0.00    +0.020 C 
BRANCH  20  21
ATOM     21  N   UNL     1       4.032  -0.897  -1.486  0.00  0.00    +0.390 N 
ATOM     22  H   UNL     1       3.555  -1.377  -2.259  0.00  0.00    -0.080 HD
BRANCH  21  23
ATOM     23  C   UNL     1       3.294  -1.155  -0.232  0.00  0.00    -0.068 C 
ATOM     24  C   UNL     1       4.083  -1.651   0.982  0.00  0.00    -0.017 C 
ATOM     25  C   UNL     1       3.172  -2.613   0.215  0.00  0.00    -0.017 C 
ENDBRANCH  21  23
BRANCH  21  26
ATOM     26  C   UNL     1       4.062   0.554  -1.766  0.00  0.00    -0.042 C 
BRANCH  26  30
ATOM     27  C   UNL     1       0.100   1.860  -2.684  0.00  0.00    +0.000 A 
ATOM     28  C   UNL     1       0.928   1.404  -3.692  0.00  0.00    +0.000 A 
ATOM     29  C   UNL     1       2.210   0.981  -3.395  0.00  0.00    +0.002 A 
ATOM     30  C   UNL     1       2.664   1.014  -2.090  0.00  0.00    -0.064 A 
ATOM     31  C   UNL     1       1.836   1.471  -1.082  0.00  0.00    +0.002 A 
ATOM     32  C   UNL     1       0.554   1.894  -1.379  0.00  0.00    +0.000 A 
ENDBRANCH  26  30
ENDBRANCH  21  26
ENDBRANCH  20  21
ENDBRANCH   1  20
TORSDOF 6
