REMARK  Name = ZINC39442702
REMARK  9 active torsions:
REMARK  status: ('A' for Active; 'I' for Inactive)
REMARK    1  A    between atoms: C_1  and  C_2
REMARK    2  A    between atoms: C_5  and  N_8
REMARK    3  A    between atoms: C_10  and  C_21
REMARK    4  A    between atoms: C_11  and  C_14
REMARK    5  A    between atoms: C_21  and  N_22
REMARK    6  A    between atoms: N_22  and  C_23
REMARK    7  A    between atoms: N_22  and  C_24
REMARK    8  A    between atoms: C_24  and  C_25
REMARK    9  A    between atoms: C_28  and  C_31
REMARK                            x       y       z     vdW  Elec       q    Type
REMARK                         _______ _______ _______ _____ _____    ______ ____
ROOT
ATOM      1  N   UNL     1      -0.883  -3.838  -0.154  0.00  0.00    -0.242 N 
ATOM      2  C   UNL     1      -0.696  -4.711  -1.208  0.00  0.00    +0.093 C 
ATOM      3  C   UNL     1      -0.416  -5.928  -0.789  0.00  0.00    -0.048 C 
ATOM      4  C   UNL     1      -0.410  -5.880   0.724  0.00  0.00    +0.128 C 
ATOM      5  N   UNL     1      -0.721  -4.473   1.044  0.00  0.00    -0.225 NA
ATOM      6  H   UNL     1       0.022  -4.050   1.580  0.00  0.00    +0.146 HD
ENDROOT
BRANCH   1  11
ATOM      7  C   UNL     1      -2.136   1.664  -0.727  0.00  0.00    +0.044 C 
ATOM      8  C   UNL     1      -1.803   0.202  -0.575  0.00  0.00    -0.050 A 
ATOM      9  C   UNL     1      -1.641  -0.589  -1.697  0.00  0.00    +0.005 A 
ATOM     10  C   UNL     1      -1.336  -1.929  -1.562  0.00  0.00    +0.025 A 
ATOM     11  C   UNL     1      -1.191  -2.482  -0.295  0.00  0.00    +0.049 A 
ATOM     12  C   UNL     1      -1.354  -1.685   0.831  0.00  0.00    +0.025 A 
ATOM     13  C   UNL     1      -1.655  -0.344   0.687  0.00  0.00    +0.005 A 
ENDBRANCH   1  11
BRANCH   4  14
ATOM     14  C   UNL     1      -1.464  -6.801   1.284  0.00  0.00    -0.025 A 
ATOM     15  C   UNL     1      -2.786  -6.398   1.317  0.00  0.00    +0.008 A 
ATOM     16  C   UNL     1      -3.753  -7.241   1.830  0.00  0.00    +0.038 A 
ATOM     17  C   UNL     1      -3.398  -8.490   2.311  0.00  0.00    +0.123 A 
ATOM     18  C   UNL     1      -2.073  -8.892   2.277  0.00  0.00    +0.038 A 
ATOM     19  C   UNL     1      -1.109  -8.049   1.759  0.00  0.00    +0.008 A 
ATOM     20  F   UNL     1      -4.342  -9.315   2.813  0.00  0.00    -0.205 F 
ENDBRANCH   4  14
BRANCH   3  21
ATOM     21  C   UNL     1      -0.152  -7.136  -1.651  0.00  0.00    -0.044 C 
BRANCH  21  22
ATOM     22  N   UNL     1      -1.395  -7.900  -1.818  0.00  0.00    +0.382 N 
ATOM     23  C   UNL     1      -2.375  -7.086  -2.551  0.00  0.00    -0.096 C 
ATOM     24  H   UNL     1      -1.768  -8.139  -0.911  0.00  0.00    -0.082 HD
BRANCH  22  25
ATOM     25  C   UNL     1      -1.118  -9.129  -2.573  0.00  0.00    -0.046 C 
BRANCH  25  26
ATOM     26  C   UNL     1      -0.212 -10.042  -1.746  0.00  0.00    +0.136 C 
ATOM     27  C   UNL     1      -0.105 -11.415  -2.385  0.00  0.00    +0.024 C 
ATOM     28  C   UNL     1      -0.612 -12.238  -1.464  0.00  0.00    +0.058 C 
ATOM     29  N   UNL     1      -1.004 -11.550  -0.369  0.00  0.00    -0.159 NA
ATOM     30  N   UNL     1      -0.819 -10.329  -0.435  0.00  0.00    -0.182 NA
ATOM     31  C   UNL     1      -0.730 -13.732  -1.624  0.00  0.00    +0.067 C 
ENDBRANCH  25  26
ENDBRANCH  22  25
ENDBRANCH  21  22
ENDBRANCH   3  21
TORSDOF 6
