REMARK  Name = ZINC27791961
REMARK  3 active torsions:
REMARK  status: ('A' for Active; 'I' for Inactive)
REMARK    1  A    between atoms: C_1  and  C_2
REMARK    2  A    between atoms: N_7  and  C_9
REMARK    3  A    between atoms: N_14  and  C_17
REMARK                            x       y       z     vdW  Elec       q    Type
REMARK                         _______ _______ _______ _____ _____    ______ ____
ROOT
ATOM      1  C   UNL     1      -1.587   5.018   2.479  0.00  0.00    +0.029 C 
ATOM      2  C   UNL     1      -2.266   5.558   3.754  0.00  0.00    +0.090 C 
ATOM      3  C   UNL     1      -3.527   6.213   3.233  0.00  0.00    +0.225 C 
ATOM      4  O   UNL     1      -4.362   6.769   3.914  0.00  0.00    -0.275 OA
ATOM      5  N   UNL     1      -3.575   6.079   1.902  0.00  0.00    -0.212 N 
ATOM      6  C   UNL     1      -2.536   5.424   1.372  0.00  0.00    +0.213 C 
ATOM      7  O   UNL     1      -2.379   5.192   0.193  0.00  0.00    -0.277 OA
ENDROOT
BRANCH   1  13
ATOM      8  C   UNL     1      -0.149   0.955   0.108  0.00  0.00    +0.005 C 
ATOM      9  C   UNL     1      -0.836   1.501   1.362  0.00  0.00    -0.031 C 
ATOM     10  C   UNL     1      -0.089   1.015   2.607  0.00  0.00    -0.001 C 
ATOM     11  C   UNL     1      -0.747   1.614   3.853  0.00  0.00    -0.018 C 
ATOM     12  C   UNL     1      -0.733   3.140   3.747  0.00  0.00    -0.078 C 
ATOM     13  N   UNL     1      -1.460   3.555   2.541  0.00  0.00    +0.388 N 
ATOM     14  C   UNL     1      -0.820   3.031   1.328  0.00  0.00    -0.075 C 
ATOM     15  H   UNL     1      -2.473   3.129   2.596  0.00  0.00    -0.081 HD
ENDBRANCH   1  13
BRANCH   5  16
ATOM     16  C   UNL     1      -4.629   6.585   1.127  0.00  0.00    +0.045 A 
ATOM     17  C   UNL     1      -5.900   6.036   1.238  0.00  0.00    +0.027 A 
ATOM     18  C   UNL     1      -6.938   6.538   0.477  0.00  0.00    +0.041 A 
ATOM     19  C   UNL     1      -6.710   7.581  -0.404  0.00  0.00    +0.142 A 
ATOM     20  C   UNL     1      -5.442   8.127  -0.521  0.00  0.00    +0.078 A 
ATOM     21  C   UNL     1      -4.402   7.630   0.243  0.00  0.00    +0.046 A 
ATOM     22 CL   UNL     1      -5.159   9.435  -1.627  0.00  0.00    -0.081 Cl
ATOM     23  F   UNL     1      -7.726   8.067  -1.151  0.00  0.00    -0.204 F 
ENDBRANCH   5  16
TORSDOF 2
