REMARK  Name = ZINC66218408
REMARK  12 active torsions:
REMARK  status: ('A' for Active; 'I' for Inactive)
REMARK    1  A    between atoms: C_1  and  C_2
REMARK    2  A    between atoms: C_4  and  O_28
REMARK    3  A    between atoms: C_7  and  N_8
REMARK    4  A    between atoms: C_9  and  C_11
REMARK    5  A    between atoms: N_13  and  C_14
REMARK    6  A    between atoms: C_14  and  C_15
REMARK    7  A    between atoms: C_15  and  C_16
REMARK    8  A    between atoms: C_15  and  C_17
REMARK    9  A    between atoms: C_15  and  N_18
REMARK   10  A    between atoms: C_20  and  C_27
REMARK   11  A    between atoms: C_23  and  C_26
REMARK   12  A    between atoms: O_28  and  C_29
REMARK                            x       y       z     vdW  Elec       q    Type
REMARK                         _______ _______ _______ _____ _____    ______ ____
ROOT
ATOM      1  C   UNL     1       1.635   1.680   6.265  0.00  0.00    +0.299 C 
ATOM      2  O   UNL     1       0.790   1.914   5.426  0.00  0.00    -0.265 OA
ATOM      3  N   UNL     1       1.465   0.658   7.127  0.00  0.00    -0.309 N 
ATOM      4  H   UNL     1       2.140   0.471   7.797  0.00  0.00    +0.149 HD
ENDROOT
BRANCH   1   6
ATOM      5  N   UNL     1       3.034   3.548   5.482  0.00  0.00    -0.278 N 
ATOM      6  C   UNL     1       2.864   2.526   6.343  0.00  0.00    +0.303 C 
ATOM      7  O   UNL     1       3.709   2.292   7.183  0.00  0.00    -0.265 OA
ATOM      8  H   UNL     1       2.333   3.771   4.849  0.00  0.00    +0.155 HD
BRANCH   5  15
ATOM      9  C   UNL     1       4.036   4.534   3.010  0.00  0.00    +0.046 C 
ATOM     10  C   UNL     1       4.746   4.787   4.314  0.00  0.00    -0.026 A 
ATOM     11  C   UNL     1       5.915   5.521   4.333  0.00  0.00    +0.050 A 
ATOM     12  C   UNL     1       6.569   5.754   5.535  0.00  0.00    +0.120 A 
ATOM     13  C   UNL     1       6.048   5.250   6.718  0.00  0.00    +0.047 A 
ATOM     14  C   UNL     1       4.880   4.516   6.701  0.00  0.00    +0.027 A 
ATOM     15  C   UNL     1       4.221   4.287   5.499  0.00  0.00    +0.037 A 
BRANCH  12  16
ATOM     16  O   UNL     1       7.720   6.477   5.553  0.00  0.00    -0.495 OA
ATOM     17  C   UNL     1       8.340   6.679   6.824  0.00  0.00    +0.277 C 
ENDBRANCH  12  16
ENDBRANCH   5  15
ENDBRANCH   1   6
BRANCH   3  18
ATOM     18  C   UNL     1       0.259  -0.172   7.050  0.00  0.00    +0.092 C 
BRANCH  18  19
ATOM     19  C   UNL     1       0.255  -1.172   8.208  0.00  0.00    -0.055 C 
ATOM     20  C   UNL     1       0.243  -0.414   9.537  0.00  0.00    -0.008 C 
ATOM     21  C   UNL     1      -0.991  -2.055   8.113  0.00  0.00    -0.008 C 
BRANCH  19  22
ATOM     22  N   UNL     1       1.457  -2.012   8.134  0.00  0.00    +0.384 N 
ATOM     23  C   UNL     1       1.525  -2.653   6.815  0.00  0.00    -0.075 C 
ATOM     24  C   UNL     1       2.817  -3.465   6.704  0.00  0.00    -0.031 C 
ATOM     25  C   UNL     1       2.835  -4.538   7.796  0.00  0.00    +0.003 C 
ATOM     26  C   UNL     1       2.689  -3.864   9.163  0.00  0.00    -0.031 C 
ATOM     27  C   UNL     1       1.402  -3.037   9.183  0.00  0.00    -0.075 C 
ATOM     28  C   UNL     1       2.628  -4.933  10.256  0.00  0.00    +0.005 C 
ATOM     29  C   UNL     1       4.020  -2.536   6.879  0.00  0.00    +0.005 C 
ATOM     30  H   UNL     1       2.276  -1.438   8.269  0.00  0.00    -0.081 HD
ENDBRANCH  19  22
ENDBRANCH  18  19
ENDBRANCH   3  18
TORSDOF 6
