REMARK  Name = ZINC39356422
REMARK  5 active torsions:
REMARK  status: ('A' for Active; 'I' for Inactive)
REMARK    1  A    between atoms: C_6  and  C_7
REMARK    2  A    between atoms: C_11  and  C_13
REMARK    3  A    between atoms: C_13  and  N_14
REMARK    4  A    between atoms: C_18  and  C_21
REMARK    5  A    between atoms: C_23  and  C_27
REMARK                            x       y       z     vdW  Elec       q    Type
REMARK                         _______ _______ _______ _____ _____    ______ ____
ROOT
ATOM      1  N   UNL     1      -0.880  -4.336  -1.189  0.00  0.00    +0.381 N 
ATOM      2  C   UNL     1      -0.037  -4.805  -0.083  0.00  0.00    -0.079 C 
ATOM      3  C   UNL     1      -0.164  -6.324   0.051  0.00  0.00    -0.018 C 
ATOM      4  C   UNL     1       0.289  -6.986  -1.254  0.00  0.00    +0.002 C 
ATOM      5  C   UNL     1      -0.548  -6.433  -2.412  0.00  0.00    +0.003 C 
ATOM      6  C   UNL     1      -0.407  -4.910  -2.454  0.00  0.00    -0.073 C 
ATOM      7  H   UNL     1      -1.834  -4.621  -1.027  0.00  0.00    -0.082 HD
ENDROOT
BRANCH   5   8
ATOM      8  C   UNL     1      -0.053  -7.030  -3.730  0.00  0.00    +0.161 C 
ATOM      9  C   UNL     1      -0.234  -8.539  -3.740  0.00  0.00    +0.009 C 
ATOM     10  C   UNL     1       1.030  -9.010  -3.860  0.00  0.00    +0.141 C 
ATOM     11  N   UNL     1       1.906  -8.000  -3.921  0.00  0.00    -0.162 NA
ATOM     12  N   UNL     1       1.406  -6.870  -3.860  0.00  0.00    -0.179 NA
BRANCH   9  13
ATOM     13  C   UNL     1      -1.485  -9.305  -3.641  0.00  0.00    +0.020 A 
ATOM     14  C   UNL     1      -2.145  -9.419  -2.413  0.00  0.00    +0.049 A 
ATOM     15  C   UNL     1      -3.319 -10.140  -2.328  0.00  0.00    +0.124 A 
ATOM     16  C   UNL     1      -3.845 -10.751  -3.457  0.00  0.00    +0.041 A 
ATOM     17  C   UNL     1      -3.199 -10.643  -4.674  0.00  0.00    +0.042 A 
ATOM     18  C   UNL     1      -2.026  -9.920  -4.777  0.00  0.00    +0.131 A 
ATOM     19  F   UNL     1      -1.400  -9.810  -5.969  0.00  0.00    -0.205 F 
ATOM     20  F   UNL     1      -3.957 -10.251  -1.143  0.00  0.00    -0.205 F 
ENDBRANCH   9  13
ENDBRANCH   5   8
BRANCH   1  21
ATOM     21  C   UNL     1      -0.815  -2.870  -1.264  0.00  0.00    -0.063 C 
BRANCH  21  26
ATOM     22  C   UNL     1      -1.260  -0.760   0.011  0.00  0.00    +0.077 C 
ATOM     23  N   UNL     1      -2.470  -0.272   0.019  0.00  0.00    -0.153 NA
ATOM     24  N   UNL     1      -3.439  -1.270   0.026  0.00  0.00    -0.161 NA
ATOM     25  C   UNL     1      -2.927  -2.457   0.021  0.00  0.00    +0.115 C 
ATOM     26  C   UNL     1      -1.423  -2.267   0.004  0.00  0.00    +0.066 C 
BRANCH  22  32
ATOM     27  C   UNL     1      -0.017   1.395   0.010  0.00  0.00    +0.012 A 
ATOM     28  C   UNL     1       1.169   2.097   0.002  0.00  0.00    +0.039 A 
ATOM     29  C   UNL     1       2.379   1.420  -0.013  0.00  0.00    +0.123 A 
ATOM     30  C   UNL     1       2.405   0.033  -0.022  0.00  0.00    +0.039 A 
ATOM     31  C   UNL     1       1.226  -0.681  -0.014  0.00  0.00    +0.012 A 
ATOM     32  C   UNL     1       0.002  -0.004   0.002  0.00  0.00    -0.001 A 
ATOM     33  F   UNL     1       3.538   2.114  -0.021  0.00  0.00    -0.205 F 
ENDBRANCH  22  32
ENDBRANCH  21  26
ENDBRANCH   1  21
TORSDOF 5
