REMARK  Name = ZINC64392053
REMARK  4 active torsions:
REMARK  status: ('A' for Active; 'I' for Inactive)
REMARK    1  A    between atoms: C_4  and  C_7
REMARK    2  A    between atoms: C_9  and  C_13
REMARK    3  A    between atoms: N_23  and  C_26
REMARK    4  A    between atoms: C_26  and  C_27
REMARK                            x       y       z     vdW  Elec       q    Type
REMARK                         _______ _______ _______ _____ _____    ______ ____
ROOT
ATOM      1  C   UNL     1       5.369  -3.515   0.394  0.00  0.00    +0.006 A 
ATOM      2  C   UNL     1       4.388  -3.809   1.327  0.00  0.00    +0.009 A 
ATOM      3  C   UNL     1       4.452  -4.973   2.064  0.00  0.00    +0.016 A 
ATOM      4  C   UNL     1       5.512  -5.854   1.865  0.00  0.00    +0.063 A 
ATOM      5  C   UNL     1       6.507  -5.555   0.918  0.00  0.00    +0.056 A 
ATOM      6  C   UNL     1       6.423  -4.383   0.182  0.00  0.00    +0.034 A 
ATOM      7  N   UNL     1       7.551  -6.451   0.741  0.00  0.00    -0.307 N 
ATOM      8  H   UNL     1       8.245  -6.257   0.091  0.00  0.00    +0.170 HD
ATOM      9  C   UNL     1       7.610  -7.585   1.460  0.00  0.00    +0.330 A 
ATOM     10  O   UNL     1       8.542  -8.343   1.275  0.00  0.00    -0.246 OA
ATOM     11  N   UNL     1       6.685  -7.915   2.375  0.00  0.00    -0.256 N 
ATOM     12  C   UNL     1       5.628  -7.112   2.625  0.00  0.00    +0.265 A 
ATOM     13  O   UNL     1       4.795  -7.418   3.455  0.00  0.00    -0.267 OA
ENDROOT
BRANCH   1  16
ATOM     14  C   UNL     1       3.697  -0.687  -0.037  0.00  0.00    +0.134 C 
ATOM     15  N   UNL     1       3.880  -1.848  -0.586  0.00  0.00    -0.339 N 
ATOM     16  C   UNL     1       5.283  -2.239  -0.403  0.00  0.00    +0.274 C 
ATOM     17  O   UNL     1       5.890  -1.157   0.321  0.00  0.00    -0.243 OA
ATOM     18  N   UNL     1       4.856  -0.207   0.520  0.00  0.00    -0.247 N 
ATOM     19  H   UNL     1       4.951   0.642   0.979  0.00  0.00    +0.196 HD
ATOM     20  H   UNL     1       3.202  -2.372  -1.041  0.00  0.00    +0.164 HD
BRANCH  14  24
ATOM     21  C   UNL     1      -0.017   1.379   0.010  0.00  0.00    +0.000 A 
ATOM     22  C   UNL     1       1.169   2.093   0.002  0.00  0.00    +0.001 A 
ATOM     23  C   UNL     1       2.377   1.427  -0.013  0.00  0.00    +0.011 A 
ATOM     24  C   UNL     1       2.403   0.033  -0.021  0.00  0.00    +0.017 A 
ATOM     25  C   UNL     1       1.205  -0.680  -0.013  0.00  0.00    +0.011 A 
ATOM     26  C   UNL     1       0.002  -0.004   0.002  0.00  0.00    +0.001 A 
ENDBRANCH  14  24
ENDBRANCH   1  16
BRANCH  11  27
ATOM     27  C   UNL     1       6.825  -9.170   3.117  0.00  0.00    +0.168 C 
BRANCH  27  28
ATOM     28  C   UNL     1       7.622  -8.926   4.372  0.00  0.00    +0.008 A 
ATOM     29  C   UNL     1       8.966  -9.245   4.411  0.00  0.00    +0.008 A 
ATOM     30  C   UNL     1       9.698  -9.022   5.562  0.00  0.00    +0.000 A 
ATOM     31  C   UNL     1       9.086  -8.478   6.676  0.00  0.00    +0.003 A 
ATOM     32  C   UNL     1       7.742  -8.158   6.640  0.00  0.00    +0.039 A 
ATOM     33  C   UNL     1       7.010  -8.377   5.486  0.00  0.00    +0.128 A 
ATOM     34  F   UNL     1       5.697  -8.059   5.448  0.00  0.00    -0.205 F 
ENDBRANCH  27  28
ENDBRANCH  11  27
TORSDOF 4
