REMARK  Name = ZINC45148904
REMARK  7 active torsions:
REMARK  status: ('A' for Active; 'I' for Inactive)
REMARK    1  A    between atoms: C_1  and  C_2
REMARK    2  A    between atoms: C_2  and  C_3
REMARK    3  A    between atoms: C_2  and  C_4
REMARK    4  A    between atoms: C_4  and  C_6
REMARK    5  A    between atoms: C_4  and  N_14
REMARK    6  A    between atoms: C_9  and  O_12
REMARK    7  A    between atoms: O_12  and  C_13
REMARK                            x       y       z     vdW  Elec       q    Type
REMARK                         _______ _______ _______ _____ _____    ______ ____
ROOT
ATOM      1  N   UNL     1      -1.418  -1.998   0.005  0.00  0.00    -0.292 N 
ATOM      2  C   UNL     1      -1.292  -2.677   1.163  0.00  0.00    +0.303 C 
ATOM      3  O   UNL     1      -1.102  -2.076   2.203  0.00  0.00    -0.253 OA
ATOM      4  N   UNL     1      -1.374  -4.022   1.167  0.00  0.00    -0.285 N 
ATOM      5  C   UNL     1      -1.359  -4.769   2.433  0.00  0.00    +0.114 C 
ATOM      6  C   UNL     1      -0.253  -5.827   2.368  0.00  0.00    +0.084 C 
ATOM      7  C   UNL     1      -0.454  -6.694   1.124  0.00  0.00    +0.173 C 
ATOM      8  C   UNL     1      -0.374  -5.828  -0.134  0.00  0.00    +0.084 C 
ATOM      9  C   UNL     1      -1.488  -4.770  -0.092  0.00  0.00    +0.114 C 
ATOM     10  O   UNL     1       0.560  -7.707   1.076  0.00  0.00    -0.346 OA
ATOM     11  C   UNL     1      -0.110  -8.984   1.095  0.00  0.00    +0.191 C 
ATOM     12  C   UNL     1      -1.538  -8.638   0.603  0.00  0.00    +0.191 C 
ATOM     13  O   UNL     1      -1.741  -7.329   1.187  0.00  0.00    -0.346 OA
ATOM     14  H   UNL     1      -1.506  -2.479  -0.832  0.00  0.00    +0.151 HD
ENDROOT
BRANCH   1  15
ATOM     15  C   UNL     1      -1.424  -0.533   0.013  0.00  0.00    +0.107 C 
BRANCH  15  16
ATOM     16  C   UNL     1      -2.160  -0.028  -1.201  0.00  0.00    -0.027 A 
ATOM     17  C   UNL     1      -1.997  -0.660  -2.420  0.00  0.00    +0.009 A 
ATOM     18  C   UNL     1      -2.670  -0.198  -3.535  0.00  0.00    +0.046 A 
ATOM     19  C   UNL     1      -3.511   0.900  -3.430  0.00  0.00    +0.120 A 
ATOM     20  C   UNL     1      -3.673   1.533  -2.206  0.00  0.00    +0.046 A 
ATOM     21  C   UNL     1      -3.002   1.064  -1.093  0.00  0.00    +0.009 A 
BRANCH  19  22
ATOM     22  O   UNL     1      -4.174   1.357  -4.525  0.00  0.00    -0.495 OA
ATOM     23  C   UNL     1      -5.023   2.492  -4.343  0.00  0.00    +0.277 C 
ENDBRANCH  19  22
ENDBRANCH  15  16
BRANCH  15  25
ATOM     24  C   UNL     1       0.011   1.512  -0.006  0.00  0.00    +0.009 C 
ATOM     25  C   UNL     1       0.016  -0.018  -0.013  0.00  0.00    +0.008 C 
ATOM     26  C   UNL     1       0.764  -0.531   1.220  0.00  0.00    +0.009 C 
ENDBRANCH  15  25
ENDBRANCH   1  15
TORSDOF 4
