REMARK  Name = ZINC65260159
REMARK  9 active torsions:
REMARK  status: ('A' for Active; 'I' for Inactive)
REMARK    1  A    between atoms: C_1  and  C_2
REMARK    2  A    between atoms: C_2  and  C_3
REMARK    3  A    between atoms: C_3  and  C_4
REMARK    4  A    between atoms: C_4  and  S_5
REMARK    5  A    between atoms: S_5  and  N_8
REMARK    6  A    between atoms: N_23  and  C_24
REMARK    7  A    between atoms: C_24  and  C_25
REMARK    8  A    between atoms: C_24  and  C_26
REMARK    9  A    between atoms: C_24  and  C_27
REMARK                            x       y       z     vdW  Elec       q    Type
REMARK                         _______ _______ _______ _____ _____    ______ ____
ROOT
ATOM      1  N   UNL     1       2.935  -3.829   3.230  0.00  0.00    -0.179 NA
ATOM      2  C   UNL     1       1.635  -4.329   3.699  0.00  0.00    +0.109 C 
ATOM      3  C   UNL     1       1.854  -5.638   4.465  0.00  0.00    +0.020 C 
ATOM      4  C   UNL     1       2.618  -6.622   3.575  0.00  0.00    +0.036 C 
ATOM      5  C   UNL     1       3.979  -6.033   3.210  0.00  0.00    +0.100 C 
ATOM      6  C   UNL     1       3.790  -4.724   2.437  0.00  0.00    +0.142 C 
ATOM      7  C   UNL     1       4.749  -7.019   2.357  0.00  0.00    +0.098 C 
ATOM      8  N   UNL     1       6.084  -6.732   2.136  0.00  0.00    -0.301 N 
ATOM      9  C   UNL     1       6.816  -6.176   3.199  0.00  0.00    +0.053 A 
ATOM     10  C   UNL     1       8.198  -6.101   3.122  0.00  0.00    +0.025 A 
ATOM     11  C   UNL     1       8.918  -5.549   4.165  0.00  0.00    +0.002 A 
ATOM     12  C   UNL     1       8.264  -5.070   5.285  0.00  0.00    +0.002 A 
ATOM     13  C   UNL     1       6.886  -5.143   5.371  0.00  0.00    +0.025 A 
ATOM     14  C   UNL     1       6.156  -5.699   4.331  0.00  0.00    +0.049 A 
ATOM     15  N   UNL     1       4.760  -5.789   4.429  0.00  0.00    -0.329 N 
ATOM     16  N   UNL     1       4.188  -8.074   1.861  0.00  0.00    -0.370 N 
ATOM     17  H   UNL     1       4.318  -5.691   5.287  0.00  0.00    +0.147 HD
ATOM     18  H   UNL     1       3.276  -8.297   2.102  0.00  0.00    +0.161 HD
ATOM     19  H   UNL     1       6.500  -6.908   1.278  0.00  0.00    +0.153 HD
ENDROOT
BRANCH  16  20
ATOM     20  C   UNL     1       4.932  -8.932   0.935  0.00  0.00    +0.031 C 
ATOM     21  C   UNL     1       6.251  -9.359   1.583  0.00  0.00    +0.033 C 
ATOM     22  C   UNL     1       4.099 -10.174   0.610  0.00  0.00    +0.033 C 
ATOM     23  C   UNL     1       5.223  -8.161  -0.353  0.00  0.00    +0.033 C 
ENDBRANCH  16  20
BRANCH   1  24
ATOM     24  S   UNL     1       3.423  -2.287   3.583  0.00  0.00    +0.032 S 
ATOM     25  O   UNL     1       4.843  -2.340   3.547  0.00  0.00    -0.158 OA
ATOM     26  O   UNL     1       2.741  -1.956   4.785  0.00  0.00    -0.158 OA
BRANCH  24  27
ATOM     27  C   UNL     1       2.800  -1.276   2.212  0.00  0.00    +0.185 C 
BRANCH  27  28
ATOM     28  C   UNL     1       3.198   0.185   2.435  0.00  0.00    +0.024 C 
BRANCH  28  30
ATOM     29  C   UNL     1       3.070   2.499   1.501  0.00  0.00    +0.004 C 
ATOM     30  C   UNL     1       2.672   1.038   1.278  0.00  0.00    -0.002 C 
ENDBRANCH  28  30
ENDBRANCH  27  28
ENDBRANCH  24  27
ENDBRANCH   1  24
TORSDOF 5
