REMARK  Name = ZINC56209884
REMARK  4 active torsions:
REMARK  status: ('A' for Active; 'I' for Inactive)
REMARK    1  A    between atoms: C_1  and  C_2
REMARK    2  A    between atoms: C_4  and  C_14
REMARK    3  A    between atoms: N_16  and  C_17
REMARK    4  A    between atoms: C_19  and  N_24
REMARK                            x       y       z     vdW  Elec       q    Type
REMARK                         _______ _______ _______ _____ _____    ______ ____
ROOT
ATOM      1  C   UNL     1       0.328   0.006  -2.774  0.00  0.00    +0.262 C 
ATOM      2  O   UNL     1      -0.119  -0.786  -3.577  0.00  0.00    -0.271 OA
ATOM      3  N   UNL     1       0.235   1.330  -3.009  0.00  0.00    -0.280 N 
ATOM      4  H   UNL     1       0.624   1.962  -2.385  0.00  0.00    +0.155 HD
ENDROOT
BRANCH   1   7
ATOM      5  C   UNL     1       2.126  -2.320  -2.790  0.00  0.00    +0.056 C 
ATOM      6  C   UNL     1       2.339  -1.131  -1.852  0.00  0.00    +0.220 C 
ATOM      7  C   UNL     1       0.986  -0.491  -1.512  0.00  0.00    +0.299 C 
ATOM      8  O   UNL     1       1.220   0.608  -0.624  0.00  0.00    -0.472 OA
ATOM      9  C   UNL     1       2.064   0.381   0.419  0.00  0.00    +0.163 A 
ATOM     10  C   UNL     1       2.058   1.250   1.500  0.00  0.00    +0.049 A 
ATOM     11  C   UNL     1       2.911   1.035   2.566  0.00  0.00    +0.004 A 
ATOM     12  C   UNL     1       3.773  -0.046   2.558  0.00  0.00    +0.004 A 
ATOM     13  C   UNL     1       3.782  -0.917   1.484  0.00  0.00    +0.049 A 
ATOM     14  C   UNL     1       2.927  -0.708   0.413  0.00  0.00    +0.163 A 
ATOM     15  O   UNL     1       2.943  -1.578  -0.634  0.00  0.00    -0.481 OA
ENDBRANCH   1   7
BRANCH   3  16
ATOM     16  C   UNL     1      -0.423   1.792  -4.156  0.00  0.00    +0.071 A 
ATOM     17  C   UNL     1      -1.098   0.901  -4.976  0.00  0.00    +0.049 A 
ATOM     18  C   UNL     1      -1.749   1.363  -6.111  0.00  0.00    +0.041 A 
ATOM     19  C   UNL     1      -1.723   2.716  -6.423  0.00  0.00    +0.026 A 
ATOM     20  C   UNL     1      -1.050   3.603  -5.605  0.00  0.00    +0.042 A 
ATOM     21  C   UNL     1      -0.405   3.147  -4.470  0.00  0.00    +0.145 A 
ATOM     22  F   UNL     1       0.247   4.017  -3.668  0.00  0.00    -0.204 F 
BRANCH  18  23
ATOM     23  N   UNL     1      -2.431   0.465  -6.942  0.00  0.00    -0.234 N 
ATOM     24  C   UNL     1      -3.160   0.806  -8.180  0.00  0.00    +0.158 C 
ATOM     25  C   UNL     1      -3.357  -0.580  -8.837  0.00  0.00    +0.253 C 
ATOM     26  O   UNL     1      -3.282  -1.464  -7.701  0.00  0.00    -0.448 OA
ATOM     27  C   UNL     1      -2.534  -0.865  -6.759  0.00  0.00    +0.407 C 
ATOM     28  O   UNL     1      -2.010  -1.459  -5.838  0.00  0.00    -0.226 OA
ENDBRANCH  18  23
ENDBRANCH   3  16
TORSDOF 3
