REMARK  Name = ZINC60362040
REMARK  1 active torsions:
REMARK  status: ('A' for Active; 'I' for Inactive)
REMARK    1  A    between atoms: C_9  and  C_11
REMARK                            x       y       z     vdW  Elec       q    Type
REMARK                         _______ _______ _______ _____ _____    ______ ____
ROOT
ATOM      1  C   UNL     1      -0.019   1.525   0.010  0.00  0.00    +0.014 C 
ATOM      2  C   UNL     1       1.403   2.095  -0.000  0.00  0.00    +0.057 C 
ATOM      3  C   UNL     1       2.144   1.539   1.207  0.00  0.00    +0.061 A 
ATOM      4  C   UNL     1       1.760   0.298   1.729  0.00  0.00    +0.079 A 
ATOM      5  S   UNL     1       2.877   0.096   3.082  0.00  0.00    -0.049 S 
ATOM      6  C   UNL     1       3.720   1.544   2.891  0.00  0.00    +0.165 A 
ATOM      7  N   UNL     1       3.139   2.108   1.843  0.00  0.00    -0.229 NA
ATOM      8  N   UNL     1       4.769   2.028   3.649  0.00  0.00    -0.264 N 
ATOM      9  C   UNL     1       5.236   1.310   4.691  0.00  0.00    +0.222 C 
ATOM     10  O   UNL     1       4.734   0.240   4.962  0.00  0.00    -0.275 OA
ATOM     11  C   UNL     1       0.740  -0.506   1.230  0.00  0.00    +0.172 C 
ATOM     12  O   UNL     1       0.451  -1.562   1.756  0.00  0.00    -0.291 OA
ATOM     13  C   UNL     1       0.002  -0.004   0.002  0.00  0.00    +0.080 C 
ATOM     14  H   UNL     1       5.170   2.884   3.432  0.00  0.00    +0.157 HD
ENDROOT
BRANCH   9  15
ATOM     15  C   UNL     1       6.380   1.838   5.517  0.00  0.00    +0.079 C 
ATOM     16  C   UNL     1       7.653   1.972   4.652  0.00  0.00    +0.016 C 
ATOM     17  C   UNL     1       8.688   1.017   5.322  0.00  0.00    -0.010 C 
ATOM     18  C   UNL     1       9.066   1.727   6.657  0.00  0.00    +0.004 C 
ATOM     19  C   UNL     1       7.799   1.609   7.535  0.00  0.00    +0.004 C 
ATOM     20  C   UNL     1       6.762   0.816   6.631  0.00  0.00    +0.001 C 
ATOM     21  C   UNL     1       7.739  -0.124   5.834  0.00  0.00    +0.008 C 
ENDBRANCH   9  15
TORSDOF 1
