REMARK  Name = ZINC51711786
REMARK  5 active torsions:
REMARK  status: ('A' for Active; 'I' for Inactive)
REMARK    1  A    between atoms: C_6  and  N_7
REMARK    2  A    between atoms: C_8  and  C_10
REMARK    3  A    between atoms: C_10  and  N_11
REMARK    4  A    between atoms: C_18  and  C_21
REMARK    5  A    between atoms: N_23  and  C_24
REMARK                            x       y       z     vdW  Elec       q    Type
REMARK                         _______ _______ _______ _____ _____    ______ ____
ROOT
ATOM      1  N   UNL     1      -2.194  -4.261  -0.306  0.00  0.00    -0.291 N 
ATOM      2  C   UNL     1      -3.207  -5.144  -0.417  0.00  0.00    +0.303 C 
ATOM      3  O   UNL     1      -4.351  -4.746  -0.518  0.00  0.00    -0.253 OA
ATOM      4  N   UNL     1      -2.951  -6.467  -0.414  0.00  0.00    -0.285 N 
ATOM      5  C   UNL     1      -1.567  -6.962  -0.401  0.00  0.00    +0.109 C 
ATOM      6  C   UNL     1      -1.383  -7.939  -1.567  0.00  0.00    +0.020 C 
ATOM      7  C   UNL     1      -2.444  -9.037  -1.479  0.00  0.00    +0.016 C 
ATOM      8  C   UNL     1      -3.837  -8.413  -1.589  0.00  0.00    +0.092 C 
ATOM      9  C   UNL     1      -4.050  -7.442  -0.418  0.00  0.00    +0.122 C 
ATOM     10  H   UNL     1      -1.276  -4.575  -0.297  0.00  0.00    +0.151 HD
ENDROOT
BRANCH   8  11
ATOM     11  C   UNL     1      -4.880  -9.499  -1.536  0.00  0.00    +0.218 C 
ATOM     12  O   UNL     1      -4.543 -10.659  -1.422  0.00  0.00    -0.275 OA
ATOM     13  N   UNL     1      -6.188  -9.182  -1.615  0.00  0.00    -0.312 N 
ATOM     14  H   UNL     1      -6.457  -8.255  -1.706  0.00  0.00    +0.149 HD
BRANCH  13  15
ATOM     15  C   UNL     1      -7.202 -10.238  -1.564  0.00  0.00    +0.073 C 
ATOM     16  C   UNL     1      -8.362 -10.152  -2.558  0.00  0.00    +0.024 C 
ATOM     17  C   UNL     1      -8.600  -9.852  -1.077  0.00  0.00    +0.024 C 
ENDBRANCH  13  15
ENDBRANCH   8  11
BRANCH   1  18
ATOM     18  C   UNL     1      -2.479  -2.828  -0.200  0.00  0.00    +0.202 C 
BRANCH  18  20
ATOM     19  N   UNL     1      -1.202  -0.722   0.020  0.00  0.00    -0.284 N 
ATOM     20  C   UNL     1      -1.185  -2.065  -0.089  0.00  0.00    +0.234 C 
ATOM     21  O   UNL     1      -0.128  -2.659  -0.098  0.00  0.00    -0.274 OA
ATOM     22  H   UNL     1      -2.046  -0.252   0.102  0.00  0.00    +0.155 HD
BRANCH  19  28
ATOM     23  C   UNL     1       1.076  -0.454  -0.739  0.00  0.00    +0.025 A 
ATOM     24  C   UNL     1       2.260   0.257  -0.742  0.00  0.00    +0.022 A 
ATOM     25  C   UNL     1       2.376   1.415   0.006  0.00  0.00    +0.041 A 
ATOM     26  C   UNL     1       1.306   1.865   0.759  0.00  0.00    +0.022 A 
ATOM     27  C   UNL     1       0.119   1.159   0.766  0.00  0.00    +0.025 A 
ATOM     28  C   UNL     1       0.000  -0.004   0.016  0.00  0.00    +0.034 A 
ATOM     29 CL   UNL     1       3.867   2.304   0.002  0.00  0.00    -0.084 Cl
ENDBRANCH  19  28
ENDBRANCH  18  20
ENDBRANCH   1  18
TORSDOF 5
