REMARK  Name = ZINC00061022
REMARK  3 active torsions:
REMARK  status: ('A' for Active; 'I' for Inactive)
REMARK    1  A    between atoms: C_6  and  C_11
REMARK    2  A    between atoms: C_14  and  C_16
REMARK    3  A    between atoms: C_14  and  O_20
REMARK                            x       y       z     vdW  Elec       q    Type
REMARK                         _______ _______ _______ _____ _____    ______ ____
ROOT
ATOM      1  C   UNL     1       4.975  -2.712  -0.059  0.00  0.00    +0.094 C 
ATOM      2  N   UNL     1       6.144  -2.164  -0.062  0.00  0.00    -0.085 NA
ATOM      3  O   UNL     1       7.195  -3.110  -0.086  0.00  0.00    -0.349 OA
ATOM      4  C   UNL     1       6.645  -4.382   0.314  0.00  0.00    +0.337 C 
ATOM      5  C   UNL     1       5.156  -4.218  -0.068  0.00  0.00    +0.150 C 
ENDROOT
BRANCH   1  11
ATOM      6  C   UNL     1      -0.016   1.357   0.009  0.00  0.00    +0.001 A 
ATOM      7  C   UNL     1       1.168   2.091   0.002  0.00  0.00    +0.001 A 
ATOM      8  C   UNL     1       2.378   1.468  -0.013  0.00  0.00    +0.008 A 
ATOM      9  C   UNL     1       2.437   0.063  -0.021  0.00  0.00    -0.017 A 
ATOM     10  C   UNL     1       3.667  -0.611  -0.036  0.00  0.00    +0.018 A 
ATOM     11  C   UNL     1       3.685  -1.996  -0.043  0.00  0.00    +0.000 A 
ATOM     12  C   UNL     1       2.482  -2.726  -0.035  0.00  0.00    +0.010 A 
ATOM     13  C   UNL     1       1.283  -2.090  -0.021  0.00  0.00    +0.009 A 
ATOM     14  C   UNL     1       1.231  -0.684  -0.013  0.00  0.00    -0.018 A 
ATOM     15  C   UNL     1       0.002  -0.004   0.002  0.00  0.00    +0.008 A 
ENDBRANCH   1  11
BRANCH   4  16
ATOM     16  C   UNL     1       7.292  -5.528  -0.467  0.00  0.00    +0.459 C 
ATOM     17  F   UNL     1       8.664  -5.559  -0.198  0.00  0.00    -0.164 F 
ATOM     18  F   UNL     1       6.713  -6.741  -0.079  0.00  0.00    -0.164 F 
ATOM     19  F   UNL     1       7.089  -5.332  -1.837  0.00  0.00    -0.164 F 
ENDBRANCH   4  16
BRANCH   4  20
ATOM     20  O   UNL     1       6.787  -4.581   1.722  0.00  0.00    -0.347 OA
ATOM     21  H   UNL     1       7.704  -4.595   2.027  0.00  0.00    +0.214 HD
ENDBRANCH   4  20
TORSDOF 3
