REMARK  Name = ZINC66709452
REMARK  5 active torsions:
REMARK  status: ('A' for Active; 'I' for Inactive)
REMARK    1  A    between atoms: C_1  and  C_2
REMARK    2  A    between atoms: C_6  and  C_24
REMARK    3  A    between atoms: C_10  and  C_12
REMARK    4  A    between atoms: C_15  and  C_17
REMARK    5  A    between atoms: C_17  and  N_18
REMARK                            x       y       z     vdW  Elec       q    Type
REMARK                         _______ _______ _______ _____ _____    ______ ____
ROOT
ATOM      1  C   UNL     1       0.034   1.522   0.004  0.00  0.00    +0.030 C 
ATOM      2  C   UNL     1      -0.002  -0.008   0.000  0.00  0.00    +0.099 C 
ATOM      3  C   UNL     1       0.681  -0.537  -1.266  0.00  0.00    +0.183 C 
ATOM      4  O   UNL     1       2.078  -0.240  -1.206  0.00  0.00    -0.369 OA
ATOM      5  C   UNL     1       2.764  -0.868  -0.121  0.00  0.00    +0.166 C 
ATOM      6  C   UNL     1       2.188  -0.356   1.204  0.00  0.00    +0.145 C 
ATOM      7  N   UNL     1       0.726  -0.523   1.171  0.00  0.00    -0.287 N 
ATOM      8  C   UNL     1       0.073  -1.131   2.181  0.00  0.00    +0.282 C 
ATOM      9  O   UNL     1      -1.142  -1.200   2.166  0.00  0.00    -0.267 OA
ENDROOT
BRANCH   5  10
ATOM     10  C   UNL     1       4.233  -0.536  -0.194  0.00  0.00    -0.017 A 
ATOM     11  C   UNL     1       4.637   0.739  -0.541  0.00  0.00    +0.006 A 
ATOM     12  C   UNL     1       5.984   1.043  -0.608  0.00  0.00    +0.000 A 
ATOM     13  C   UNL     1       6.926   0.072  -0.327  0.00  0.00    +0.000 A 
ATOM     14  C   UNL     1       6.522  -1.204   0.021  0.00  0.00    +0.000 A 
ATOM     15  C   UNL     1       5.175  -1.506   0.092  0.00  0.00    +0.006 A 
ENDBRANCH   5  10
BRANCH   8  16
ATOM     16  C   UNL     1       0.826  -1.710   3.299  0.00  0.00    +0.190 A 
ATOM     17  C   UNL     1       0.307  -2.462   4.313  0.00  0.00    +0.055 A 
ATOM     18  C   UNL     1       1.378  -2.802   5.153  0.00  0.00    +0.047 A 
ATOM     19  C   UNL     1       2.491  -2.250   4.621  0.00  0.00    +0.127 A 
ATOM     20  O   UNL     1       2.155  -1.597   3.501  0.00  0.00    -0.453 OA
BRANCH  19  21
ATOM     21  C   UNL     1       3.882  -2.356   5.192  0.00  0.00    +0.217 C 
BRANCH  21  22
ATOM     22  N   UNL     1       4.549  -3.537   4.638  0.00  0.00    -0.263 N 
ATOM     23  C   UNL     1       5.740  -3.551   4.002  0.00  0.00    +0.128 A 
ATOM     24  C   UNL     1       6.002  -4.831   3.647  0.00  0.00    +0.078 A 
ATOM     25  C   UNL     1       4.935  -5.625   4.081  0.00  0.00    +0.154 A 
ATOM     26  N   UNL     1       4.066  -4.851   4.679  0.00  0.00    -0.178 NA
ATOM     27 CL   UNL     1       7.412  -5.388   2.802  0.00  0.00    -0.080 Cl
ENDBRANCH  21  22
ENDBRANCH  19  21
ENDBRANCH   8  16
TORSDOF 4
