REMARK  Name = ZINC35375386
REMARK  7 active torsions:
REMARK  status: ('A' for Active; 'I' for Inactive)
REMARK    1  A    between atoms: C_1  and  C_2
REMARK    2  A    between atoms: C_2  and  C_3
REMARK    3  A    between atoms: C_3  and  C_5
REMARK    4  A    between atoms: C_3  and  N_6
REMARK    5  A    between atoms: C_11  and  C_29
REMARK    6  A    between atoms: C_29  and  C_30
REMARK    7  A    between atoms: C_30  and  C_31
REMARK                            x       y       z     vdW  Elec       q    Type
REMARK                         _______ _______ _______ _____ _____    ______ ____
ROOT
ATOM      1  N   UNL     1      -0.055  -0.114  -2.441  0.00  0.00    -0.239 N 
ATOM      2  C   UNL     1      -1.315  -0.515  -2.643  0.00  0.00    +0.227 C 
ATOM      3  O   UNL     1      -1.954  -1.223  -1.894  0.00  0.00    -0.275 OA
ATOM      4  C   UNL     1      -1.819   0.052  -3.951  0.00  0.00    +0.107 C 
ATOM      5  C   UNL     1      -2.006  -1.099  -4.963  0.00  0.00    +0.068 C 
ATOM      6  N   UNL     1      -1.389  -0.603  -6.222  0.00  0.00    -0.295 NA
ATOM      7  C   UNL     1      -0.192   0.133  -5.772  0.00  0.00    +0.136 C 
ATOM      8  C   UNL     1      -0.608   0.872  -4.476  0.00  0.00    +0.122 C 
ATOM      9  C   UNL     1       0.440   0.671  -3.405  0.00  0.00    +0.228 C 
ATOM     10  O   UNL     1       1.556   1.145  -3.419  0.00  0.00    -0.275 OA
ATOM     11  C   UNL     1       0.969  -0.792  -5.541  0.00  0.00    +0.004 A 
ATOM     12  C   UNL     1       1.167  -1.876  -4.714  0.00  0.00    +0.023 A 
ATOM     13  C   UNL     1       2.380  -2.543  -4.727  0.00  0.00    +0.018 A 
ATOM     14  C   UNL     1       3.390  -2.120  -5.572  0.00  0.00    +0.017 A 
ATOM     15  C   UNL     1       3.195  -1.035  -6.402  0.00  0.00    +0.025 A 
ATOM     16  C   UNL     1       1.978  -0.357  -6.394  0.00  0.00    +0.039 A 
ATOM     17  N   UNL     1       1.546   0.750  -7.128  0.00  0.00    -0.283 N 
ATOM     18  C   UNL     1       0.282   1.102  -6.821  0.00  0.00    +0.243 C 
ATOM     19  O   UNL     1      -0.350   2.020  -7.297  0.00  0.00    -0.273 OA
ATOM     20 BR   UNL     1       2.655  -4.031  -3.592  0.00  0.00    -0.050 Br
ATOM     21  H   UNL     1      -1.135  -1.369  -6.827  0.00  0.00    +0.123 HD
ATOM     22  H   UNL     1       2.092   1.213  -7.782  0.00  0.00    +0.155 HD
ENDROOT
BRANCH   1  23
ATOM     23  C   UNL     1       0.718  -0.497  -1.257  0.00  0.00    +0.081 C 
ATOM     24  C   UNL     1       0.849  -2.021  -1.205  0.00  0.00    +0.028 C 
BRANCH  23  26
ATOM     25  C   UNL     1      -0.019   1.526   0.010  0.00  0.00    +0.006 C 
ATOM     26  C   UNL     1       0.002  -0.004   0.002  0.00  0.00    +0.019 C 
ENDBRANCH  23  26
ENDBRANCH   1  23
BRANCH   5  27
ATOM     27  C   UNL     1      -3.494  -1.386  -5.174  0.00  0.00    +0.028 C 
BRANCH  27  28
ATOM     28  C   UNL     1      -3.653  -2.608  -6.082  0.00  0.00    +0.097 C 
BRANCH  28  29
ATOM     29  C   UNL     1      -5.119  -2.891  -6.289  0.00  0.00    +0.211 C 
ATOM     30  O   UNL     1      -5.953  -2.186  -5.763  0.00  0.00    -0.276 OA
ATOM     31  N   UNL     1      -5.502  -3.929  -7.060  0.00  0.00    -0.329 N 
ATOM     32  H   UNL     1      -4.834  -4.493  -7.481  0.00  0.00    +0.145 HD
ATOM     33  H   UNL     1      -6.445  -4.111  -7.194  0.00  0.00    +0.145 HD
ENDBRANCH  28  29
ENDBRANCH  27  28
ENDBRANCH   5  27
TORSDOF 5
