REMARK  Name = ZINC59737289
REMARK  7 active torsions:
REMARK  status: ('A' for Active; 'I' for Inactive)
REMARK    1  A    between atoms: C_1  and  C_2
REMARK    2  A    between atoms: C_5  and  N_8
REMARK    3  A    between atoms: C_9  and  C_30
REMARK    4  A    between atoms: C_10  and  C_13
REMARK    5  A    between atoms: C_19  and  S_21
REMARK    6  A    between atoms: S_21  and  C_22
REMARK    7  A    between atoms: C_22  and  C_23
REMARK                            x       y       z     vdW  Elec       q    Type
REMARK                         _______ _______ _______ _____ _____    ______ ____
ROOT
ATOM      1  C   UNL     1       0.936  -7.476   1.152  0.00  0.00    +0.272 C 
ATOM      2  O   UNL     1       1.630  -7.378   2.146  0.00  0.00    -0.268 OA
ATOM      3  N   UNL     1       0.618  -8.693   0.669  0.00  0.00    -0.258 N 
ATOM      4  C   UNL     1       1.084  -9.839   1.307  0.00  0.00    +0.189 A 
ATOM      5  N   UNL     1       1.835  -9.947   2.385  0.00  0.00    -0.125 NA
ATOM      6  N   UNL     1       2.185 -11.193   2.853  0.00  0.00    -0.133 NA
ATOM      7  C   UNL     1       1.768 -12.273   2.220  0.00  0.00    +0.160 A 
ATOM      8  S   UNL     1       0.819 -11.555   0.888  0.00  0.00    -0.024 S 
ATOM      9  H   UNL     1       0.063  -8.770  -0.123  0.00  0.00    +0.157 HD
ENDROOT
BRANCH   1  12
ATOM     10  N   UNL     1       0.058  -4.173  -0.021  0.00  0.00    -0.216 N 
ATOM     11  C   UNL     1       0.691  -4.975   0.863  0.00  0.00    +0.074 A 
ATOM     12  C   UNL     1       0.442  -6.262   0.477  0.00  0.00    +0.170 A 
ATOM     13  N   UNL     1      -0.330  -6.234  -0.624  0.00  0.00    -0.124 NA
ATOM     14  N   UNL     1      -0.581  -5.012  -0.944  0.00  0.00    -0.060 NA
ATOM     15  C   UNL     1       1.513  -4.535   2.047  0.00  0.00    +0.068 C 
BRANCH  10  20
ATOM     16  C   UNL     1      -0.018   1.503   0.010  0.00  0.00    +0.044 C 
ATOM     17  C   UNL     1       0.002  -0.004   0.002  0.00  0.00    -0.050 A 
ATOM     18  C   UNL     1       0.006  -0.688  -1.200  0.00  0.00    +0.005 A 
ATOM     19  C   UNL     1       0.024  -2.068  -1.211  0.00  0.00    +0.028 A 
ATOM     20  C   UNL     1       0.040  -2.771  -0.013  0.00  0.00    +0.067 A 
ATOM     21  C   UNL     1       0.036  -2.082   1.192  0.00  0.00    +0.028 A 
ATOM     22  C   UNL     1       0.023  -0.700   1.196  0.00  0.00    +0.005 A 
ENDBRANCH  10  20
ENDBRANCH   1  12
BRANCH   7  23
ATOM     23  S   UNL     1       2.062 -13.970   2.593  0.00  0.00    -0.092 S 
BRANCH  23  24
ATOM     24  C   UNL     1       3.094 -13.919   4.083  0.00  0.00    +0.111 C 
BRANCH  24  25
ATOM     25  C   UNL     1       3.423 -15.325   4.515  0.00  0.00    -0.037 A 
ATOM     26  C   UNL     1       2.587 -15.992   5.391  0.00  0.00    +0.006 A 
ATOM     27  C   UNL     1       2.888 -17.282   5.787  0.00  0.00    +0.020 A 
ATOM     28  C   UNL     1       4.026 -17.905   5.307  0.00  0.00    +0.041 A 
ATOM     29  C   UNL     1       4.862 -17.236   4.431  0.00  0.00    +0.020 A 
ATOM     30  C   UNL     1       4.558 -15.949   4.031  0.00  0.00    +0.006 A 
ATOM     31 CL   UNL     1       4.405 -19.524   5.805  0.00  0.00    -0.084 Cl
ENDBRANCH  24  25
ENDBRANCH  23  24
ENDBRANCH   7  23
TORSDOF 5
