REMARK  Name = ZINC04245006
REMARK  4 active torsions:
REMARK  status: ('A' for Active; 'I' for Inactive)
REMARK    1  A    between atoms: C_2  and  O_12
REMARK    2  A    between atoms: C_5  and  N_10
REMARK    3  A    between atoms: C_6  and  N_7
REMARK    4  A    between atoms: O_12  and  C_13
REMARK                            x       y       z     vdW  Elec       q    Type
REMARK                         _______ _______ _______ _____ _____    ______ ____
ROOT
ATOM      1  C   UNL     1       1.175  -0.690  -0.307  0.00  0.00    +0.080 A 
ATOM      2  C   UNL     1       1.222  -2.064  -0.124  0.00  0.00    +0.133 A 
ATOM      3  C   UNL     1       0.063  -2.764   0.177  0.00  0.00    +0.063 A 
ATOM      4  C   UNL     1      -1.139  -2.092   0.296  0.00  0.00    +0.044 A 
ATOM      5  C   UNL     1      -1.185  -0.715   0.120  0.00  0.00    +0.070 A 
ATOM      6  C   UNL     1      -0.025  -0.017  -0.188  0.00  0.00    +0.151 A 
ATOM      7 BR   UNL     1      -2.719  -3.047   0.708  0.00  0.00    -0.048 Br
ENDROOT
BRANCH   6   8
ATOM      8  N   UNL     1      -0.073   1.450  -0.381  0.00  0.00    +0.058 N 
ATOM      9  O   UNL     1       0.919   2.048  -0.757  0.00  0.00    -0.126 OA
ATOM     10  O   UNL     1      -1.107   2.058  -0.170  0.00  0.00    -0.126 OA
ENDBRANCH   6   8
BRANCH   5  11
ATOM     11  N   UNL     1      -2.400  -0.033   0.247  0.00  0.00    -0.355 N 
ATOM     12  H   UNL     1      -2.537   0.806  -0.220  0.00  0.00    +0.142 HD
ATOM     13  H   UNL     1      -3.107  -0.399   0.802  0.00  0.00    +0.142 HD
ENDBRANCH   5  11
BRANCH   2  14
ATOM     14  O   UNL     1       2.404  -2.725  -0.241  0.00  0.00    -0.406 OA
BRANCH  14  15
ATOM     15  C   UNL     1       2.379  -4.140  -0.041  0.00  0.00    +0.575 C 
ATOM     16  F   UNL     1       1.524  -4.729  -0.979  0.00  0.00    -0.133 F 
ATOM     17  F   UNL     1       3.670  -4.656  -0.197  0.00  0.00    -0.133 F 
ATOM     18  F   UNL     1       1.919  -4.420   1.250  0.00  0.00    -0.133 F 
ENDBRANCH  14  15
ENDBRANCH   2  14
TORSDOF 4
