REMARK  Name = ZINC10816322
REMARK  6 active torsions:
REMARK  status: ('A' for Active; 'I' for Inactive)
REMARK    1  A    between atoms: C_4  and  C_7
REMARK    2  A    between atoms: C_7  and  C_9
REMARK    3  A    between atoms: C_7  and  N_14
REMARK    4  A    between atoms: C_15  and  C_17
REMARK    5  A    between atoms: C_17  and  N_18
REMARK    6  A    between atoms: N_21  and  C_24
REMARK                            x       y       z     vdW  Elec       q    Type
REMARK                         _______ _______ _______ _____ _____    ______ ____
ROOT
ATOM      1  N   UNL     1       1.913  -2.481  -0.917  0.00  0.00    -0.302 N 
ATOM      2  C   UNL     1       2.168  -2.460  -2.240  0.00  0.00    +0.235 C 
ATOM      3  O   UNL     1       2.937  -1.641  -2.697  0.00  0.00    -0.274 OA
ATOM      4  H   UNL     1       1.298  -3.136  -0.552  0.00  0.00    +0.150 HD
ENDROOT
BRANCH   1   5
ATOM      5  C   UNL     1       2.565  -1.514  -0.030  0.00  0.00    +0.140 C 
BRANCH   5   9
ATOM      6  C   UNL     1       2.754  -3.113   3.926  0.00  0.00    +0.000 A 
ATOM      7  C   UNL     1       3.826  -2.406   3.415  0.00  0.00    +0.000 A 
ATOM      8  C   UNL     1       3.764  -1.888   2.134  0.00  0.00    +0.006 A 
ATOM      9  C   UNL     1       2.631  -2.078   1.366  0.00  0.00    -0.022 A 
ATOM     10  C   UNL     1       1.558  -2.781   1.879  0.00  0.00    +0.006 A 
ATOM     11  C   UNL     1       1.621  -3.303   3.158  0.00  0.00    +0.000 A 
ENDBRANCH   5   9
BRANCH   5  12
ATOM     12  C   UNL     1       1.773  -0.232  -0.016  0.00  0.00    +0.014 A 
ATOM     13  C   UNL     1       2.220   1.048  -0.013  0.00  0.00    +0.013 A 
ATOM     14  C   UNL     1       1.300   2.079   0.001  0.00  0.00    +0.008 A 
ATOM     15  C   UNL     1      -0.022   1.781   0.012  0.00  0.00    +0.045 A 
ATOM     16  S   UNL     1       0.002  -0.004   0.002  0.00  0.00    -0.099 S 
ENDBRANCH   5  12
ENDBRANCH   1   5
BRANCH   2  17
ATOM     17  C   UNL     1       1.498  -3.454  -3.153  0.00  0.00    +0.246 C 
BRANCH  17  18
ATOM     18  N   UNL     1       1.937  -3.226  -4.531  0.00  0.00    -0.184 N 
ATOM     19  C   UNL     1       3.006  -3.791  -5.133  0.00  0.00    +0.370 A 
ATOM     20  O   UNL     1       3.788  -4.584  -4.638  0.00  0.00    -0.243 OA
ATOM     21  N   UNL     1       3.036  -3.305  -6.393  0.00  0.00    -0.154 N 
ATOM     22  N   UNL     1       1.957  -2.422  -6.529  0.00  0.00    -0.037 NA
ATOM     23  N   UNL     1       1.329  -2.377  -5.465  0.00  0.00    -0.042 NA
BRANCH  21  24
ATOM     24  C   UNL     1       3.976  -3.620  -7.379  0.00  0.00    +0.110 A 
ATOM     25  C   UNL     1       4.063  -3.163  -8.659  0.00  0.00    +0.036 A 
ATOM     26  C   UNL     1       5.090  -3.621  -9.462  0.00  0.00    +0.010 A 
ATOM     27  C   UNL     1       5.978  -4.509  -8.953  0.00  0.00    +0.047 A 
ATOM     28  S   UNL     1       5.378  -4.721  -7.286  0.00  0.00    -0.077 S 
ENDBRANCH  21  24
ENDBRANCH  17  18
ENDBRANCH   2  17
TORSDOF 6
