REMARK  Name = ZINC08486534
REMARK  8 active torsions:
REMARK  status: ('A' for Active; 'I' for Inactive)
REMARK    1  A    between atoms: C_1  and  C_2
REMARK    2  A    between atoms: C_3  and  C_27
REMARK    3  A    between atoms: N_4  and  C_20
REMARK    4  A    between atoms: C_5  and  N_9
REMARK    5  A    between atoms: C_6  and  C_7
REMARK    6  A    between atoms: C_10  and  C_12
REMARK    7  A    between atoms: C_12  and  S_13
REMARK    8  A    between atoms: S_13  and  C_14
REMARK                            x       y       z     vdW  Elec       q    Type
REMARK                         _______ _______ _______ _____ _____    ______ ____
ROOT
ATOM      1  C   UNL     1      -0.750   1.399  -0.061  0.00  0.00    +0.047 C 
ATOM      2  C   UNL     1      -0.333  -0.049  -0.017  0.00  0.00    -0.010 A 
ATOM      3  C   UNL     1       0.221  -0.753  -1.017  0.00  0.00    +0.027 A 
ATOM      4  N   UNL     1       0.458  -2.035  -0.591  0.00  0.00    -0.300 N 
ATOM      5  C   UNL     1       0.059  -2.179   0.702  0.00  0.00    +0.128 A 
ATOM      6  C   UNL     1      -0.446  -0.959   1.130  0.00  0.00    +0.095 A 
ATOM      7  C   UNL     1       0.531  -0.220  -2.392  0.00  0.00    +0.064 C 
ENDROOT
BRANCH   4   8
ATOM      8  C   UNL     1       1.028  -3.049  -1.373  0.00  0.00    +0.051 A 
ATOM      9  C   UNL     1       0.334  -3.562  -2.460  0.00  0.00    +0.026 A 
ATOM     10  C   UNL     1       0.897  -4.560  -3.230  0.00  0.00    +0.005 A 
ATOM     11  C   UNL     1       2.152  -5.051  -2.920  0.00  0.00    +0.038 A 
ATOM     12  C   UNL     1       2.848  -4.542  -1.836  0.00  0.00    +0.125 A 
ATOM     13  C   UNL     1       2.290  -3.537  -1.065  0.00  0.00    +0.064 A 
ATOM     14  F   UNL     1       4.074  -5.022  -1.534  0.00  0.00    -0.205 F 
ENDBRANCH   4   8
BRANCH   5  15
ATOM     15  N   UNL     1       0.146  -3.337   1.459  0.00  0.00    -0.270 N 
ATOM     16  C   UNL     1      -0.324  -4.501   0.968  0.00  0.00    +0.229 C 
ATOM     17  O   UNL     1      -0.724  -4.559  -0.175  0.00  0.00    -0.275 OA
ATOM     18  H   UNL     1       0.546  -3.310   2.343  0.00  0.00    +0.156 HD
BRANCH  16  19
ATOM     19  C   UNL     1      -0.355  -5.729   1.840  0.00  0.00    +0.172 C 
BRANCH  19  20
ATOM     20  S   UNL     1      -1.037  -7.122   0.899  0.00  0.00    -0.088 S 
BRANCH  20  21
ATOM     21  C   UNL     1      -1.006  -8.464   2.041  0.00  0.00    +0.160 A 
ATOM     22  N   UNL     1      -0.597  -8.485   3.295  0.00  0.00    -0.133 NA
ATOM     23  N   UNL     1      -0.662  -9.655   4.016  0.00  0.00    -0.125 NA
ATOM     24  C   UNL     1      -1.132 -10.749   3.450  0.00  0.00    +0.180 A 
ATOM     25  S   UNL     1      -1.528 -10.157   1.812  0.00  0.00    -0.025 S 
ATOM     26  N   UNL     1      -1.285 -12.023   3.987  0.00  0.00    -0.336 N 
ATOM     27  H   UNL     1      -1.026 -12.196   4.906  0.00  0.00    +0.144 HD
ATOM     28  H   UNL     1      -1.649 -12.738   3.443  0.00  0.00    +0.144 HD
ENDBRANCH  20  21
ENDBRANCH  19  20
ENDBRANCH  16  19
ENDBRANCH   5  15
BRANCH   6  29
ATOM     29  C   UNL     1      -0.972  -0.651   2.425  0.00  0.00    +0.103 C 
ATOM     30  N   UNL     1      -1.390  -0.407   3.453  0.00  0.00    -0.191 NA
ENDBRANCH   6  29
TORSDOF 6
