REMARK  Name = ZINC07778792
REMARK  9 active torsions:
REMARK  status: ('A' for Active; 'I' for Inactive)
REMARK    1  A    between atoms: C_1  and  C_2
REMARK    2  A    between atoms: C_5  and  O_29
REMARK    3  A    between atoms: C_6  and  C_8
REMARK    4  A    between atoms: C_8  and  C_10
REMARK    5  A    between atoms: C_12  and  C_18
REMARK    6  A    between atoms: N_13  and  C_15
REMARK    7  A    between atoms: C_15  and  C_16
REMARK    8  A    between atoms: C_15  and  C_17
REMARK    9  A    between atoms: C_21  and  C_23
REMARK                            x       y       z     vdW  Elec       q    Type
REMARK                         _______ _______ _______ _____ _____    ______ ____
ROOT
ATOM      1  C   UNL     1      -4.944   2.319   1.097  0.00  0.00    +0.041 A 
ATOM      2  C   UNL     1      -4.430   1.876  -0.147  0.00  0.00    +0.044 A 
ATOM      3  C   UNL     1      -5.461   1.897  -1.035  0.00  0.00    +0.107 A 
ATOM      4  N   UNL     1      -6.589   2.336  -0.381  0.00  0.00    -0.340 N 
ATOM      5  C   UNL     1      -6.286   2.587   0.907  0.00  0.00    +0.098 A 
ENDROOT
BRANCH   3   6
ATOM      6  C   UNL     1      -5.383   1.515  -2.453  0.00  0.00    +0.265 A 
ATOM      7  N   UNL     1      -6.375   1.526  -3.319  0.00  0.00    -0.105 NA
ATOM      8  N   UNL     1      -5.944   1.135  -4.466  0.00  0.00    -0.107 NA
ATOM      9  C   UNL     1      -4.665   0.849  -4.378  0.00  0.00    +0.249 A 
ATOM     10  O   UNL     1      -4.284   1.083  -3.105  0.00  0.00    -0.414 OA
BRANCH   9  11
ATOM     11  C   UNL     1      -3.802   0.360  -5.473  0.00  0.00    +0.038 A 
ATOM     12  C   UNL     1      -2.450   0.101  -5.237  0.00  0.00    +0.013 A 
ATOM     13  C   UNL     1      -1.651  -0.361  -6.263  0.00  0.00    +0.001 A 
ATOM     14  C   UNL     1      -2.183  -0.556  -7.525  0.00  0.00    +0.000 A 
ATOM     15  C   UNL     1      -3.520  -0.295  -7.767  0.00  0.00    +0.001 A 
ATOM     16  C   UNL     1      -4.332   0.162  -6.749  0.00  0.00    +0.013 A 
ENDBRANCH   9  11
ENDBRANCH   3   6
BRANCH   4  17
ATOM     17  C   UNL     1      -7.913   2.499  -0.987  0.00  0.00    +0.081 C 
ATOM     18  C   UNL     1      -8.919   1.603  -0.263  0.00  0.00    +0.030 C 
ATOM     19  C   UNL     1      -8.353   3.959  -0.868  0.00  0.00    +0.030 C 
ENDBRANCH   4  17
BRANCH   1  20
ATOM     20  C   UNL     1      -4.192   2.461   2.356  0.00  0.00    +0.198 C 
ATOM     21  O   UNL     1      -4.730   2.944   3.334  0.00  0.00    -0.286 OA
BRANCH  20  27
ATOM     22  C   UNL     1       0.673   3.547   2.472  0.00  0.00    +0.044 C 
ATOM     23  C   UNL     1      -0.442   2.534   2.486  0.00  0.00    -0.050 A 
ATOM     24  C   UNL     1      -0.146   1.182   2.569  0.00  0.00    +0.007 A 
ATOM     25  C   UNL     1      -1.159   0.244   2.583  0.00  0.00    +0.046 A 
ATOM     26  C   UNL     1      -2.483   0.650   2.513  0.00  0.00    +0.128 A 
ATOM     27  C   UNL     1      -2.787   2.016   2.429  0.00  0.00    +0.064 A 
ATOM     28  C   UNL     1      -1.752   2.955   2.422  0.00  0.00    +0.018 A 
BRANCH  26  29
ATOM     29  O   UNL     1      -3.479  -0.270   2.526  0.00  0.00    -0.506 OA
ATOM     30  H   UNL     1      -3.800  -0.490   3.411  0.00  0.00    +0.292 HD
ENDBRANCH  26  29
ENDBRANCH  20  27
ENDBRANCH   1  20
TORSDOF 6
