REMARK  Name = ZINC23866797
REMARK  4 active torsions:
REMARK  status: ('A' for Active; 'I' for Inactive)
REMARK    1  A    between atoms: C_1  and  N_2
REMARK    2  A    between atoms: C_6  and  C_7
REMARK    3  A    between atoms: C_7  and  C_9
REMARK    4  A    between atoms: C_9  and  N_10
REMARK                            x       y       z     vdW  Elec       q    Type
REMARK                         _______ _______ _______ _____ _____    ______ ____
ROOT
ATOM      1  N   UNL     1      -2.250  -3.007   0.007  0.00  0.00    -0.195 N 
ATOM      2  C   UNL     1      -3.041  -3.311   1.128  0.00  0.00    +0.061 A 
ATOM      3  C   UNL     1      -2.762  -3.047   2.468  0.00  0.00    +0.025 A 
ATOM      4  C   UNL     1      -3.659  -3.408   3.465  0.00  0.00    +0.002 A 
ATOM      5  C   UNL     1      -4.845  -4.024   3.195  0.00  0.00    +0.009 A 
ATOM      6  C   UNL     1      -5.173  -4.305   1.858  0.00  0.00    -0.014 A 
ATOM      7  C   UNL     1      -4.256  -3.935   0.852  0.00  0.00    +0.031 A 
ATOM      8  C   UNL     1      -4.547  -4.199  -0.491  0.00  0.00    +0.118 A 
ATOM      9  C   UNL     1      -5.698  -4.804  -0.836  0.00  0.00    +0.029 A 
ATOM     10  C   UNL     1      -6.616  -5.175   0.155  0.00  0.00    +0.003 A 
ATOM     11  C   UNL     1      -6.369  -4.935   1.475  0.00  0.00    +0.009 A 
ATOM     12  S   UNL     1      -3.119  -3.558  -1.317  0.00  0.00    +0.076 S 
ATOM     13  O   UNL     1      -3.526  -2.424  -2.071  0.00  0.00    -0.150 OA
ATOM     14  O   UNL     1      -2.410  -4.657  -1.873  0.00  0.00    -0.150 OA
ENDROOT
BRANCH   1  15
ATOM     15  C   UNL     1      -0.940  -2.352  -0.002  0.00  0.00    +0.212 C 
BRANCH  15  16
ATOM     16  C   UNL     1      -1.125  -0.856   0.008  0.00  0.00    +0.198 C 
ATOM     17  O   UNL     1      -2.244  -0.384   0.021  0.00  0.00    -0.289 OA
BRANCH  16  23
ATOM     18  C   UNL     1      -1.219   2.212   0.020  0.00  0.00    +0.149 C 
ATOM     19  N   UNL     1      -0.017   1.375   0.010  0.00  0.00    -0.347 N 
ATOM     20  C   UNL     1       1.255   1.824  -0.000  0.00  0.00    +0.086 A 
ATOM     21  C   UNL     1       2.100   0.764  -0.014  0.00  0.00    +0.020 A 
ATOM     22  C   UNL     1       1.329  -0.400  -0.013  0.00  0.00    +0.031 A 
ATOM     23  C   UNL     1       0.002  -0.004   0.002  0.00  0.00    +0.086 A 
ENDBRANCH  16  23
ENDBRANCH  15  16
ENDBRANCH   1  15
TORSDOF 3
