REMARK  Name = ZINC43142701
REMARK  6 active torsions:
REMARK  status: ('A' for Active; 'I' for Inactive)
REMARK    1  A    between atoms: C_1  and  C_2
REMARK    2  A    between atoms: C_5  and  N_9
REMARK    3  A    between atoms: C_6  and  C_8
REMARK    4  A    between atoms: N_12  and  C_13
REMARK    5  A    between atoms: N_12  and  C_14
REMARK    6  A    between atoms: C_14  and  C_15
REMARK                            x       y       z     vdW  Elec       q    Type
REMARK                         _______ _______ _______ _____ _____    ______ ____
ROOT
ATOM      1  N   UNL     1       0.058  -4.170  -0.021  0.00  0.00    -0.269 N 
ATOM      2  C   UNL     1      -0.041  -4.839  -1.187  0.00  0.00    +0.307 C 
ATOM      3  O   UNL     1      -0.054  -4.229  -2.239  0.00  0.00    -0.252 OA
ATOM      4  N   UNL     1      -0.124  -6.184  -1.187  0.00  0.00    -0.281 N 
ATOM      5  C   UNL     1      -0.108  -6.919   0.080  0.00  0.00    +0.134 C 
ATOM      6  H   UNL     1       0.134  -4.659   0.814  0.00  0.00    +0.156 HD
ENDROOT
BRANCH   1  11
ATOM      7  C   UNL     1       0.027   1.503   0.005  0.00  0.00    +0.044 C 
ATOM      8  C   UNL     1       0.035  -0.004  -0.001  0.00  0.00    -0.050 A 
ATOM      9  C   UNL     1       0.633  -0.686  -1.046  0.00  0.00    +0.005 A 
ATOM     10  C   UNL     1       0.643  -2.067  -1.055  0.00  0.00    +0.024 A 
ATOM     11  C   UNL     1       0.051  -2.771  -0.014  0.00  0.00    +0.038 A 
ATOM     12  C   UNL     1      -0.549  -2.083   1.033  0.00  0.00    -0.029 A 
ATOM     13  C   UNL     1      -0.550  -0.702   1.039  0.00  0.00    +0.008 A 
ATOM     14  C   UNL     1      -1.193  -2.843   2.163  0.00  0.00    +0.045 C 
ENDBRANCH   1  11
BRANCH   4  15
ATOM     15  C   UNL     1      -0.231  -6.911  -2.454  0.00  0.00    +0.183 C 
BRANCH  15  16
ATOM     16  C   UNL     1       1.148  -7.248  -2.958  0.00  0.00    +0.124 A 
ATOM     17  C   UNL     1       1.834  -8.372  -2.681  0.00  0.00    +0.047 A 
ATOM     18  C   UNL     1       3.073  -8.273  -3.355  0.00  0.00    +0.057 A 
ATOM     19  C   UNL     1       3.070  -7.094  -4.005  0.00  0.00    +0.170 A 
ATOM     20  O   UNL     1       1.899  -6.481  -3.765  0.00  0.00    -0.452 OA
ATOM     21 BR   UNL     1       4.473  -6.420  -5.079  0.00  0.00    -0.008 Br
ENDBRANCH  15  16
ENDBRANCH   4  15
TORSDOF 3
