REMARK  Name = ZINC04785862
REMARK  6 active torsions:
REMARK  status: ('A' for Active; 'I' for Inactive)
REMARK    1  A    between atoms: C_1  and  C_2
REMARK    2  A    between atoms: C_2  and  C_3
REMARK    3  A    between atoms: C_2  and  C_4
REMARK    4  A    between atoms: C_4  and  C_5
REMARK    5  A    between atoms: C_21  and  C_24
REMARK    6  A    between atoms: C_21  and  C_25
REMARK                            x       y       z     vdW  Elec       q    Type
REMARK                         _______ _______ _______ _____ _____    ______ ____
ROOT
ATOM      1  C   UNL     1       0.844  -2.208  -0.376  0.00  0.00    +0.047 A 
ATOM      2  C   UNL     1       1.014  -0.818  -0.410  0.00  0.00    -0.012 A 
ATOM      3  C   UNL     1       0.002  -0.004   0.002  0.00  0.00    -0.029 A 
ATOM      4  C   UNL     1      -1.198  -0.610   0.488  0.00  0.00    +0.037 A 
ATOM      5  C   UNL     1      -2.393   0.091   0.988  0.00  0.00    +0.094 A 
ATOM      6  C   UNL     1      -3.444  -0.720   1.410  0.00  0.00    +0.104 A 
ATOM      7  C   UNL     1      -4.633  -0.168   1.907  0.00  0.00    +0.266 A 
ATOM      8  O   UNL     1      -5.550  -0.882   2.277  0.00  0.00    -0.267 OA
ATOM      9  N   UNL     1      -4.732   1.181   1.966  0.00  0.00    -0.313 N 
ATOM     10  H   UNL     1      -5.564   1.612   2.315  0.00  0.00    +0.170 HD
ATOM     11  C   UNL     1      -3.690   1.942   1.545  0.00  0.00    +0.199 A 
ATOM     12  N   UNL     1      -2.588   1.438   1.085  0.00  0.00    -0.236 NA
ATOM     13  S   UNL     1      -2.869  -2.376   1.148  0.00  0.00    -0.062 S 
ATOM     14  C   UNL     1      -1.261  -2.011   0.489  0.00  0.00    +0.112 A 
ATOM     15  N   UNL     1      -0.264  -2.757   0.062  0.00  0.00    -0.244 NA
ATOM     16  C   UNL     1      -0.018   1.496   0.010  0.00  0.00    +0.053 C 
ATOM     17  C   UNL     1       1.369   2.123   0.000  0.00  0.00    +0.015 C 
ATOM     18  S   UNL     1       2.296   1.389  -1.385  0.00  0.00    -0.149 S 
ATOM     19  C   UNL     1       2.367  -0.357  -0.897  0.00  0.00    +0.106 C 
ATOM     20  C   UNL     1       1.252   3.636  -0.197  0.00  0.00    +0.023 C 
ATOM     21  C   UNL     1       2.083   1.824   1.320  0.00  0.00    +0.023 C 
ENDROOT
BRANCH   1  22
ATOM     22  C   UNL     1       1.962  -3.095  -0.857  0.00  0.00    +0.058 C 
BRANCH  22  24
ATOM     23  C   UNL     1       2.996  -4.158  -2.869  0.00  0.00    +0.007 C 
ATOM     24  C   UNL     1       1.795  -3.361  -2.355  0.00  0.00    -0.011 C 
ATOM     25  C   UNL     1       0.513  -4.161  -2.591  0.00  0.00    +0.007 C 
ENDBRANCH  22  24
ENDBRANCH   1  22
TORSDOF 2
