REMARK  Name = ZINC12856608
REMARK  4 active torsions:
REMARK  status: ('A' for Active; 'I' for Inactive)
REMARK    1  A    between atoms: C_8  and  C_11
REMARK    2  A    between atoms: C_16  and  C_18
REMARK    3  A    between atoms: C_23  and  O_24
REMARK    4  A    between atoms: O_24  and  C_25
REMARK                            x       y       z     vdW  Elec       q    Type
REMARK                         _______ _______ _______ _____ _____    ______ ____
ROOT
ATOM      1  C   UNL     1      -4.492   2.883   0.062  0.00  0.00    +0.042 C 
ATOM      2  C   UNL     1      -3.939   1.610   0.069  0.00  0.00    +0.152 C 
ATOM      3  C   UNL     1      -4.637   0.336  -0.162  0.00  0.00    +0.364 C 
ATOM      4  O   UNL     1      -5.820   0.174  -0.400  0.00  0.00    -0.243 OA
ATOM      5  O   UNL     1      -3.685  -0.617  -0.054  0.00  0.00    -0.402 OA
ATOM      6  C   UNL     1      -2.508  -0.020   0.216  0.00  0.00    +0.236 C 
ATOM      7  N   UNL     1      -2.638   1.277   0.297  0.00  0.00    -0.205 NA
ENDROOT
BRANCH   1  15
ATOM      8  C   UNL     1      -2.823   8.692   0.878  0.00  0.00    +0.001 A 
ATOM      9  C   UNL     1      -1.502   8.505   0.504  0.00  0.00    +0.004 A 
ATOM     10  C   UNL     1      -1.062   7.271   0.059  0.00  0.00    +0.046 A 
ATOM     11  C   UNL     1      -1.947   6.211  -0.014  0.00  0.00    +0.128 A 
ATOM     12  C   UNL     1      -3.289   6.397   0.367  0.00  0.00    +0.017 A 
ATOM     13  C   UNL     1      -3.720   7.647   0.814  0.00  0.00    +0.011 A 
ATOM     14  C   UNL     1      -4.207   5.255   0.281  0.00  0.00    +0.018 C 
ATOM     15  C   UNL     1      -3.662   4.008   0.165  0.00  0.00    -0.008 C 
ATOM     16  C   UNL     1      -2.164   3.848   0.156  0.00  0.00    +0.264 C 
ATOM     17  O   UNL     1      -1.547   4.990  -0.446  0.00  0.00    -0.487 OA
ENDBRANCH   1  15
BRANCH   6  18
ATOM     18  C   UNL     1      -1.235  -0.740   0.403  0.00  0.00    +0.079 A 
ATOM     19  C   UNL     1      -1.195  -2.133   0.304  0.00  0.00    +0.017 A 
ATOM     20  C   UNL     1      -0.002  -2.801   0.480  0.00  0.00    +0.001 A 
ATOM     21  C   UNL     1       1.159  -2.096   0.755  0.00  0.00    +0.004 A 
ATOM     22  C   UNL     1       1.134  -0.718   0.851  0.00  0.00    +0.046 A 
ATOM     23  C   UNL     1      -0.058  -0.031   0.682  0.00  0.00    +0.139 A 
BRANCH  23  24
ATOM     24  O   UNL     1      -0.085   1.322   0.781  0.00  0.00    -0.433 OA
BRANCH  24  25
ATOM     25  C   UNL     1       1.153   1.976   1.067  0.00  0.00    +0.541 C 
ATOM     26  F   UNL     1       1.649   1.520   2.293  0.00  0.00    -0.166 F 
ATOM     27  F   UNL     1       2.076   1.692   0.055  0.00  0.00    -0.166 F 
ENDBRANCH  24  25
ENDBRANCH  23  24
ENDBRANCH   6  18
TORSDOF 4
