REMARK  Name = ZINC65384706
REMARK  3 active torsions:
REMARK  status: ('A' for Active; 'I' for Inactive)
REMARK    1  A    between atoms: C_1  and  C_2
REMARK    2  A    between atoms: C_11  and  C_18
REMARK    3  A    between atoms: C_21  and  C_24
REMARK                            x       y       z     vdW  Elec       q    Type
REMARK                         _______ _______ _______ _____ _____    ______ ____
ROOT
ATOM      1  C   UNL     1      -0.018   1.503   0.010  0.00  0.00    +0.044 C 
ATOM      2  C   UNL     1       0.002  -0.004   0.002  0.00  0.00    -0.046 A 
ATOM      3  C   UNL     1       0.006  -0.702  -1.217  0.00  0.00    +0.021 A 
ATOM      4  C   UNL     1       0.021  -2.052  -1.228  0.00  0.00    +0.093 A 
ATOM      5  N   UNL     1       0.033  -2.754  -0.058  0.00  0.00    -0.304 N 
ATOM      6  C   UNL     1       0.035  -2.103   1.145  0.00  0.00    +0.116 A 
ATOM      7  C   UNL     1       0.023  -0.693   1.175  0.00  0.00    +0.048 A 
ATOM      8  N   UNL     1       0.057  -3.018   2.099  0.00  0.00    -0.342 N 
ATOM      9  C   UNL     1       0.067  -4.242   1.544  0.00  0.00    +0.055 A 
ATOM     10  C   UNL     1       0.040  -4.104   0.209  0.00  0.00    +0.054 A 
ATOM     11  C   UNL     1       0.005  -5.152  -0.872  0.00  0.00    +0.079 C 
ATOM     12  C   UNL     1      -0.272  -6.536  -0.315  0.00  0.00    +0.110 C 
ATOM     13  C   UNL     1       0.833  -6.996   0.581  0.00  0.00    +0.214 C 
ATOM     14  O   UNL     1       1.561  -7.886   0.197  0.00  0.00    -0.276 OA
ATOM     15  N   UNL     1       1.051  -6.469   1.781  0.00  0.00    -0.310 N 
ATOM     16  C   UNL     1       0.113  -5.509   2.354  0.00  0.00    +0.159 C 
ATOM     17  H   UNL     1       1.841  -6.726   2.282  0.00  0.00    +0.149 HD
ATOM     18  H   UNL     1       0.065  -2.834   3.052  0.00  0.00    +0.167 HD
ENDROOT
BRANCH  11  19
ATOM     19  C   UNL     1      -1.076  -4.799  -1.861  0.00  0.00    -0.002 A 
ATOM     20  C   UNL     1      -2.397  -4.685  -1.458  0.00  0.00    +0.118 A 
ATOM     21  N   UNL     1      -3.319  -4.374  -2.355  0.00  0.00    -0.240 NA
ATOM     22  C   UNL     1      -2.993  -4.173  -3.616  0.00  0.00    +0.132 A 
ATOM     23  N   UNL     1      -1.747  -4.272  -4.035  0.00  0.00    -0.240 NA
ATOM     24  C   UNL     1      -0.771  -4.575  -3.194  0.00  0.00    +0.118 A 
BRANCH  22  25
ATOM     25  C   UNL     1      -4.074  -3.820  -4.606  0.00  0.00    +0.057 C 
ATOM     26  C   UNL     1      -4.124  -4.882  -5.706  0.00  0.00    +0.011 C 
ATOM     27  C   UNL     1      -5.221  -4.524  -6.710  0.00  0.00    +0.001 C 
ATOM     28  C   UNL     1      -4.918  -3.159  -7.332  0.00  0.00    +0.000 C 
ATOM     29  C   UNL     1      -4.867  -2.097  -6.232  0.00  0.00    +0.001 C 
ATOM     30  C   UNL     1      -3.770  -2.455  -5.228  0.00  0.00    +0.011 C 
ENDBRANCH  22  25
ENDBRANCH  11  19
TORSDOF 2
