REMARK  Name = ZINC08012886
REMARK  6 active torsions:
REMARK  status: ('A' for Active; 'I' for Inactive)
REMARK    1  A    between atoms: C_1  and  C_2
REMARK    2  A    between atoms: C_4  and  C_14
REMARK    3  A    between atoms: C_5  and  C_13
REMARK    4  A    between atoms: C_9  and  C_12
REMARK    5  A    between atoms: N_15  and  N_16
REMARK    6  A    between atoms: C_17  and  C_27
REMARK                            x       y       z     vdW  Elec       q    Type
REMARK                         _______ _______ _______ _____ _____    ______ ____
ROOT
ATOM      1  C   UNL     1      -0.134  -3.568  -1.268  0.00  0.00    +0.143 C 
ATOM      2  N   UNL     1       0.130  -4.680  -0.649  0.00  0.00    -0.170 NA
ENDROOT
BRANCH   1   6
ATOM      3  C   UNL     1      -0.464   1.397  -0.139  0.00  0.00    +0.064 C 
ATOM      4  C   UNL     1      -0.273  -0.095  -0.052  0.00  0.00    +0.023 A 
ATOM      5  C   UNL     1      -0.395  -0.960  -1.075  0.00  0.00    +0.032 A 
ATOM      6  C   UNL     1      -0.121  -2.294  -0.531  0.00  0.00    +0.016 A 
ATOM      7  C   UNL     1       0.147  -2.118   0.797  0.00  0.00    +0.031 A 
ATOM      8  N   UNL     1       0.059  -0.790   1.077  0.00  0.00    -0.299 N 
ATOM      9  C   UNL     1       0.272  -0.220   2.336  0.00  0.00    +0.181 A 
ATOM     10  C   UNL     1       1.359  -0.489   3.197  0.00  0.00    +0.094 A 
ATOM     11  C   UNL     1       1.205   0.254   4.308  0.00  0.00    +0.136 A 
ATOM     12  O   UNL     1       0.079   0.971   4.179  0.00  0.00    -0.358 OA
ATOM     13  N   UNL     1      -0.496   0.662   2.921  0.00  0.00    -0.060 NA
ATOM     14  C   UNL     1       2.137   0.276   5.492  0.00  0.00    +0.089 C 
ATOM     15  C   UNL     1       0.487  -3.207   1.781  0.00  0.00    +0.064 C 
ENDBRANCH   1   6
BRANCH   2  16
ATOM     16  N   UNL     1       0.227  -5.877  -1.370  0.00  0.00    -0.182 N 
ATOM     17  C   UNL     1      -0.694  -6.858  -1.175  0.00  0.00    +0.132 A 
ATOM     18  N   UNL     1      -0.671  -7.994  -1.804  0.00  0.00    -0.232 NA
ATOM     19  C   UNL     1       0.291  -8.283  -2.714  0.00  0.00    +0.078 A 
ATOM     20  C   UNL     1       0.317  -9.504  -3.393  0.00  0.00    +0.028 A 
ATOM     21  C   UNL     1       1.315  -9.750  -4.309  0.00  0.00    +0.002 A 
ATOM     22  C   UNL     1       2.295  -8.800  -4.566  0.00  0.00    +0.001 A 
ATOM     23  C   UNL     1       2.291  -7.597  -3.915  0.00  0.00    +0.015 A 
ATOM     24  C   UNL     1       1.292  -7.322  -2.983  0.00  0.00    +0.067 A 
ATOM     25  C   UNL     1       1.234  -6.045  -2.258  0.00  0.00    +0.282 A 
ATOM     26  O   UNL     1       2.063  -5.173  -2.446  0.00  0.00    -0.265 OA
ATOM     27  C   UNL     1      -1.798  -6.615  -0.177  0.00  0.00    +0.088 C 
ENDBRANCH   2  16
TORSDOF 2
