REMARK  Name = ZINC13206956
REMARK  4 active torsions:
REMARK  status: ('A' for Active; 'I' for Inactive)
REMARK    1  A    between atoms: N_14  and  C_24
REMARK    2  A    between atoms: C_15  and  C_17
REMARK    3  A    between atoms: C_21  and  O_23
REMARK    4  A    between atoms: C_24  and  C_25
REMARK                            x       y       z     vdW  Elec       q    Type
REMARK                         _______ _______ _______ _____ _____    ______ ____
ROOT
ATOM      1  C   UNL     1      -0.450  -4.981  -0.022  0.00  0.00    +0.001 A 
ATOM      2  C   UNL     1      -1.732  -4.449  -0.007  0.00  0.00    +0.004 A 
ATOM      3  C   UNL     1      -1.930  -3.086   0.002  0.00  0.00    +0.047 A 
ATOM      4  C   UNL     1      -0.835  -2.225  -0.003  0.00  0.00    +0.139 A 
ATOM      5  C   UNL     1       0.459  -2.773  -0.019  0.00  0.00    +0.064 A 
ATOM      6  C   UNL     1       0.641  -4.155  -0.028  0.00  0.00    +0.015 A 
ATOM      7  C   UNL     1       1.607  -1.845  -0.024  0.00  0.00    +0.199 A 
ATOM      8  O   UNL     1       2.756  -2.249  -0.037  0.00  0.00    -0.287 OA
ATOM      9  C   UNL     1       1.294  -0.413  -0.013  0.00  0.00    +0.072 A 
ATOM     10  C   UNL     1       0.002  -0.004   0.002  0.00  0.00    +0.199 A 
ATOM     11  O   UNL     1      -1.012  -0.892   0.007  0.00  0.00    -0.450 OA
ATOM     12  C   UNL     1      -0.018   1.480   0.010  0.00  0.00    +0.283 C 
ATOM     13  O   UNL     1      -1.024   2.161   0.019  0.00  0.00    -0.267 OA
ATOM     14  N   UNL     1       1.237   1.962   0.001  0.00  0.00    -0.279 N 
ATOM     15  C   UNL     1       2.160   0.820  -0.014  0.00  0.00    +0.145 C 
ENDROOT
BRANCH  15  16
ATOM     16  C   UNL     1       3.010   0.856  -1.258  0.00  0.00    -0.019 A 
ATOM     17  C   UNL     1       2.457   1.254  -2.461  0.00  0.00    +0.006 A 
ATOM     18  C   UNL     1       3.235   1.293  -3.603  0.00  0.00    +0.004 A 
ATOM     19  C   UNL     1       4.565   0.924  -3.547  0.00  0.00    +0.045 A 
ATOM     20  C   UNL     1       5.121   0.519  -2.342  0.00  0.00    +0.117 A 
ATOM     21  C   UNL     1       4.339   0.486  -1.196  0.00  0.00    +0.051 A 
BRANCH  20  22
ATOM     22  O   UNL     1       6.429   0.156  -2.284  0.00  0.00    -0.507 OA
ATOM     23  H   UNL     1       6.584  -0.785  -2.443  0.00  0.00    +0.292 HD
ENDBRANCH  20  22
ENDBRANCH  15  16
BRANCH  14  24
ATOM     24  C   UNL     1       1.617   3.377   0.004  0.00  0.00    +0.144 C 
BRANCH  24  25
ATOM     25  C   UNL     1       1.761   3.855   1.426  0.00  0.00    -0.027 A 
ATOM     26  C   UNL     1       0.679   4.394   2.106  0.00  0.00    +0.025 A 
ATOM     27  C   UNL     1       0.848   4.818   3.411  0.00  0.00    +0.111 A 
ATOM     28  N   UNL     1       2.022   4.723   4.005  0.00  0.00    -0.263 NA
ATOM     29  C   UNL     1       3.073   4.221   3.386  0.00  0.00    +0.111 A 
ATOM     30  C   UNL     1       2.979   3.772   2.083  0.00  0.00    +0.025 A 
ENDBRANCH  24  25
ENDBRANCH  14  24
TORSDOF 4
