REMARK  Name = ZINC63985147
REMARK  4 active torsions:
REMARK  status: ('A' for Active; 'I' for Inactive)
REMARK    1  A    between atoms: C_1  and  C_2
REMARK    2  A    between atoms: C_2  and  C_3
REMARK    3  A    between atoms: C_3  and  N_4
REMARK    4  A    between atoms: C_7  and  C_13
REMARK                            x       y       z     vdW  Elec       q    Type
REMARK                         _______ _______ _______ _____ _____    ______ ____
ROOT
ATOM      1  C   UNL     1      -1.387  -4.829  -2.472  0.00  0.00    +0.121 C 
ATOM      2  C   UNL     1      -2.694  -4.571  -3.224  0.00  0.00    +0.128 C 
ATOM      3  C   UNL     1      -2.538  -5.232  -4.589  0.00  0.00    -0.035 C 
ATOM      4  C   UNL     1      -3.576  -6.043  -4.734  0.00  0.00    -0.001 A 
ATOM      5  C   UNL     1      -4.019  -6.878  -5.862  0.00  0.00    +0.010 A 
ATOM      6  C   UNL     1      -5.145  -7.612  -5.659  0.00  0.00    +0.001 A 
ATOM      7  C   UNL     1      -5.867  -7.599  -4.462  0.00  0.00    +0.002 A 
ATOM      8  C   UNL     1      -5.535  -6.857  -3.375  0.00  0.00    +0.026 A 
ATOM      9  C   UNL     1      -4.372  -6.039  -3.469  0.00  0.00    +0.043 A 
ATOM     10  N   UNL     1      -3.845  -5.211  -2.588  0.00  0.00    -0.376 N 
ATOM     11  C   UNL     1      -1.325  -4.987  -5.453  0.00  0.00    +0.048 C 
ATOM     12  C   UNL     1      -0.101  -5.160  -4.535  0.00  0.00    +0.086 C 
ATOM     13  N   UNL     1      -0.270  -4.369  -3.313  0.00  0.00    -0.307 NA
ATOM     14  H   UNL     1      -0.360  -3.387  -3.528  0.00  0.00    +0.123 HD
ATOM     15  H   UNL     1      -4.153  -5.052  -1.682  0.00  0.00    +0.160 HD
ENDROOT
BRANCH   1  19
ATOM     16  N   UNL     1      -1.413  -1.998   0.005  0.00  0.00    -0.261 N 
ATOM     17  C   UNL     1      -1.410  -2.661  -1.169  0.00  0.00    +0.265 A 
ATOM     18  O   UNL     1      -1.423  -2.046  -2.221  0.00  0.00    -0.267 OA
ATOM     19  C   UNL     1      -1.390  -4.067  -1.171  0.00  0.00    +0.100 A 
ATOM     20  C   UNL     1      -1.375  -4.731   0.019  0.00  0.00    +0.263 A 
ATOM     21  N   UNL     1      -1.380  -4.018   1.190  0.00  0.00    -0.274 N 
ATOM     22  C   UNL     1      -1.393  -2.672   1.169  0.00  0.00    +0.332 A 
ATOM     23  O   UNL     1      -1.392  -2.057   2.218  0.00  0.00    -0.246 OA
ATOM     24  O   UNL     1      -1.357  -6.081   0.044  0.00  0.00    -0.267 OA
ATOM     25  H   UNL     1      -1.369  -4.486   2.040  0.00  0.00    +0.173 HD
BRANCH  16  26
ATOM     26  C   UNL     1      -1.433  -0.534   0.013  0.00  0.00    +0.130 C 
BRANCH  26  28
ATOM     27  C   UNL     1      -0.019   1.526   0.010  0.00  0.00    +0.005 C 
ATOM     28  C   UNL     1       0.002  -0.004   0.002  0.00  0.00    +0.018 C 
ENDBRANCH  26  28
ENDBRANCH  16  26
ENDBRANCH   1  19
TORSDOF 3
