REMARK  Name = ZINC65076513
REMARK  5 active torsions:
REMARK  status: ('A' for Active; 'I' for Inactive)
REMARK    1  A    between atoms: C_1  and  C_2
REMARK    2  A    between atoms: C_12  and  C_14
REMARK    3  A    between atoms: N_19  and  C_21
REMARK    4  A    between atoms: C_21  and  C_22
REMARK    5  A    between atoms: N_24  and  C_25
REMARK                            x       y       z     vdW  Elec       q    Type
REMARK                         _______ _______ _______ _____ _____    ______ ____
ROOT
ATOM      1  C   UNL     1       2.307  -0.939   2.907  0.00  0.00    +0.146 A 
ATOM      2  C   UNL     1       3.567  -0.561   3.431  0.00  0.00    +0.040 A 
ATOM      3  C   UNL     1       4.010  -1.187   4.558  0.00  0.00    +0.074 A 
ATOM      4  C   UNL     1       3.184  -2.177   5.135  0.00  0.00    +0.268 A 
ATOM      5  O   UNL     1       3.540  -2.763   6.143  0.00  0.00    -0.266 OA
ATOM      6  N   UNL     1       2.000  -2.469   4.563  0.00  0.00    -0.220 N 
ATOM      7  N   UNL     1       1.593  -1.867   3.505  0.00  0.00    -0.163 NA
ENDROOT
BRANCH   1  18
ATOM      8  C   UNL     1       0.745  -3.165   1.545  0.00  0.00    +0.029 C 
ATOM      9  C   UNL     1      -0.110  -1.897   1.560  0.00  0.00    +0.083 C 
ATOM     10  C   UNL     1      -1.274  -2.026   0.563  0.00  0.00    +0.059 C 
ATOM     11  C   UNL     1      -1.052  -0.905  -0.427  0.00  0.00    -0.024 A 
ATOM     12  C   UNL     1      -1.775  -0.525  -1.542  0.00  0.00    +0.005 A 
ATOM     13  C   UNL     1      -1.363   0.554  -2.301  0.00  0.00    +0.000 A 
ATOM     14  C   UNL     1      -0.225   1.254  -1.943  0.00  0.00    +0.002 A 
ATOM     15  C   UNL     1       0.499   0.878  -0.831  0.00  0.00    +0.024 A 
ATOM     16  C   UNL     1       0.089  -0.211  -0.059  0.00  0.00    +0.040 A 
ATOM     17  N   UNL     1       0.673  -0.750   1.093  0.00  0.00    -0.263 N 
ATOM     18  C   UNL     1       1.790  -0.284   1.686  0.00  0.00    +0.271 C 
ATOM     19  O   UNL     1       2.373   0.674   1.217  0.00  0.00    -0.268 OA
ENDBRANCH   1  18
BRANCH   6  20
ATOM     20  C   UNL     1       1.151  -3.497   5.169  0.00  0.00    +0.243 C 
BRANCH  20  21
ATOM     21  C   UNL     1       0.313  -2.879   6.258  0.00  0.00    +0.239 C 
ATOM     22  O   UNL     1       0.415  -1.696   6.504  0.00  0.00    -0.273 OA
ATOM     23  N   UNL     1      -0.550  -3.641   6.959  0.00  0.00    -0.282 N 
ATOM     24  H   UNL     1      -0.581  -4.600   6.812  0.00  0.00    +0.155 HD
BRANCH  23  25
ATOM     25  C   UNL     1      -1.403  -3.050   7.899  0.00  0.00    +0.069 A 
ATOM     26  C   UNL     1      -1.890  -1.768   7.686  0.00  0.00    +0.026 A 
ATOM     27  C   UNL     1      -2.731  -1.186   8.615  0.00  0.00    +0.002 A 
ATOM     28  C   UNL     1      -3.089  -1.880   9.757  0.00  0.00    +0.003 A 
ATOM     29  C   UNL     1      -2.606  -3.157   9.974  0.00  0.00    +0.040 A 
ATOM     30  C   UNL     1      -1.768  -3.748   9.045  0.00  0.00    +0.144 A 
ATOM     31  F   UNL     1      -1.301  -4.998   9.254  0.00  0.00    -0.204 F 
ENDBRANCH  23  25
ENDBRANCH  20  21
ENDBRANCH   6  20
TORSDOF 4
