REMARK  Name = ZINC58329629
REMARK  3 active torsions:
REMARK  status: ('A' for Active; 'I' for Inactive)
REMARK    1  A    between atoms: N_8  and  C_16
REMARK    2  A    between atoms: C_16  and  C_17
REMARK    3  A    between atoms: C_17  and  C_18
REMARK                            x       y       z     vdW  Elec       q    Type
REMARK                         _______ _______ _______ _____ _____    ______ ____
ROOT
ATOM      1  C   UNL     1      -0.017   1.380   0.010  0.00  0.00    +0.000 A 
ATOM      2  C   UNL     1       1.166   2.097   0.002  0.00  0.00    +0.001 A 
ATOM      3  C   UNL     1       2.379   1.435  -0.022  0.00  0.00    +0.009 A 
ATOM      4  C   UNL     1       2.400   0.046  -0.034  0.00  0.00    -0.013 A 
ATOM      5  C   UNL     1       1.206  -0.675  -0.010  0.00  0.00    -0.026 A 
ATOM      6  C   UNL     1       0.002  -0.004   0.002  0.00  0.00    +0.005 A 
ATOM      7  C   UNL     1       1.259  -2.177   0.032  0.00  0.00    +0.120 C 
ATOM      8  N   UNL     1       1.568  -2.735  -1.286  0.00  0.00    -0.293 NA
ATOM      9  C   UNL     1       2.654  -2.019  -1.959  0.00  0.00    +0.120 C 
ATOM     10  C   UNL     1       3.796  -1.742  -1.020  0.00  0.00    -0.026 A 
ATOM     11  C   UNL     1       3.674  -0.710  -0.087  0.00  0.00    -0.013 A 
ATOM     12  C   UNL     1       4.728  -0.415   0.768  0.00  0.00    +0.009 A 
ATOM     13  C   UNL     1       5.890  -1.160   0.702  0.00  0.00    +0.001 A 
ATOM     14  C   UNL     1       6.000  -2.195  -0.210  0.00  0.00    +0.000 A 
ATOM     15  C   UNL     1       4.955  -2.485  -1.071  0.00  0.00    +0.005 A 
ENDROOT
BRANCH   8  16
ATOM     16  C   UNL     1       1.862  -4.171  -1.193  0.00  0.00    +0.094 C 
BRANCH  16  17
ATOM     17  C   UNL     1       1.933  -4.769  -2.600  0.00  0.00    +0.111 C 
BRANCH  17  18
ATOM     18  C   UNL     1       2.235  -6.242  -2.505  0.00  0.00    +0.222 C 
ATOM     19  O   UNL     1       2.378  -6.763  -1.420  0.00  0.00    -0.275 OA
ATOM     20  N   UNL     1       2.345  -6.981  -3.627  0.00  0.00    -0.240 N 
ATOM     21  C   UNL     1       2.615  -8.299  -3.542  0.00  0.00    +0.303 C 
ATOM     22  O   UNL     1       2.759  -8.821  -2.454  0.00  0.00    -0.253 OA
ATOM     23  N   UNL     1       2.725  -9.038  -4.664  0.00  0.00    -0.313 N 
ATOM     24  H   UNL     1       2.230  -6.564  -4.495  0.00  0.00    +0.159 HD
ATOM     25  H   UNL     1       2.610  -8.621  -5.532  0.00  0.00    +0.146 HD
ATOM     26  H   UNL     1       2.919  -9.986  -4.603  0.00  0.00    +0.146 HD
ENDBRANCH  17  18
ENDBRANCH  16  17
ENDBRANCH   8  16
TORSDOF 3
