REMARK  Name = ZINC67020370
REMARK  4 active torsions:
REMARK  status: ('A' for Active; 'I' for Inactive)
REMARK    1  A    between atoms: C_1  and  C_2
REMARK    2  A    between atoms: C_5  and  N_19
REMARK    3  A    between atoms: C_7  and  C_8
REMARK    4  A    between atoms: N_10  and  C_11
REMARK                            x       y       z     vdW  Elec       q    Type
REMARK                         _______ _______ _______ _____ _____    ______ ____
ROOT
ATOM      1  C   UNL     1       0.276   0.025   2.478  0.00  0.00    +0.249 C 
ATOM      2  O   UNL     1       0.209   1.239   2.498  0.00  0.00    -0.270 OA
ATOM      3  N   UNL     1       0.461  -0.658   3.625  0.00  0.00    -0.279 N 
ATOM      4  H   UNL     1       0.590  -1.619   3.602  0.00  0.00    +0.155 HD
ENDROOT
BRANCH   3   5
ATOM      5  C   UNL     1       0.465   0.019   4.851  0.00  0.00    +0.069 A 
ATOM      6  C   UNL     1       0.962   1.313   4.929  0.00  0.00    +0.027 A 
ATOM      7  C   UNL     1       0.965   1.979   6.139  0.00  0.00    +0.022 A 
ATOM      8  C   UNL     1       0.472   1.359   7.274  0.00  0.00    +0.044 A 
ATOM      9  C   UNL     1      -0.024   0.070   7.201  0.00  0.00    +0.060 A 
ATOM     10  C   UNL     1      -0.035  -0.601   5.991  0.00  0.00    +0.146 A 
ATOM     11  F   UNL     1      -0.525  -1.857   5.918  0.00  0.00    -0.203 F 
ATOM     12 CL   UNL     1       0.478   2.201   8.792  0.00  0.00    -0.083 Cl
ENDBRANCH   3   5
BRANCH   1  19
ATOM     13  C   UNL     1       0.015   1.513   0.010  0.00  0.00    +0.044 C 
ATOM     14  C   UNL     1       0.030   0.006  -0.000  0.00  0.00    -0.038 A 
ATOM     15  C   UNL     1      -0.076  -0.678  -1.194  0.00  0.00    +0.006 A 
ATOM     16  C   UNL     1      -0.063  -2.062  -1.206  0.00  0.00    +0.033 A 
ATOM     17  C   UNL     1       0.056  -2.768  -0.022  0.00  0.00    +0.127 A 
ATOM     18  C   UNL     1       0.163  -2.097   1.178  0.00  0.00    +0.046 A 
ATOM     19  C   UNL     1       0.156  -0.701   1.196  0.00  0.00    +0.042 A 
BRANCH  17  20
ATOM     20  N   UNL     1       0.069  -4.248  -0.044  0.00  0.00    +0.056 N 
ATOM     21  O   UNL     1      -0.025  -4.838  -1.095  0.00  0.00    -0.126 OA
ATOM     22  O   UNL     1       0.173  -4.867   0.990  0.00  0.00    -0.126 OA
ENDBRANCH  17  20
ENDBRANCH   1  19
TORSDOF 3
