REMARK  Name = ZINC43943492
REMARK  7 active torsions:
REMARK  status: ('A' for Active; 'I' for Inactive)
REMARK    1  A    between atoms: C_1  and  C_2
REMARK    2  A    between atoms: C_2  and  C_4
REMARK    3  A    between atoms: C_2  and  N_10
REMARK    4  A    between atoms: C_11  and  C_13
REMARK    5  A    between atoms: N_15  and  C_16
REMARK    6  A    between atoms: C_16  and  C_17
REMARK    7  A    between atoms: N_25  and  C_26
REMARK                            x       y       z     vdW  Elec       q    Type
REMARK                         _______ _______ _______ _____ _____    ______ ____
ROOT
ATOM      1  C   UNL     1       0.762  -1.123   3.563  0.00  0.00    +0.299 C 
ATOM      2  O   UNL     1       1.943  -1.391   3.494  0.00  0.00    -0.265 OA
ATOM      3  N   UNL     1       0.105  -1.269   4.731  0.00  0.00    -0.307 N 
ATOM      4  H   UNL     1      -0.839  -1.055   4.786  0.00  0.00    +0.149 HD
ENDROOT
BRANCH   1   6
ATOM      5  N   UNL     1       0.692  -0.484   1.186  0.00  0.00    -0.301 N 
ATOM      6  C   UNL     1       0.035  -0.630   2.354  0.00  0.00    +0.299 C 
ATOM      7  O   UNL     1      -1.146  -0.362   2.423  0.00  0.00    -0.265 OA
ATOM      8  H   UNL     1       1.636  -0.699   1.130  0.00  0.00    +0.150 HD
BRANCH   5  10
ATOM      9  C   UNL     1      -0.046   1.528   0.009  0.00  0.00    +0.033 C 
ATOM     10  C   UNL     1      -0.021  -0.001   0.000  0.00  0.00    +0.101 C 
BRANCH  10  11
ATOM     11  C   UNL     1       0.684  -0.485  -1.241  0.00  0.00    -0.027 A 
ATOM     12  C   UNL     1       2.066  -0.501  -1.290  0.00  0.00    +0.005 A 
ATOM     13  C   UNL     1       2.712  -0.945  -2.428  0.00  0.00    +0.000 A 
ATOM     14  C   UNL     1       1.977  -1.373  -3.518  0.00  0.00    +0.000 A 
ATOM     15  C   UNL     1       0.596  -1.357  -3.469  0.00  0.00    +0.000 A 
ATOM     16  C   UNL     1      -0.051  -0.918  -2.329  0.00  0.00    +0.005 A 
ENDBRANCH  10  11
ENDBRANCH   5  10
ENDBRANCH   1   6
BRANCH   3  17
ATOM     17  C   UNL     1       0.817  -1.752   5.916  0.00  0.00    +0.108 C 
BRANCH  17  18
ATOM     18  C   UNL     1      -0.151  -1.827   7.098  0.00  0.00    +0.009 C 
ATOM     19  C   UNL     1      -0.628  -0.417   7.457  0.00  0.00    +0.024 C 
ATOM     20  C   UNL     1      -1.624  -0.498   8.618  0.00  0.00    +0.109 C 
ATOM     21  N   UNL     1      -0.995  -1.224   9.730  0.00  0.00    -0.285 N 
ATOM     22  C   UNL     1      -0.422  -2.552   9.473  0.00  0.00    +0.109 C 
ATOM     23  C   UNL     1       0.560  -2.448   8.303  0.00  0.00    +0.024 C 
ATOM     24  C   UNL     1      -0.944  -0.681  10.962  0.00  0.00    +0.307 C 
ATOM     25  O   UNL     1      -1.335   0.457  11.142  0.00  0.00    -0.252 OA
ATOM     26  N   UNL     1      -0.460  -1.398  11.996  0.00  0.00    -0.264 N 
ATOM     27  H   UNL     1      -0.081  -2.277  11.840  0.00  0.00    +0.157 HD
BRANCH  26  28
ATOM     28  C   UNL     1      -0.504  -0.875  13.291  0.00  0.00    +0.073 A 
ATOM     29  C   UNL     1      -0.068  -1.431  14.456  0.00  0.00    +0.031 A 
ATOM     30  C   UNL     1      -0.219  -0.718  15.632  0.00  0.00    +0.009 A 
ATOM     31  C   UNL     1      -0.793   0.508  15.589  0.00  0.00    +0.047 A 
ATOM     32  S   UNL     1      -1.139   0.698  13.848  0.00  0.00    -0.082 S 
ENDBRANCH  26  28
ENDBRANCH  17  18
ENDBRANCH   3  17
TORSDOF 6
