REMARK  Name = ZINC23060895
REMARK  6 active torsions:
REMARK  status: ('A' for Active; 'I' for Inactive)
REMARK    1  A    between atoms: C_1  and  C_2
REMARK    2  A    between atoms: C_10  and  C_11
REMARK    3  A    between atoms: C_11  and  O_13
REMARK    4  A    between atoms: O_13  and  C_14
REMARK    5  A    between atoms: C_14  and  C_16
REMARK    6  A    between atoms: C_14  and  C_17
REMARK                            x       y       z     vdW  Elec       q    Type
REMARK                         _______ _______ _______ _____ _____    ______ ____
ROOT
ATOM      1  O   UNL     1      -1.088   3.505   0.141  0.00  0.00    -0.447 OA
ENDROOT
BRANCH   1   2
ATOM      2  C   UNL     1      -2.034   4.235   0.767  0.00  0.00    +0.376 C 
ATOM      3  O   UNL     1      -3.034   3.695   1.196  0.00  0.00    -0.241 OA
BRANCH   2  13
ATOM      4  C   UNL     1      -4.056   6.140   2.164  0.00  0.00    +0.048 C 
ATOM      5  C   UNL     1      -2.737   6.517   1.540  0.00  0.00    +0.010 A 
ATOM      6  C   UNL     1      -2.148   7.853   1.469  0.00  0.00    +0.025 A 
ATOM      7  C   UNL     1      -2.549   9.119   1.904  0.00  0.00    +0.032 A 
ATOM      8  C   UNL     1      -1.745  10.200   1.676  0.00  0.00    +0.042 A 
ATOM      9  C   UNL     1      -0.533  10.048   1.014  0.00  0.00    +0.023 A 
ATOM     10  C   UNL     1      -0.120   8.809   0.576  0.00  0.00    +0.048 A 
ATOM     11  C   UNL     1      -0.921   7.694   0.797  0.00  0.00    +0.136 A 
ATOM     12  O   UNL     1      -0.786   6.387   0.500  0.00  0.00    -0.448 OA
ATOM     13  C   UNL     1      -1.854   5.683   0.929  0.00  0.00    +0.216 A 
ATOM     14 CL   UNL     1      -2.241  11.774   2.216  0.00  0.00    -0.084 Cl
ENDBRANCH   2  13
ENDBRANCH   1   2
BRANCH   1  15
ATOM     15  C   UNL     1      -1.332   2.079   0.016  0.00  0.00    +0.259 C 
ATOM     16  C   UNL     1      -2.079   1.802  -1.289  0.00  0.00    +0.062 C 
BRANCH  15  17
ATOM     17  C   UNL     1      -0.016   1.344   0.008  0.00  0.00    +0.259 C 
ATOM     18  O   UNL     1       1.026   1.964   0.002  0.00  0.00    -0.271 OA
ATOM     19  N   UNL     1       0.002  -0.004   0.002  0.00  0.00    -0.267 N 
ATOM     20  C   UNL     1       1.214  -0.684  -0.118  0.00  0.00    +0.125 A 
ATOM     21  C   UNL     1       1.217  -2.070  -0.230  0.00  0.00    +0.045 A 
ATOM     22  C   UNL     1       2.425  -2.733  -0.350  0.00  0.00    +0.025 A 
ATOM     23  C   UNL     1       3.595  -1.983  -0.353  0.00  0.00    +0.059 A 
ATOM     24  C   UNL     1       3.517  -0.608  -0.238  0.00  0.00    +0.132 A 
ATOM     25  N   UNL     1       2.349  -0.004  -0.131  0.00  0.00    -0.239 NA
ATOM     26 CL   UNL     1       5.138  -2.765  -0.500  0.00  0.00    -0.082 Cl
ATOM     27  H   UNL     1      -0.938  -0.567   0.092  0.00  0.00    +0.156 HD
ENDBRANCH  15  17
ENDBRANCH   1  15
TORSDOF 4
