REMARK  Name = ZINC21158407
REMARK  6 active torsions:
REMARK  status: ('A' for Active; 'I' for Inactive)
REMARK    1  A    between atoms: C_1  and  O_2
REMARK    2  A    between atoms: O_2  and  C_3
REMARK    3  A    between atoms: C_6  and  C_9
REMARK    4  A    between atoms: C_9  and  C_11
REMARK    5  A    between atoms: C_20  and  N_21
REMARK    6  A    between atoms: C_24  and  C_27
REMARK                            x       y       z     vdW  Elec       q    Type
REMARK                         _______ _______ _______ _____ _____    ______ ____
ROOT
ATOM      1  C   UNL     1       2.318   5.174  -0.143  0.00  0.00    +0.060 A 
ATOM      2  C   UNL     1       1.016   5.421   0.324  0.00  0.00    +0.096 A 
ATOM      3  N   UNL     1       0.041   4.573   0.120  0.00  0.00    -0.360 N 
ATOM      4  C   UNL     1       0.226   3.422  -0.542  0.00  0.00    +0.048 A 
ATOM      5  C   UNL     1      -0.840   2.531  -0.745  0.00  0.00    +0.026 A 
ATOM      6  C   UNL     1      -0.631   1.369  -1.425  0.00  0.00    +0.002 A 
ATOM      7  C   UNL     1       0.629   1.042  -1.917  0.00  0.00    +0.001 A 
ATOM      8  C   UNL     1       1.687   1.883  -1.740  0.00  0.00    +0.012 A 
ATOM      9  C   UNL     1       1.505   3.089  -1.049  0.00  0.00    +0.020 A 
ATOM     10  C   UNL     1       2.581   3.987  -0.845  0.00  0.00    +0.051 A 
ATOM     11  H   UNL     1      -0.968   4.794   0.498  0.00  0.00    +0.165 HD
ENDROOT
BRANCH  10  12
ATOM     12  N   UNL     1       3.842   3.705  -1.320  0.00  0.00    -0.329 N 
ATOM     13  C   UNL     1       4.825   3.697  -0.229  0.00  0.00    +0.106 C 
ATOM     14  C   UNL     1       6.183   3.240  -0.768  0.00  0.00    +0.031 C 
ATOM     15  C   UNL     1       6.633   4.193  -1.879  0.00  0.00    +0.078 C 
ATOM     16  C   UNL     1       5.569   4.219  -2.980  0.00  0.00    +0.031 C 
ATOM     17  C   UNL     1       4.229   4.648  -2.377  0.00  0.00    +0.106 C 
BRANCH  15  18
ATOM     18  C   UNL     1       7.941   3.715  -2.455  0.00  0.00    +0.214 C 
ATOM     19  O   UNL     1       8.016   3.424  -3.630  0.00  0.00    -0.276 OA
ATOM     20  N   UNL     1       9.027   3.611  -1.664  0.00  0.00    -0.329 N 
ATOM     21  H   UNL     1       9.982   3.262  -2.084  0.00  0.00    +0.145 HD
ATOM     22  H   UNL     1       8.959   3.875  -0.598  0.00  0.00    +0.145 HD
ENDBRANCH  15  18
ENDBRANCH  10  12
BRANCH   1  23
ATOM     23  C   UNL     1       3.393   6.147   0.102  0.00  0.00    +0.196 C 
ATOM     24  O   UNL     1       3.727   6.920  -0.778  0.00  0.00    -0.287 OA
BRANCH  23  28
ATOM     25  C   UNL     1       5.335   6.262   3.877  0.00  0.00    +0.120 A 
ATOM     26  C   UNL     1       5.799   7.057   2.834  0.00  0.00    +0.046 A 
ATOM     27  C   UNL     1       5.172   7.022   1.609  0.00  0.00    +0.015 A 
ATOM     28  C   UNL     1       4.069   6.187   1.413  0.00  0.00    +0.023 A 
ATOM     29  C   UNL     1       3.602   5.393   2.466  0.00  0.00    +0.015 A 
ATOM     30  C   UNL     1       4.238   5.430   3.687  0.00  0.00    +0.046 A 
BRANCH  25  32
ATOM     31  C   UNL     1       5.428   5.457   6.110  0.00  0.00    +0.277 C 
ATOM     32  O   UNL     1       5.956   6.298   5.083  0.00  0.00    -0.495 OA
ENDBRANCH  25  32
ENDBRANCH  23  28
ENDBRANCH   1  23
TORSDOF 5
