REMARK  Name = ZINC39702487
REMARK  7 active torsions:
REMARK  status: ('A' for Active; 'I' for Inactive)
REMARK    1  A    between atoms: C_1  and  C_2
REMARK    2  A    between atoms: C_2  and  O_3
REMARK    3  A    between atoms: O_3  and  C_4
REMARK    4  A    between atoms: C_9  and  N_10
REMARK    5  A    between atoms: N_10  and  C_11
REMARK    6  A    between atoms: C_11  and  C_12
REMARK    7  A    between atoms: N_24  and  C_25
REMARK                            x       y       z     vdW  Elec       q    Type
REMARK                         _______ _______ _______ _____ _____    ______ ____
ROOT
ATOM      1  N   UNL     1       2.001  -1.545   2.914  0.00  0.00    -0.244 N 
ATOM      2  C   UNL     1       0.947  -1.385   3.738  0.00  0.00    +0.311 C 
ATOM      3  O   UNL     1       0.936  -0.470   4.539  0.00  0.00    -0.252 OA
ATOM      4  N   UNL     1      -0.093  -2.239   3.675  0.00  0.00    -0.268 N 
ATOM      5  H   UNL     1      -0.084  -2.969   3.037  0.00  0.00    +0.156 HD
ENDROOT
BRANCH   4   6
ATOM      6  C   UNL     1      -1.189  -2.071   4.530  0.00  0.00    +0.053 A 
ATOM      7  C   UNL     1      -1.508  -0.810   5.014  0.00  0.00    +0.025 A 
ATOM      8  C   UNL     1      -2.590  -0.647   5.857  0.00  0.00    +0.002 A 
ATOM      9  C   UNL     1      -3.355  -1.740   6.221  0.00  0.00    +0.002 A 
ATOM     10  C   UNL     1      -3.041  -2.999   5.742  0.00  0.00    +0.022 A 
ATOM     11  C   UNL     1      -1.963  -3.167   4.893  0.00  0.00    +0.062 A 
ATOM     12 CL   UNL     1      -1.573  -4.746   4.287  0.00  0.00    -0.082 Cl
ENDBRANCH   4   6
BRANCH   1  18
ATOM     13  C   UNL     1       1.469  -2.208   0.646  0.00  0.00    +0.142 A 
ATOM     14  C   UNL     1       1.439  -3.177  -0.343  0.00  0.00    +0.047 A 
ATOM     15  C   UNL     1       1.894  -4.454  -0.075  0.00  0.00    +0.004 A 
ATOM     16  C   UNL     1       2.380  -4.769   1.181  0.00  0.00    +0.002 A 
ATOM     17  C   UNL     1       2.414  -3.808   2.174  0.00  0.00    +0.027 A 
ATOM     18  C   UNL     1       1.964  -2.523   1.910  0.00  0.00    +0.080 A 
BRANCH  13  19
ATOM     19  O   UNL     1       1.022  -0.951   0.383  0.00  0.00    -0.490 OA
BRANCH  19  21
ATOM     20  C   UNL     1       0.075   0.757  -1.040  0.00  0.00    +0.048 C 
ATOM     21  C   UNL     1       0.529  -0.700  -0.934  0.00  0.00    +0.226 C 
ENDBRANCH  19  21
ENDBRANCH  13  19
ENDBRANCH   1  18
BRANCH   1  22
ATOM     22  C   UNL     1       3.186  -0.698   3.066  0.00  0.00    +0.191 C 
BRANCH  22  23
ATOM     23  C   UNL     1       3.094   0.471   2.119  0.00  0.00    +0.151 A 
ATOM     24  N   UNL     1       2.445   1.587   2.324  0.00  0.00    -0.133 NA
ATOM     25  N   UNL     1       2.588   2.364   1.308  0.00  0.00    -0.134 NA
ATOM     26  C   UNL     1       3.335   1.782   0.414  0.00  0.00    +0.133 A 
ATOM     27  N   UNL     1       3.671   0.564   0.900  0.00  0.00    -0.313 N 
ATOM     28  C   UNL     1       4.482  -0.450   0.226  0.00  0.00    +0.125 C 
ATOM     29  C   UNL     1       5.459   0.236  -0.733  0.00  0.00    +0.022 C 
ATOM     30  C   UNL     1       4.804   0.404  -2.103  0.00  0.00    +0.002 C 
ATOM     31  C   UNL     1       3.563   1.284  -1.998  0.00  0.00    +0.008 C 
ATOM     32  C   UNL     1       3.770   2.341  -0.915  0.00  0.00    +0.076 C 
ENDBRANCH  22  23
ENDBRANCH   1  22
TORSDOF 6
