REMARK  Name = ZINC04540061
REMARK  2 active torsions:
REMARK  status: ('A' for Active; 'I' for Inactive)
REMARK    1  A    between atoms: C_1  and  C_2
REMARK    2  A    between atoms: C_11  and  C_14
REMARK                            x       y       z     vdW  Elec       q    Type
REMARK                         _______ _______ _______ _____ _____    ______ ____
ROOT
ATOM      1  C   UNL     1      -0.839  -2.221  -0.002  0.00  0.00    +0.260 C 
ATOM      2  O   UNL     1       0.298  -2.641  -0.015  0.00  0.00    -0.271 OA
ATOM      3  N   UNL     1      -1.067  -0.892   0.007  0.00  0.00    -0.262 N 
ATOM      4  C   UNL     1       0.002  -0.004   0.002  0.00  0.00    +0.165 A 
ATOM      5  N   UNL     1       1.293  -0.263  -0.012  0.00  0.00    -0.229 NA
ATOM      6  C   UNL     1       2.210   0.702  -0.016  0.00  0.00    +0.054 A 
ATOM      7  C   UNL     1       1.734   1.975  -0.004  0.00  0.00    +0.014 A 
ATOM      8  S   UNL     1      -0.021   1.734   0.012  0.00  0.00    -0.057 S 
ATOM      9  C   UNL     1       2.517   3.244  -0.003  0.00  0.00    +0.044 C 
ATOM     10  C   UNL     1       3.976   2.909   0.349  0.00  0.00    +0.006 C 
ATOM     11  C   UNL     1       4.425   1.715  -0.497  0.00  0.00    +0.006 C 
ATOM     12  C   UNL     1       3.712   0.443  -0.033  0.00  0.00    +0.056 C 
ATOM     13  H   UNL     1      -1.977  -0.556   0.018  0.00  0.00    +0.157 HD
ENDROOT
BRANCH   1  24
ATOM     14  C   UNL     1      -6.626  -7.331   1.882  0.00  0.00    +0.044 C 
ATOM     15  C   UNL     1      -5.619  -6.221   1.724  0.00  0.00    -0.050 A 
ATOM     16  C   UNL     1      -5.768  -5.046   2.439  0.00  0.00    +0.003 A 
ATOM     17  C   UNL     1      -4.848  -4.022   2.305  0.00  0.00    +0.005 A 
ATOM     18  C   UNL     1      -3.770  -4.165   1.454  0.00  0.00    -0.029 A 
ATOM     19  C   UNL     1      -3.620  -5.348   0.728  0.00  0.00    +0.063 A 
ATOM     20  C   UNL     1      -4.548  -6.378   0.868  0.00  0.00    +0.018 A 
ATOM     21  C   UNL     1      -2.467  -5.497  -0.190  0.00  0.00    +0.340 C 
ATOM     22  O   UNL     1      -2.390  -6.428  -0.965  0.00  0.00    -0.245 OA
ATOM     23  O   UNL     1      -1.499  -4.547  -0.127  0.00  0.00    -0.448 OA
ATOM     24  C   UNL     1      -1.998  -3.184   0.004  0.00  0.00    +0.266 C 
ATOM     25  C   UNL     1      -2.767  -3.050   1.319  0.00  0.00    +0.090 C 
ENDBRANCH   1  24
TORSDOF 1
