REMARK  Name = ZINC65396977
REMARK  3 active torsions:
REMARK  status: ('A' for Active; 'I' for Inactive)
REMARK    1  A    between atoms: C_3  and  C_21
REMARK    2  A    between atoms: C_5  and  C_6
REMARK    3  A    between atoms: C_15  and  N_20
REMARK                            x       y       z     vdW  Elec       q    Type
REMARK                         _______ _______ _______ _____ _____    ______ ____
ROOT
ATOM      1  C   UNL     1      -1.208  -0.902   0.009  0.00  0.00    +0.082 C 
ATOM      2  C   UNL     1      -1.110  -1.901   1.177  0.00  0.00    +0.108 C 
ATOM      3  C   UNL     1       0.285  -2.318   1.472  0.00  0.00    +0.214 C 
ATOM      4  O   UNL     1       0.504  -2.482   2.654  0.00  0.00    -0.276 OA
ATOM      5  N   UNL     1       1.349  -2.551   0.695  0.00  0.00    -0.310 N 
ATOM      6  C   UNL     1       1.289  -2.158  -0.707  0.00  0.00    +0.156 C 
ATOM      7  C   UNL     1      -0.050  -2.620  -1.215  0.00  0.00    +0.047 C 
ATOM      8  N   UNL     1      -0.248  -3.850  -1.515  0.00  0.00    -0.261 NA
ATOM      9  C   UNL     1      -1.587  -4.348  -1.877  0.00  0.00    +0.229 C 
ATOM     10  S   UNL     1      -2.629  -2.943  -1.272  0.00  0.00    -0.109 S 
ATOM     11  C   UNL     1      -1.264  -1.719  -1.307  0.00  0.00    +0.106 C 
ATOM     12  H   UNL     1       2.144  -2.972   1.057  0.00  0.00    +0.149 HD
ENDROOT
BRANCH   1  17
ATOM     13  C   UNL     1       0.401   0.771  -1.023  0.00  0.00    +0.045 A 
ATOM     14  C   UNL     1       1.573   1.439  -0.599  0.00  0.00    +0.047 A 
ATOM     15  C   UNL     1       1.820   1.033   0.659  0.00  0.00    +0.135 A 
ATOM     16  O   UNL     1       0.865   0.159   1.018  0.00  0.00    -0.462 OA
ATOM     17  C   UNL     1       0.002  -0.004   0.002  0.00  0.00    +0.110 A 
BRANCH  15  18
ATOM     18  C   UNL     1       2.973   1.482   1.520  0.00  0.00    +0.218 C 
ATOM     19  C   UNL     1       4.056   0.418   1.564  0.00  0.00    +0.030 C 
ATOM     20  C   UNL     1       4.124   0.083   2.854  0.00  0.00    +0.133 C 
ATOM     21  N   UNL     1       3.237   0.796   3.583  0.00  0.00    -0.162 NA
ATOM     22  N   UNL     1       2.557   1.596   2.928  0.00  0.00    -0.172 NA
ENDBRANCH  15  18
ENDBRANCH   1  17
BRANCH   9  23
ATOM     23  N   UNL     1      -1.716  -4.522  -3.330  0.00  0.00    -0.301 NA
ATOM     24  H   UNL     1      -1.054  -5.202  -3.673  0.00  0.00    +0.121 HD
ATOM     25  H   UNL     1      -2.660  -4.779  -3.580  0.00  0.00    +0.121 HD
ENDBRANCH   9  23
TORSDOF 3
