REMARK  Name = ZINC66472265
REMARK  11 active torsions:
REMARK  status: ('A' for Active; 'I' for Inactive)
REMARK    1  A    between atoms: C_1  and  C_2
REMARK    2  A    between atoms: C_3  and  N_11
REMARK    3  A    between atoms: C_7  and  N_8
REMARK    4  A    between atoms: C_12  and  C_14
REMARK    5  A    between atoms: C_14  and  C_16
REMARK    6  A    between atoms: C_14  and  N_17
REMARK    7  A    between atoms: N_17  and  C_18
REMARK    8  A    between atoms: N_17  and  C_19
REMARK    9  A    between atoms: C_19  and  C_20
REMARK   10  A    between atoms: C_24  and  O_26
REMARK   11  A    between atoms: O_26  and  C_27
REMARK                            x       y       z     vdW  Elec       q    Type
REMARK                         _______ _______ _______ _____ _____    ______ ____
ROOT
ATOM      1  C   UNL     1      -1.740   0.063  -4.464  0.00  0.00    +0.016 C 
ATOM      2  C   UNL     1      -0.743   1.077  -5.029  0.00  0.00    -0.004 C 
ENDROOT
BRANCH   1   4
ATOM      3  N   UNL     1      -1.201  -0.188  -2.063  0.00  0.00    -0.287 N 
ATOM      4  C   UNL     1      -1.106  -0.678  -3.315  0.00  0.00    +0.203 C 
ATOM      5  O   UNL     1      -0.510  -1.715  -3.517  0.00  0.00    -0.277 OA
ATOM      6  H   UNL     1      -1.626   0.670  -1.909  0.00  0.00    +0.155 HD
BRANCH   3   9
ATOM      7  C   UNL     1      -2.421   0.140   0.487  0.00  0.00    +0.048 C 
ATOM      8  C   UNL     1      -1.253  -0.788   0.276  0.00  0.00    +0.001 A 
ATOM      9  C   UNL     1      -0.687  -0.918  -0.986  0.00  0.00    +0.038 A 
ATOM     10  C   UNL     1       0.390  -1.774  -1.175  0.00  0.00    +0.024 A 
ATOM     11  C   UNL     1       0.895  -2.493  -0.109  0.00  0.00    +0.004 A 
ATOM     12  C   UNL     1       0.329  -2.362   1.145  0.00  0.00    +0.033 A 
ATOM     13  C   UNL     1      -0.741  -1.506   1.339  0.00  0.00    +0.131 A 
BRANCH  13  14
ATOM     14  N   UNL     1      -1.339  -1.363   2.685  0.00  0.00    +0.057 N 
ATOM     15  O   UNL     1      -1.724  -0.281   3.064  0.00  0.00    -0.126 OA
ATOM     16  O   UNL     1      -1.444  -2.329   3.405  0.00  0.00    -0.126 OA
ENDBRANCH  13  14
ENDBRANCH   3   9
ENDBRANCH   1   4
BRANCH   1  17
ATOM     17  N   UNL     1      -2.115  -0.892  -5.515  0.00  0.00    +0.388 N 
ATOM     18  C   UNL     1      -3.133  -1.816  -4.997  0.00  0.00    -0.095 C 
ATOM     19  H   UNL     1      -1.301  -1.415  -5.801  0.00  0.00    -0.081 HD
BRANCH  17  20
ATOM     20  C   UNL     1      -2.657  -0.163  -6.669  0.00  0.00    -0.042 C 
BRANCH  20  21
ATOM     21  C   UNL     1      -2.928  -1.130  -7.793  0.00  0.00    -0.060 A 
ATOM     22  C   UNL     1      -1.939  -1.406  -8.719  0.00  0.00    +0.002 A 
ATOM     23  C   UNL     1      -2.184  -2.293  -9.751  0.00  0.00    +0.004 A 
ATOM     24  C   UNL     1      -3.418  -2.904  -9.860  0.00  0.00    +0.046 A 
ATOM     25  C   UNL     1      -4.412  -2.628  -8.932  0.00  0.00    +0.127 A 
ATOM     26  C   UNL     1      -4.161  -1.743  -7.894  0.00  0.00    +0.047 A 
BRANCH  25  27
ATOM     27  O   UNL     1      -5.626  -3.229  -9.037  0.00  0.00    -0.434 OA
BRANCH  27  28
ATOM     28  C   UNL     1      -5.811  -4.133 -10.128  0.00  0.00    +0.541 C 
ATOM     29  F   UNL     1      -5.623  -3.452 -11.335  0.00  0.00    -0.166 F 
ATOM     30  F   UNL     1      -4.883  -5.176 -10.031  0.00  0.00    -0.166 F 
ENDBRANCH  27  28
ENDBRANCH  25  27
ENDBRANCH  20  21
ENDBRANCH  17  20
ENDBRANCH   1  17
TORSDOF 8
