REMARK  Name = ZINC09257596
REMARK  6 active torsions:
REMARK  status: ('A' for Active; 'I' for Inactive)
REMARK    1  A    between atoms: C_1  and  C_2
REMARK    2  A    between atoms: C_6  and  C_14
REMARK    3  A    between atoms: C_12  and  C_13
REMARK    4  A    between atoms: C_14  and  N_53
REMARK    5  A    between atoms: N_17  and  S_20
REMARK    6  A    between atoms: S_20  and  C_23
REMARK                            x       y       z     vdW  Elec       q    Type
REMARK                         _______ _______ _______ _____ _____    ______ ____
ROOT
ATOM      1  C   UNL     1      -2.110   3.875  -1.986  0.00  0.00    -0.061 C 
ATOM      2  C   UNL     1      -0.771   3.167  -1.751  0.00  0.00    +0.091 C 
ATOM      3  N   UNL     1      -1.033   1.885  -1.079  0.00  0.00    -0.180 NA
ATOM      4  C   UNL     1      -2.031   0.981  -1.670  0.00  0.00    +0.091 C 
ATOM      5  C   UNL     1      -3.324   1.778  -1.905  0.00  0.00    -0.061 C 
ATOM      6  N   UNL     1      -3.005   2.963  -2.730  0.00  0.00    +0.384 N 
ATOM      7  H   UNL     1      -2.530   2.655  -3.586  0.00  0.00    -0.081 HD
ENDROOT
BRANCH   3   8
ATOM      8  S   UNL     1      -0.220   1.468   0.302  0.00  0.00    +0.061 S 
ATOM      9  O   UNL     1      -0.251   0.049   0.379  0.00  0.00    -0.153 OA
ATOM     10  O   UNL     1       0.996   2.204   0.295  0.00  0.00    -0.153 OA
BRANCH   8  11
ATOM     11  C   UNL     1      -1.164   2.067   1.663  0.00  0.00    +0.108 A 
ATOM     12  C   UNL     1      -0.930   3.336   2.160  0.00  0.00    +0.031 A 
ATOM     13  C   UNL     1      -1.674   3.811   3.225  0.00  0.00    +0.043 A 
ATOM     14  C   UNL     1      -2.645   3.011   3.801  0.00  0.00    +0.159 A 
ATOM     15  C   UNL     1      -2.876   1.737   3.307  0.00  0.00    +0.160 A 
ATOM     16  C   UNL     1      -2.134   1.267   2.237  0.00  0.00    +0.069 A 
ATOM     17  F   UNL     1      -3.824   0.955   3.868  0.00  0.00    -0.202 F 
ATOM     18  F   UNL     1      -3.369   3.473   4.845  0.00  0.00    -0.202 F 
ENDBRANCH   8  11
ENDBRANCH   3   8
BRANCH   6  19
ATOM     19  C   UNL     1      -4.250   3.669  -3.100  0.00  0.00    -0.042 C 
BRANCH  19  25
ATOM     20  C   UNL     1      -4.286   0.685  -9.043  0.00  0.00    +0.044 C 
ATOM     21  C   UNL     1      -4.527   1.211  -7.651  0.00  0.00    -0.044 A 
ATOM     22  C   UNL     1      -3.631   2.111  -7.092  0.00  0.00    +0.004 A 
ATOM     23  C   UNL     1      -3.833   2.599  -5.831  0.00  0.00    +0.012 A 
ATOM     24  C   UNL     1      -4.951   2.186  -5.100  0.00  0.00    +0.019 A 
ATOM     25  C   UNL     1      -5.196   2.690  -3.745  0.00  0.00    -0.047 A 
ATOM     26  C   UNL     1      -6.296   2.246  -3.085  0.00  0.00    +0.094 A 
ATOM     27  C   UNL     1      -7.169   1.332  -3.713  0.00  0.00    +0.337 A 
ATOM     28  O   UNL     1      -8.155   0.944  -3.112  0.00  0.00    -0.245 OA
ATOM     29  O   UNL     1      -6.939   0.875  -4.954  0.00  0.00    -0.422 OA
ATOM     30  C   UNL     1      -5.860   1.273  -5.662  0.00  0.00    +0.142 A 
ATOM     31  C   UNL     1      -5.635   0.791  -6.945  0.00  0.00    -0.005 A 
ATOM     32  C   UNL     1      -6.599  -0.188  -7.564  0.00  0.00    +0.048 C 
ENDBRANCH  19  25
ENDBRANCH   6  19
TORSDOF 4
