REMARK  Name = ZINC13130094
REMARK  2 active torsions:
REMARK  status: ('A' for Active; 'I' for Inactive)
REMARK    1  A    between atoms: C_4  and  C_7
REMARK    2  A    between atoms: C_10  and  C_18
REMARK                            x       y       z     vdW  Elec       q    Type
REMARK                         _______ _______ _______ _____ _____    ______ ____
ROOT
ATOM      1  C   UNL     1       3.711  -0.707  -0.038  0.00  0.00    +0.106 C 
ATOM      2  C   UNL     1       4.019  -1.178  -1.464  0.00  0.00    +0.058 C 
ATOM      3  C   UNL     1       2.874  -2.061  -1.976  0.00  0.00    +0.143 C 
ATOM      4  N   UNL     1       2.569  -3.072  -0.963  0.00  0.00    -0.226 N 
ATOM      5  C   UNL     1       2.928  -2.979   0.340  0.00  0.00    +0.215 A 
ATOM      6  N   UNL     1       2.501  -4.049   0.954  0.00  0.00    -0.202 NA
ATOM      7  C   UNL     1       1.867  -4.841   0.082  0.00  0.00    +0.247 A 
ATOM      8  N   UNL     1       1.886  -4.280  -1.101  0.00  0.00    -0.156 NA
ATOM      9  N   UNL     1       3.630  -1.887   0.845  0.00  0.00    -0.307 N 
ATOM     10  H   UNL     1       4.044  -1.901   1.722  0.00  0.00    +0.149 HD
ENDROOT
BRANCH   1  14
ATOM     11  C   UNL     1      -0.017   1.378   0.010  0.00  0.00    +0.000 A 
ATOM     12  C   UNL     1       1.171   2.086   0.002  0.00  0.00    +0.000 A 
ATOM     13  C   UNL     1       2.377   1.411  -0.013  0.00  0.00    +0.005 A 
ATOM     14  C   UNL     1       2.396   0.029  -0.020  0.00  0.00    -0.027 A 
ATOM     15  C   UNL     1       1.208  -0.679  -0.012  0.00  0.00    +0.005 A 
ATOM     16  C   UNL     1       0.002  -0.004   0.002  0.00  0.00    +0.000 A 
ENDBRANCH   1  14
BRANCH   3  17
ATOM     17  C   UNL     1       3.292  -2.736  -3.257  0.00  0.00    -0.023 A 
ATOM     18  C   UNL     1       4.387  -3.579  -3.269  0.00  0.00    +0.006 A 
ATOM     19  C   UNL     1       4.770  -4.198  -4.444  0.00  0.00    +0.000 A 
ATOM     20  C   UNL     1       4.058  -3.975  -5.607  0.00  0.00    +0.000 A 
ATOM     21  C   UNL     1       2.961  -3.132  -5.595  0.00  0.00    +0.000 A 
ATOM     22  C   UNL     1       2.576  -2.517  -4.419  0.00  0.00    +0.006 A 
ENDBRANCH   3  17
TORSDOF 2
