REMARK  Name = ZINC00989115
REMARK  7 active torsions:
REMARK  status: ('A' for Active; 'I' for Inactive)
REMARK    1  A    between atoms: C_1  and  C_2
REMARK    2  A    between atoms: C_2  and  O_3
REMARK    3  A    between atoms: O_3  and  C_4
REMARK    4  A    between atoms: C_4  and  C_6
REMARK    5  A    between atoms: C_7  and  N_27
REMARK    6  A    between atoms: C_11  and  C_26
REMARK    7  A    between atoms: C_16  and  C_18
REMARK                            x       y       z     vdW  Elec       q    Type
REMARK                         _______ _______ _______ _____ _____    ______ ____
ROOT
ATOM      1  C   UNL     1      -0.674   5.938   1.215  0.00  0.00    +0.106 C 
ATOM      2  C   UNL     1      -2.018   6.090   1.296  0.00  0.00    +0.195 C 
ATOM      3  O   UNL     1      -2.804   6.041   0.207  0.00  0.00    -0.441 OA
ATOM      4  C   UNL     1      -2.268   6.214  -1.017  0.00  0.00    +0.144 A 
ATOM      5  C   UNL     1      -3.089   6.552  -2.116  0.00  0.00    +0.088 A 
ATOM      6  C   UNL     1      -2.534   6.720  -3.331  0.00  0.00    +0.110 A 
ATOM      7  O   UNL     1      -1.222   6.579  -3.542  0.00  0.00    -0.427 OA
ATOM      8  C   UNL     1      -0.410   6.258  -2.525  0.00  0.00    +0.345 A 
ATOM      9  O   UNL     1       0.786   6.131  -2.729  0.00  0.00    -0.245 OA
ATOM     10  C   UNL     1      -0.914   6.067  -1.233  0.00  0.00    +0.091 A 
ATOM     11  C   UNL     1       0.011   5.707  -0.103  0.00  0.00    +0.104 C 
ATOM     12  C   UNL     1      -3.424   7.080  -4.493  0.00  0.00    +0.086 C 
ENDROOT
BRANCH  11  13
ATOM     13  C   UNL     1       0.398   4.255  -0.218  0.00  0.00    +0.002 A 
ATOM     14  C   UNL     1       1.727   3.904  -0.366  0.00  0.00    +0.046 A 
ATOM     15  C   UNL     1       2.082   2.570  -0.471  0.00  0.00    +0.020 A 
ATOM     16  C   UNL     1       1.109   1.590  -0.427  0.00  0.00    +0.003 A 
ATOM     17  C   UNL     1      -0.221   1.941  -0.284  0.00  0.00    +0.020 A 
ATOM     18  C   UNL     1      -0.576   3.274  -0.174  0.00  0.00    +0.046 A 
ATOM     19 CL   UNL     1      -2.245   3.715   0.013  0.00  0.00    -0.083 Cl
ATOM     20 CL   UNL     1       2.950   5.134  -0.422  0.00  0.00    -0.083 Cl
ENDBRANCH  11  13
BRANCH   2  21
ATOM     21  N   UNL     1      -2.592   6.297   2.522  0.00  0.00    -0.329 N 
ATOM     22  H   UNL     1      -2.280   5.799   3.294  0.00  0.00    +0.145 HD
ATOM     23  H   UNL     1      -3.311   6.941   2.618  0.00  0.00    +0.145 HD
ENDBRANCH   2  21
BRANCH   1  24
ATOM     24  C   UNL     1       0.093   5.999   2.388  0.00  0.00    +0.341 C 
ATOM     25  O   UNL     1      -0.432   6.300   3.445  0.00  0.00    -0.245 OA
BRANCH  24  26
ATOM     26  O   UNL     1       1.414   5.722   2.345  0.00  0.00    -0.462 OA
BRANCH  26  28
ATOM     27  C   UNL     1       3.605   5.459   3.332  0.00  0.00    +0.048 C 
ATOM     28  C   UNL     1       2.134   5.803   3.577  0.00  0.00    +0.229 C 
ENDBRANCH  26  28
ENDBRANCH  24  26
ENDBRANCH   1  24
TORSDOF 5
