REMARK  Name = ZINC12565384
REMARK  7 active torsions:
REMARK  status: ('A' for Active; 'I' for Inactive)
REMARK    1  A    between atoms: C_9  and  S_11
REMARK    2  A    between atoms: S_11  and  C_12
REMARK    3  A    between atoms: C_12  and  C_13
REMARK    4  A    between atoms: N_15  and  C_16
REMARK    5  A    between atoms: C_16  and  C_17
REMARK    6  A    between atoms: C_20  and  S_23
REMARK    7  A    between atoms: S_23  and  N_26
REMARK                            x       y       z     vdW  Elec       q    Type
REMARK                         _______ _______ _______ _____ _____    ______ ____
ROOT
ATOM      1  C   UNL     1      -0.268   1.258  -2.409  0.00  0.00    +0.223 C 
ATOM      2  O   UNL     1       0.726   0.575  -2.534  0.00  0.00    -0.275 OA
ATOM      3  N   UNL     1      -0.721   1.571  -1.179  0.00  0.00    -0.311 N 
ATOM      4  H   UNL     1      -1.516   2.118  -1.079  0.00  0.00    +0.149 HD
ENDROOT
BRANCH   1   5
ATOM      5  C   UNL     1      -0.997   1.758  -3.630  0.00  0.00    +0.170 C 
BRANCH   5   6
ATOM      6  S   UNL     1      -0.148   1.173  -5.122  0.00  0.00    -0.115 S 
BRANCH   6  15
ATOM      7  C   UNL     1      -2.989   3.122  -7.218  0.00  0.00    +0.002 A 
ATOM      8  C   UNL     1      -2.659   2.894  -8.519  0.00  0.00    +0.008 A 
ATOM      9  C   UNL     1      -1.530   2.118  -8.832  0.00  0.00    -0.015 A 
ATOM     10  C   UNL     1      -1.167   1.866 -10.166  0.00  0.00    +0.008 A 
ATOM     11  C   UNL     1      -0.067   1.110 -10.434  0.00  0.00    +0.002 A 
ATOM     12  C   UNL     1       0.707   0.579  -9.405  0.00  0.00    +0.020 A 
ATOM     13  C   UNL     1       0.385   0.803  -8.099  0.00  0.00    +0.050 A 
ATOM     14  C   UNL     1      -0.740   1.583  -7.785  0.00  0.00    +0.014 A 
ATOM     15  C   UNL     1      -1.108   1.831  -6.445  0.00  0.00    +0.017 A 
ATOM     16  C   UNL     1      -2.225   2.598  -6.180  0.00  0.00    +0.015 A 
ATOM     17 CL   UNL     1       1.363   0.132  -6.832  0.00  0.00    -0.083 Cl
ENDBRANCH   6  15
ENDBRANCH   5   6
ENDBRANCH   1   5
BRANCH   3  18
ATOM     18  C   UNL     1      -0.013   1.086   0.008  0.00  0.00    +0.139 C 
BRANCH  18  19
ATOM     19  C   UNL     1      -0.718   1.572   1.248  0.00  0.00    -0.030 A 
ATOM     20  C   UNL     1      -0.360   2.779   1.819  0.00  0.00    +0.007 A 
ATOM     21  C   UNL     1      -1.010   3.227   2.953  0.00  0.00    +0.029 A 
ATOM     22  C   UNL     1      -2.012   2.463   3.523  0.00  0.00    +0.105 A 
ATOM     23  C   UNL     1      -2.366   1.254   2.955  0.00  0.00    +0.029 A 
ATOM     24  C   UNL     1      -1.719   0.808   1.818  0.00  0.00    +0.007 A 
BRANCH  22  25
ATOM     25  S   UNL     1      -2.837   3.032   4.972  0.00  0.00    +0.056 S 
ATOM     26  O   UNL     1      -2.695   4.446   4.992  0.00  0.00    -0.153 OA
ATOM     27  O   UNL     1      -4.107   2.394   4.993  0.00  0.00    -0.153 OA
BRANCH  25  28
ATOM     28  N   UNL     1      -1.995   2.453   6.274  0.00  0.00    -0.204 NA
ATOM     29  H   UNL     1      -1.204   1.909   6.137  0.00  0.00    +0.144 HD
ATOM     30  H   UNL     1      -2.292   2.659   7.175  0.00  0.00    +0.144 HD
ENDBRANCH  25  28
ENDBRANCH  22  25
ENDBRANCH  18  19
ENDBRANCH   3  18
TORSDOF 7
