REMARK  Name = ZINC64481885
REMARK  4 active torsions:
REMARK  status: ('A' for Active; 'I' for Inactive)
REMARK    1  A    between atoms: C_1  and  C_2
REMARK    2  A    between atoms: C_2  and  C_3
REMARK    3  A    between atoms: C_6  and  C_9
REMARK    4  A    between atoms: C_18  and  C_21
REMARK                            x       y       z     vdW  Elec       q    Type
REMARK                         _______ _______ _______ _____ _____    ______ ____
ROOT
ATOM      1  C   UNL     1       2.707  -1.868  -4.752  0.00  0.00    +0.059 C 
ATOM      2  C   UNL     1       3.425  -3.198  -4.466  0.00  0.00    +0.108 C 
ATOM      3  C   UNL     1       4.577  -3.423  -5.389  0.00  0.00    +0.216 C 
ATOM      4  O   UNL     1       4.983  -4.563  -5.464  0.00  0.00    -0.276 OA
ATOM      5  N   UNL     1       5.215  -2.524  -6.143  0.00  0.00    -0.289 N 
ATOM      6  C   UNL     1       4.700  -1.177  -6.338  0.00  0.00    +0.243 C 
ATOM      7  C   UNL     1       3.780  -0.896  -5.153  0.00  0.00    +0.004 C 
ATOM      8  C   UNL     1       4.190   0.257  -4.681  0.00  0.00    +0.064 C 
ATOM      9  N   UNL     1       5.324   0.649  -5.317  0.00  0.00    -0.157 NA
ATOM     10  N   UNL     1       5.699  -0.117  -6.236  0.00  0.00    -0.160 NA
ATOM     11  C   UNL     1       3.502   1.035  -3.589  0.00  0.00    +0.067 C 
ATOM     12  H   UNL     1       6.047  -2.776  -6.573  0.00  0.00    +0.151 HD
ENDROOT
BRANCH   1  16
ATOM     13  C   UNL     1       0.707  -0.490  -1.238  0.00  0.00    -0.048 A 
ATOM     14  C   UNL     1      -0.011  -0.719  -2.397  0.00  0.00    +0.004 A 
ATOM     15  C   UNL     1       0.636  -1.164  -3.534  0.00  0.00    +0.004 A 
ATOM     16  C   UNL     1       2.002  -1.381  -3.513  0.00  0.00    -0.040 A 
ATOM     17  C   UNL     1       2.720  -1.152  -2.354  0.00  0.00    +0.004 A 
ATOM     18  C   UNL     1       2.073  -0.702  -1.218  0.00  0.00    +0.004 A 
BRANCH  13  20
ATOM     19  C   UNL     1      -0.019   1.526   0.010  0.00  0.00    +0.009 C 
ATOM     20  C   UNL     1       0.002  -0.004   0.002  0.00  0.00    +0.032 C 
ENDBRANCH  13  20
ENDBRANCH   1  16
TORSDOF 2
