REMARK  Name = ZINC47250998
REMARK  5 active torsions:
REMARK  status: ('A' for Active; 'I' for Inactive)
REMARK    1  A    between atoms: C_1  and  C_2
REMARK    2  A    between atoms: C_2  and  C_23
REMARK    3  A    between atoms: C_7  and  N_11
REMARK    4  A    between atoms: N_11  and  S_12
REMARK    5  A    between atoms: S_12  and  C_15
REMARK                            x       y       z     vdW  Elec       q    Type
REMARK                         _______ _______ _______ _____ _____    ______ ____
ROOT
ATOM      1  N   UNL     1      -0.080  -4.875   3.290  0.00  0.00    -0.216 N 
ATOM      2  H   UNL     1       0.322  -4.708   4.157  0.00  0.00    +0.174 HD
ENDROOT
BRANCH   1   9
ATOM      3  C   UNL     1      -0.019   1.526   0.010  0.00  0.00    +0.104 C 
ATOM      4  C   UNL     1       0.002  -0.004   0.002  0.00  0.00    +0.248 C 
ATOM      5  O   UNL     1      -1.333  -0.529   0.129  0.00  0.00    -0.448 OA
ATOM      6  C   UNL     1      -1.205  -1.678   0.857  0.00  0.00    +0.167 A 
ATOM      7  C   UNL     1      -2.061  -2.753   1.030  0.00  0.00    +0.051 A 
ATOM      8  C   UNL     1      -1.688  -3.813   1.836  0.00  0.00    +0.028 A 
ATOM      9  C   UNL     1      -0.455  -3.802   2.474  0.00  0.00    +0.052 A 
ATOM     10  C   UNL     1       0.405  -2.726   2.303  0.00  0.00    +0.074 A 
ATOM     11  C   UNL     1       0.033  -1.664   1.496  0.00  0.00    +0.169 A 
ATOM     12  O   UNL     1       0.680  -0.507   1.169  0.00  0.00    -0.448 OA
ATOM     13  C   UNL     1       0.669  -0.524  -1.273  0.00  0.00    +0.104 C 
ENDBRANCH   1   9
BRANCH   1  14
ATOM     14  S   UNL     1      -0.323  -6.430   2.776  0.00  0.00    +0.075 S 
ATOM     15  O   UNL     1       0.179  -7.279   3.799  0.00  0.00    -0.150 OA
ATOM     16  O   UNL     1      -1.665  -6.502   2.317  0.00  0.00    -0.150 OA
BRANCH  14  17
ATOM     17  C   UNL     1       0.705  -6.679   1.367  0.00  0.00    +0.144 A 
ATOM     18  C   UNL     1       1.739  -7.595   1.419  0.00  0.00    +0.034 A 
ATOM     19  C   UNL     1       2.546  -7.792   0.314  0.00  0.00    +0.040 A 
ATOM     20  C   UNL     1       2.319  -7.071  -0.847  0.00  0.00    +0.126 A 
ATOM     21  C   UNL     1       1.284  -6.154  -0.900  0.00  0.00    +0.078 A 
ATOM     22  C   UNL     1       0.473  -5.962   0.206  0.00  0.00    +0.153 A 
ATOM     23  F   UNL     1      -0.541  -5.071   0.153  0.00  0.00    -0.203 F 
ATOM     24  F   UNL     1       3.108  -7.262  -1.927  0.00  0.00    -0.205 F 
ENDBRANCH  14  17
ENDBRANCH   1  14
TORSDOF 3
