REMARK  Name = ZINC31655458
REMARK  8 active torsions:
REMARK  status: ('A' for Active; 'I' for Inactive)
REMARK    1  A    between atoms: C_1  and  C_2
REMARK    2  A    between atoms: C_2  and  C_4
REMARK    3  A    between atoms: C_2  and  N_16
REMARK    4  A    between atoms: N_6  and  C_7
REMARK    5  A    between atoms: C_10  and  N_13
REMARK    6  A    between atoms: N_13  and  C_14
REMARK    7  A    between atoms: N_13  and  C_15
REMARK    8  A    between atoms: C_18  and  C_21
REMARK                            x       y       z     vdW  Elec       q    Type
REMARK                         _______ _______ _______ _____ _____    ______ ____
ROOT
ATOM      1  C   UNL     1      -4.084  -3.891   1.272  0.00  0.00    +0.044 C 
ATOM      2  C   UNL     1      -3.240  -3.694   0.011  0.00  0.00    +0.213 C 
ENDROOT
BRANCH   2   3
ATOM      3  N   UNL     1      -2.663  -2.347   0.015  0.00  0.00    -0.151 N 
ATOM      4  N   UNL     1      -1.403  -2.076  -0.002  0.00  0.00    -0.130 NA
ATOM      5  C   UNL     1      -1.273  -0.764   0.008  0.00  0.00    +0.205 A 
ATOM      6  N   UNL     1      -2.513  -0.255   0.038  0.00  0.00    -0.108 NA
ATOM      7  N   UNL     1      -3.335  -1.249   0.036  0.00  0.00    -0.045 NA
BRANCH   5   8
ATOM      8  C   UNL     1      -0.001   0.001  -0.005  0.00  0.00    +0.023 A 
ATOM      9  C   UNL     1      -0.023   1.394   0.009  0.00  0.00    +0.013 A 
ATOM     10  C   UNL     1       1.162   2.100  -0.003  0.00  0.00    +0.021 A 
ATOM     11  C   UNL     1       2.372   1.427  -0.028  0.00  0.00    +0.041 A 
ATOM     12  C   UNL     1       2.399   0.043  -0.041  0.00  0.00    +0.021 A 
ATOM     13  C   UNL     1       1.218  -0.672  -0.030  0.00  0.00    +0.013 A 
ATOM     14 CL   UNL     1       3.860   2.322  -0.043  0.00  0.00    -0.084 Cl
ENDBRANCH   5   8
ENDBRANCH   2   3
BRANCH   2  15
ATOM     15  C   UNL     1      -4.110  -3.864  -1.208  0.00  0.00    +0.243 C 
ATOM     16  O   UNL     1      -4.236  -2.950  -1.995  0.00  0.00    -0.273 OA
ATOM     17  N   UNL     1      -4.748  -5.031  -1.422  0.00  0.00    -0.284 N 
ATOM     18  H   UNL     1      -4.575  -5.885  -0.750  0.00  0.00    +0.155 HD
BRANCH  17  19
ATOM     19  C   UNL     1      -5.633  -5.158  -2.502  0.00  0.00    +0.034 A 
ATOM     20  C   UNL     1      -6.769  -5.947  -2.380  0.00  0.00    +0.025 A 
ATOM     21  C   UNL     1      -7.643  -6.069  -3.441  0.00  0.00    +0.025 A 
ATOM     22  C   UNL     1      -7.381  -5.409  -4.635  0.00  0.00    +0.029 A 
ATOM     23  C   UNL     1      -6.242  -4.624  -4.759  0.00  0.00    +0.025 A 
ATOM     24  C   UNL     1      -5.371  -4.499  -3.696  0.00  0.00    +0.025 A 
BRANCH  22  25
ATOM     25  N   UNL     1      -8.265  -5.535  -5.712  0.00  0.00    -0.336 N 
ATOM     26  C   UNL     1      -7.989  -4.839  -6.971  0.00  0.00    +0.129 C 
ATOM     27  C   UNL     1      -9.466  -6.363  -5.581  0.00  0.00    +0.129 C 
ENDBRANCH  22  25
ENDBRANCH  17  19
ENDBRANCH   2  15
TORSDOF 5
