REMARK  Name = ZINC12570635
REMARK  7 active torsions:
REMARK  status: ('A' for Active; 'I' for Inactive)
REMARK    1  A    between atoms: C_1  and  C_2
REMARK    2  A    between atoms: C_2  and  C_31
REMARK    3  A    between atoms: C_4  and  N_64
REMARK    4  A    between atoms: C_9  and  C_10
REMARK    5  A    between atoms: C_9  and  N_64
REMARK    6  A    between atoms: N_18  and  C_21
REMARK    7  A    between atoms: C_21  and  C_22
REMARK                            x       y       z     vdW  Elec       q    Type
REMARK                         _______ _______ _______ _____ _____    ______ ____
ROOT
ATOM      1  C   UNL     1      -0.742   1.585  -1.213  0.00  0.00    +0.001 A 
ATOM      2  C   UNL     1      -0.340   2.731  -1.819  0.00  0.00    +0.017 A 
ATOM      3  C   UNL     1      -1.064   3.187  -3.004  0.00  0.00    +0.003 A 
ATOM      4  C   UNL     1      -0.692   4.361  -3.672  0.00  0.00    +0.059 A 
ATOM      5  C   UNL     1      -1.394   4.765  -4.785  0.00  0.00    +0.167 A 
ATOM      6  C   UNL     1      -2.478   4.009  -5.250  0.00  0.00    +0.168 A 
ATOM      7  C   UNL     1      -2.854   2.850  -4.595  0.00  0.00    +0.076 A 
ATOM      8  C   UNL     1      -2.155   2.428  -3.471  0.00  0.00    +0.056 A 
ATOM      9  N   UNL     1      -2.517   1.274  -2.805  0.00  0.00    -0.308 N 
ATOM     10  C   UNL     1      -1.842   0.863  -1.718  0.00  0.00    +0.253 A 
ATOM     11  O   UNL     1      -2.189  -0.161  -1.155  0.00  0.00    -0.267 OA
ATOM     12  O   UNL     1      -2.992   4.623  -6.354  0.00  0.00    -0.453 OA
ATOM     13  C   UNL     1      -1.968   5.530  -6.803  0.00  0.00    +0.466 C 
ATOM     14  O   UNL     1      -1.239   5.848  -5.604  0.00  0.00    -0.453 OA
ENDROOT
BRANCH   1  15
ATOM     15  C   UNL     1      -0.013   1.086   0.008  0.00  0.00    -0.041 C 
BRANCH  15  16
ATOM     16  N   UNL     1      -0.709   1.566   1.217  0.00  0.00    +0.384 N 
ATOM     17  H   UNL     1      -0.723   2.592   1.214  0.00  0.00    -0.085 HD
ATOM     18  H   UNL     1      -1.672   1.210   1.216  0.00  0.00    -0.085 HD
BRANCH  16  22
ATOM     19  C   UNL     1       0.300  -0.774   4.695  0.00  0.00    +0.041 C 
ATOM     20  C   UNL     1      -0.272   0.634   4.870  0.00  0.00    +0.063 C 
ATOM     21  C   UNL     1      -1.010   1.048   3.594  0.00  0.00    +0.019 C 
ATOM     22  C   UNL     1      -0.016   1.091   2.429  0.00  0.00    -0.067 C 
ATOM     23  C   UNL     1       1.122   2.054   2.780  0.00  0.00    +0.012 C 
ATOM     24  C   UNL     1       1.778   1.602   4.087  0.00  0.00    +0.159 C 
ATOM     25  O   UNL     1       0.793   1.554   5.121  0.00  0.00    -0.374 OA
ATOM     26  C   UNL     1      -1.246   0.646   6.050  0.00  0.00    +0.041 C 
ENDBRANCH  16  22
ENDBRANCH  15  16
ENDBRANCH   1  15
BRANCH   9  27
ATOM     27  C   UNL     1      -3.652   0.487  -3.291  0.00  0.00    +0.129 C 
BRANCH  27  28
ATOM     28  C   UNL     1      -4.937   0.976  -2.619  0.00  0.00    +0.009 C 
ATOM     29  C   UNL     1      -4.864   0.697  -1.116  0.00  0.00    +0.005 C 
ATOM     30  C   UNL     1      -6.149   1.186  -0.444  0.00  0.00    +0.000 C 
ATOM     31  C   UNL     1      -7.349   0.450  -1.041  0.00  0.00    +0.000 C 
ATOM     32  C   UNL     1      -7.422   0.728  -2.544  0.00  0.00    +0.000 C 
ATOM     33  C   UNL     1      -6.138   0.239  -3.216  0.00  0.00    +0.005 C 
ENDBRANCH  27  28
ENDBRANCH   9  27
TORSDOF 5
