REMARK  Name = ZINC05618879
REMARK  7 active torsions:
REMARK  status: ('A' for Active; 'I' for Inactive)
REMARK    1  A    between atoms: C_1  and  C_2
REMARK    2  A    between atoms: N_9  and  C_10
REMARK    3  A    between atoms: C_12  and  C_25
REMARK    4  A    between atoms: N_14  and  C_24
REMARK    5  A    between atoms: N_15  and  C_18
REMARK    6  A    between atoms: N_28  and  C_29
REMARK    7  A    between atoms: C_29  and  C_30
REMARK                            x       y       z     vdW  Elec       q    Type
REMARK                         _______ _______ _______ _____ _____    ______ ____
ROOT
ATOM      1  C   UNL     1       1.989   2.321   1.392  0.00  0.00    +0.044 C 
ATOM      2  C   UNL     1       1.541   0.922   1.057  0.00  0.00    -0.050 A 
ATOM      3  C   UNL     1       1.378   0.545  -0.265  0.00  0.00    +0.005 A 
ATOM      4  C   UNL     1       0.968  -0.734  -0.587  0.00  0.00    +0.024 A 
ATOM      5  C   UNL     1       0.714  -1.660   0.419  0.00  0.00    +0.046 A 
ATOM      6  C   UNL     1       0.880  -1.274   1.755  0.00  0.00    +0.027 A 
ATOM      7  C   UNL     1       1.298   0.014   2.070  0.00  0.00    +0.015 A 
ATOM      8  C   UNL     1       0.540  -2.457   2.580  0.00  0.00    +0.130 C 
ATOM      9  N   UNL     1       0.554  -2.551   3.875  0.00  0.00    -0.264 NA
ATOM     10  C   UNL     1       0.175  -3.517   1.594  0.00  0.00    +0.270 C 
ATOM     11  O   UNL     1      -0.169  -4.652   1.855  0.00  0.00    -0.268 OA
ATOM     12  N   UNL     1       0.298  -2.988   0.364  0.00  0.00    -0.262 N 
ENDROOT
BRANCH   9  13
ATOM     13  C   UNL     1       0.183  -3.812   4.522  0.00  0.00    +0.212 C 
ATOM     14  C   UNL     1       1.329  -4.324   5.429  0.00  0.00    +0.107 C 
ATOM     15  N   UNL     1       0.581  -4.884   6.579  0.00  0.00    -0.217 NA
ATOM     16  N   UNL     1      -0.612  -4.229   6.660  0.00  0.00    -0.200 N 
ATOM     17  C   UNL     1      -0.947  -3.599   5.514  0.00  0.00    +0.260 C 
ATOM     18  O   UNL     1      -1.965  -2.973   5.311  0.00  0.00    -0.272 OA
ATOM     19  C   UNL     1       0.379  -6.330   6.421  0.00  0.00    +0.128 C 
ATOM     20  C   UNL     1       2.141  -5.412   4.722  0.00  0.00    +0.028 C 
BRANCH  16  21
ATOM     21  C   UNL     1      -1.409  -4.215   7.809  0.00  0.00    +0.053 A 
ATOM     22  C   UNL     1      -2.770  -4.474   7.716  0.00  0.00    +0.025 A 
ATOM     23  C   UNL     1      -3.554  -4.459   8.853  0.00  0.00    +0.002 A 
ATOM     24  C   UNL     1      -2.986  -4.186  10.083  0.00  0.00    +0.000 A 
ATOM     25  C   UNL     1      -1.631  -3.927  10.180  0.00  0.00    +0.002 A 
ATOM     26  C   UNL     1      -0.840  -3.947   9.047  0.00  0.00    +0.025 A 
ENDBRANCH  16  21
ENDBRANCH   9  13
BRANCH  12  27
ATOM     27  C   UNL     1       0.028  -3.716  -0.877  0.00  0.00    +0.140 C 
BRANCH  27  28
ATOM     28  C   UNL     1       1.291  -4.389  -1.350  0.00  0.00    -0.015 C 
ATOM     29  C   UNL     1       1.301  -5.679  -1.577  0.00  0.00    +0.005 C 
ENDBRANCH  27  28
ENDBRANCH  12  27
TORSDOF 4
