REMARK  Name = ZINC49095768
REMARK  7 active torsions:
REMARK  status: ('A' for Active; 'I' for Inactive)
REMARK    1  A    between atoms: C_1  and  C_2
REMARK    2  A    between atoms: C_2  and  C_4
REMARK    3  A    between atoms: C_2  and  N_8
REMARK    4  A    between atoms: N_6  and  C_7
REMARK    5  A    between atoms: N_8  and  S_9
REMARK    6  A    between atoms: S_9  and  C_12
REMARK    7  A    between atoms: C_13  and  N_20
REMARK                            x       y       z     vdW  Elec       q    Type
REMARK                         _______ _______ _______ _____ _____    ______ ____
ROOT
ATOM      1  S   UNL     1      -0.601  -1.041   3.440  0.00  0.00    +0.062 S 
ATOM      2  O   UNL     1       0.000  -1.629   4.586  0.00  0.00    -0.153 OA
ATOM      3  O   UNL     1      -1.576  -0.012   3.534  0.00  0.00    -0.153 OA
ENDROOT
BRANCH   1   4
ATOM      4  C   UNL     1      -1.341  -2.356   2.530  0.00  0.00    +0.140 A 
ATOM      5  C   UNL     1      -2.455  -2.111   1.736  0.00  0.00    +0.053 A 
ATOM      6  C   UNL     1      -3.035  -3.149   1.020  0.00  0.00    +0.040 A 
ATOM      7  C   UNL     1      -2.504  -4.423   1.098  0.00  0.00    +0.021 A 
ATOM      8  C   UNL     1      -1.395  -4.663   1.889  0.00  0.00    +0.032 A 
ATOM      9  C   UNL     1      -0.811  -3.630   2.600  0.00  0.00    +0.047 A 
ATOM     10 BR   UNL     1       0.710  -3.962   3.674  0.00  0.00    -0.048 Br
ATOM     11 BR   UNL     1      -3.294  -5.837   0.122  0.00  0.00    -0.050 Br
BRANCH   5  12
ATOM     12  N   UNL     1      -2.990  -0.823   1.659  0.00  0.00    -0.356 N 
ATOM     13  H   UNL     1      -2.422  -0.052   1.816  0.00  0.00    +0.142 HD
ATOM     14  H   UNL     1      -3.929  -0.699   1.450  0.00  0.00    +0.142 HD
ENDBRANCH   5  12
ENDBRANCH   1   4
BRANCH   1  15
ATOM     15  N   UNL     1       0.634  -0.439   2.514  0.00  0.00    -0.178 NA
ATOM     16  H   UNL     1       1.551  -0.520   2.818  0.00  0.00    +0.149 HD
BRANCH  15  18
ATOM     17  C   UNL     1       0.248   1.728   1.448  0.00  0.00    +0.035 C 
ATOM     18  C   UNL     1       0.340   0.215   1.237  0.00  0.00    +0.159 C 
BRANCH  18  19
ATOM     19  C   UNL     1       1.439  -0.089   0.252  0.00  0.00    +0.231 C 
ATOM     20  O   UNL     1       2.376  -0.784   0.585  0.00  0.00    -0.274 OA
ATOM     21  N   UNL     1       1.381   0.411  -0.998  0.00  0.00    -0.317 N 
ATOM     22  C   UNL     1       2.450   0.115  -1.956  0.00  0.00    +0.128 C 
ATOM     23  H   UNL     1       0.632   0.966  -1.264  0.00  0.00    +0.148 HD
ENDBRANCH  18  19
ENDBRANCH  15  18
ENDBRANCH   1  15
TORSDOF 5
