REMARK  Name = ZINC40007311
REMARK  9 active torsions:
REMARK  status: ('A' for Active; 'I' for Inactive)
REMARK    1  A    between atoms: C_1  and  O_2
REMARK    2  A    between atoms: O_2  and  C_3
REMARK    3  A    between atoms: C_6  and  N_9
REMARK    4  A    between atoms: C_10  and  C_12
REMARK    5  A    between atoms: C_12  and  C_29
REMARK    6  A    between atoms: C_13  and  C_14
REMARK    7  A    between atoms: C_17  and  O_20
REMARK    8  A    between atoms: O_20  and  C_21
REMARK    9  A    between atoms: C_21  and  C_22
REMARK                            x       y       z     vdW  Elec       q    Type
REMARK                         _______ _______ _______ _____ _____    ______ ____
ROOT
ATOM      1  C   UNL     1       2.748  -4.519  -5.720  0.00  0.00    +0.114 C 
ATOM      2  C   UNL     1       3.475  -5.673  -5.524  0.00  0.00    +0.032 C 
ENDROOT
BRANCH   2   3
ATOM      3  C   UNL     1       4.305  -6.208  -6.605  0.00  0.00    -0.023 A 
ATOM      4  C   UNL     1       4.834  -5.348  -7.578  0.00  0.00    +0.011 A 
ATOM      5  C   UNL     1       5.607  -5.853  -8.584  0.00  0.00    +0.046 A 
ATOM      6  C   UNL     1       5.870  -7.218  -8.645  0.00  0.00    +0.121 A 
ATOM      7  C   UNL     1       5.348  -8.076  -7.683  0.00  0.00    +0.046 A 
ATOM      8  C   UNL     1       4.578  -7.582  -6.668  0.00  0.00    +0.011 A 
BRANCH   6   9
ATOM      9  O   UNL     1       6.638  -7.714  -9.647  0.00  0.00    -0.487 OA
BRANCH   9  10
ATOM     10  C   UNL     1       6.869  -9.124  -9.651  0.00  0.00    +0.264 C 
BRANCH  10  11
ATOM     11  C   UNL     1       7.736  -9.489 -10.828  0.00  0.00    -0.010 A 
ATOM     12  C   UNL     1       7.155  -9.809 -12.041  0.00  0.00    +0.008 A 
ATOM     13  C   UNL     1       7.949 -10.143 -13.121  0.00  0.00    +0.020 A 
ATOM     14  C   UNL     1       9.326 -10.158 -12.989  0.00  0.00    +0.041 A 
ATOM     15  C   UNL     1       9.907  -9.837 -11.775  0.00  0.00    +0.020 A 
ATOM     16  C   UNL     1       9.112  -9.497 -10.697  0.00  0.00    +0.008 A 
ATOM     17 CL   UNL     1      10.325 -10.578 -14.345  0.00  0.00    -0.084 Cl
ENDBRANCH  10  11
ENDBRANCH   9  10
ENDBRANCH   6   9
ENDBRANCH   2   3
BRANCH   1  19
ATOM     18  N   UNL     1       1.350  -2.752  -4.778  0.00  0.00    -0.281 N 
ATOM     19  C   UNL     1       2.061  -3.880  -4.586  0.00  0.00    +0.259 C 
ATOM     20  O   UNL     1       2.135  -4.372  -3.476  0.00  0.00    -0.269 OA
ATOM     21  H   UNL     1       1.227  -2.402  -5.675  0.00  0.00    +0.155 HD
BRANCH  18  25
ATOM     22  C   UNL     1      -0.324  -0.763  -1.519  0.00  0.00    +0.120 A 
ATOM     23  C   UNL     1      -0.906  -0.650  -2.773  0.00  0.00    +0.047 A 
ATOM     24  C   UNL     1      -0.352  -1.308  -3.853  0.00  0.00    +0.027 A 
ATOM     25  C   UNL     1       0.788  -2.083  -3.683  0.00  0.00    +0.034 A 
ATOM     26  C   UNL     1       1.370  -2.196  -2.428  0.00  0.00    +0.027 A 
ATOM     27  C   UNL     1       0.818  -1.532  -1.350  0.00  0.00    +0.047 A 
BRANCH  22  29
ATOM     28  C   UNL     1      -2.045   0.660  -0.702  0.00  0.00    +0.277 C 
ATOM     29  O   UNL     1      -0.869  -0.114  -0.455  0.00  0.00    -0.495 OA
ENDBRANCH  22  29
ENDBRANCH  18  25
ENDBRANCH   1  19
BRANCH   1  30
ATOM     30  C   UNL     1       2.661  -3.941  -7.027  0.00  0.00    +0.104 C 
ATOM     31  N   UNL     1       2.592  -3.482  -8.064  0.00  0.00    -0.191 NA
ENDBRANCH   1  30
TORSDOF 8
