REMARK  Name = ZINC04731962
REMARK  10 active torsions:
REMARK  status: ('A' for Active; 'I' for Inactive)
REMARK    1  A    between atoms: C_1  and  C_2
REMARK    2  A    between atoms: C_2  and  C_3
REMARK    3  A    between atoms: C_2  and  C_4
REMARK    4  A    between atoms: C_2  and  N_5
REMARK    5  A    between atoms: C_6  and  C_8
REMARK    6  A    between atoms: C_13  and  N_14
REMARK    7  A    between atoms: C_15  and  C_17
REMARK    8  A    between atoms: N_22  and  C_24
REMARK    9  A    between atoms: C_27  and  O_30
REMARK   10  A    between atoms: O_30  and  C_31
REMARK                            x       y       z     vdW  Elec       q    Type
REMARK                         _______ _______ _______ _____ _____    ______ ____
ROOT
ATOM      1  N   UNL     1       0.304   0.118   3.080  0.00  0.00    -0.285 N 
ATOM      2  C   UNL     1      -0.912   0.443   2.598  0.00  0.00    +0.222 C 
ATOM      3  O   UNL     1      -1.907  -0.059   3.074  0.00  0.00    -0.275 OA
ATOM      4  H   UNL     1       1.094   0.577   2.754  0.00  0.00    +0.155 HD
ENDROOT
BRANCH   1  10
ATOM      5  C   UNL     1       1.407  -0.773   5.045  0.00  0.00    +0.058 A 
ATOM      6  C   UNL     1       1.516  -1.775   6.012  0.00  0.00    +0.015 A 
ATOM      7  C   UNL     1       0.670  -2.862   5.974  0.00  0.00    +0.001 A 
ATOM      8  C   UNL     1      -0.294  -2.964   4.984  0.00  0.00    +0.002 A 
ATOM      9  C   UNL     1      -0.418  -1.979   4.025  0.00  0.00    +0.024 A 
ATOM     10  C   UNL     1       0.426  -0.877   4.047  0.00  0.00    +0.046 A 
BRANCH   5  12
ATOM     11  N   UNL     1       3.187   0.537   6.092  0.00  0.00    -0.307 N 
ATOM     12  C   UNL     1       2.313   0.390   5.076  0.00  0.00    +0.246 C 
ATOM     13  O   UNL     1       2.273   1.217   4.185  0.00  0.00    -0.270 OA
ATOM     14  H   UNL     1       3.219  -0.122   6.803  0.00  0.00    +0.150 HD
BRANCH  11  16
ATOM     15  C   UNL     1       3.263   2.981   6.155  0.00  0.00    +0.031 C 
ATOM     16  C   UNL     1       4.087   1.692   6.123  0.00  0.00    +0.026 C 
ATOM     17  C   UNL     1       4.968   1.619   7.372  0.00  0.00    +0.031 C 
ATOM     18  C   UNL     1       4.971   1.683   4.875  0.00  0.00    +0.031 C 
ENDBRANCH  11  16
ENDBRANCH   5  12
ENDBRANCH   1  10
BRANCH   2  19
ATOM     19  C   UNL     1      -1.034   1.431   1.466  0.00  0.00    +0.102 C 
ATOM     20  C   UNL     1      -0.314   0.913   0.199  0.00  0.00    +0.110 C 
ATOM     21  C   UNL     1      -1.196   1.366  -0.944  0.00  0.00    +0.221 C 
ATOM     22  O   UNL     1      -0.856   1.411  -2.107  0.00  0.00    -0.275 OA
ATOM     23  N   UNL     1      -2.409   1.713  -0.482  0.00  0.00    -0.271 N 
ATOM     24  C   UNL     1      -2.498   1.534   0.972  0.00  0.00    +0.127 C 
BRANCH  23  25
ATOM     25  C   UNL     1      -3.456   2.184  -1.285  0.00  0.00    +0.036 A 
ATOM     26  C   UNL     1      -3.239   2.430  -2.634  0.00  0.00    +0.027 A 
ATOM     27  C   UNL     1      -4.273   2.889  -3.427  0.00  0.00    +0.047 A 
ATOM     28  C   UNL     1      -5.524   3.114  -2.873  0.00  0.00    +0.120 A 
ATOM     29  C   UNL     1      -5.740   2.873  -1.524  0.00  0.00    +0.047 A 
ATOM     30  C   UNL     1      -4.709   2.409  -0.732  0.00  0.00    +0.027 A 
BRANCH  28  31
ATOM     31  O   UNL     1      -6.540   3.572  -3.653  0.00  0.00    -0.495 OA
ATOM     32  C   UNL     1      -6.247   3.798  -5.033  0.00  0.00    +0.277 C 
ENDBRANCH  28  31
ENDBRANCH  23  25
ENDBRANCH   2  19
TORSDOF 6
