REMARK  Name = ZINC04484399
REMARK  4 active torsions:
REMARK  status: ('A' for Active; 'I' for Inactive)
REMARK    1  A    between atoms: C_1  and  C_2
REMARK    2  A    between atoms: C_7  and  N_8
REMARK    3  A    between atoms: C_9  and  C_11
REMARK    4  A    between atoms: C_13  and  C_23
REMARK                            x       y       z     vdW  Elec       q    Type
REMARK                         _______ _______ _______ _____ _____    ______ ____
ROOT
ATOM      1  N   UNL     1      -0.201   1.383   0.156  0.00  0.00    -0.282 N 
ATOM      2  C   UNL     1       0.978   1.984  -0.100  0.00  0.00    +0.262 C 
ATOM      3  O   UNL     1       1.936   1.321  -0.439  0.00  0.00    -0.271 OA
ATOM      4  H   UNL     1      -0.984   1.918   0.358  0.00  0.00    +0.155 HD
ENDROOT
BRANCH   2   5
ATOM      5  C   UNL     1       1.107   3.479   0.035  0.00  0.00    +0.299 C 
ATOM      6  C   UNL     1       0.356   4.169  -1.112  0.00  0.00    +0.220 C 
ATOM      7  O   UNL     1       0.510   5.585  -0.962  0.00  0.00    -0.481 OA
ATOM      8  C   UNL     1       1.765   6.039  -0.697  0.00  0.00    +0.163 A 
ATOM      9  C   UNL     1       2.058   7.381  -0.889  0.00  0.00    +0.049 A 
ATOM     10  C   UNL     1       3.326   7.859  -0.618  0.00  0.00    +0.004 A 
ATOM     11  C   UNL     1       4.307   7.000  -0.156  0.00  0.00    +0.004 A 
ATOM     12  C   UNL     1       4.022   5.662   0.036  0.00  0.00    +0.049 A 
ATOM     13  C   UNL     1       2.751   5.176  -0.234  0.00  0.00    +0.163 A 
ATOM     14  O   UNL     1       2.486   3.854  -0.043  0.00  0.00    -0.472 OA
ATOM     15  C   UNL     1      -1.128   3.802  -1.052  0.00  0.00    +0.056 C 
ENDBRANCH   2   5
BRANCH   1  22
ATOM     16  C   UNL     1      -2.033   0.120   1.929  0.00  0.00    +0.045 C 
ATOM     17  C   UNL     1      -1.178  -0.669   0.972  0.00  0.00    -0.029 A 
ATOM     18  C   UNL     1      -1.274  -2.047   0.934  0.00  0.00    +0.005 A 
ATOM     19  C   UNL     1      -0.485  -2.772   0.060  0.00  0.00    +0.000 A 
ATOM     20  C   UNL     1       0.398  -2.122  -0.782  0.00  0.00    +0.002 A 
ATOM     21  C   UNL     1       0.495  -0.744  -0.752  0.00  0.00    +0.023 A 
ATOM     22  C   UNL     1      -0.296  -0.013   0.124  0.00  0.00    +0.036 A 
ENDBRANCH   1  22
TORSDOF 2
