REMARK  Name = ZINC66280025
REMARK  6 active torsions:
REMARK  status: ('A' for Active; 'I' for Inactive)
REMARK    1  A    between atoms: C_1  and  C_2
REMARK    2  A    between atoms: C_2  and  C_20
REMARK    3  A    between atoms: N_5  and  C_9
REMARK    4  A    between atoms: C_9  and  C_10
REMARK    5  A    between atoms: C_10  and  O_12
REMARK    6  A    between atoms: O_12  and  C_13
REMARK                            x       y       z     vdW  Elec       q    Type
REMARK                         _______ _______ _______ _____ _____    ______ ____
ROOT
ATOM      1  C   UNL     1      -0.019   1.526   0.010  0.00  0.00    +0.047 C 
ATOM      2  C   UNL     1       0.002  -0.004   0.002  0.00  0.00    +0.135 C 
ATOM      3  C   UNL     1       0.815  -0.520  -1.169  0.00  0.00    +0.251 C 
ATOM      4  O   UNL     1       0.595  -0.342  -2.348  0.00  0.00    -0.272 OA
ATOM      5  N   UNL     1       1.833  -1.217  -0.627  0.00  0.00    -0.213 N 
ATOM      6  C   UNL     1       1.777  -1.214   0.710  0.00  0.00    +0.310 C 
ATOM      7  O   UNL     1       2.586  -1.776   1.421  0.00  0.00    -0.252 OA
ATOM      8  N   UNL     1       0.724  -0.519   1.178  0.00  0.00    -0.281 N 
ATOM      9  H   UNL     1       0.487  -0.383   2.109  0.00  0.00    +0.152 HD
ENDROOT
BRANCH   2  10
ATOM     10  C   UNL     1      -1.401  -0.551  -0.040  0.00  0.00    -0.015 A 
ATOM     11  C   UNL     1      -2.000  -0.813  -1.271  0.00  0.00    +0.007 A 
ATOM     12  C   UNL     1      -3.266  -1.307  -1.344  0.00  0.00    +0.009 A 
ATOM     13  C   UNL     1      -3.983  -1.559  -0.163  0.00  0.00    -0.018 A 
ATOM     14  C   UNL     1      -5.292  -2.070  -0.198  0.00  0.00    +0.008 A 
ATOM     15  C   UNL     1      -5.956  -2.302   0.967  0.00  0.00    +0.001 A 
ATOM     16  C   UNL     1      -5.357  -2.041   2.198  0.00  0.00    +0.001 A 
ATOM     17  C   UNL     1      -4.092  -1.546   2.272  0.00  0.00    +0.008 A 
ATOM     18  C   UNL     1      -3.374  -1.294   1.089  0.00  0.00    -0.018 A 
ATOM     19  C   UNL     1      -2.063  -0.788   1.125  0.00  0.00    +0.014 A 
ENDBRANCH   2  10
BRANCH   5  20
ATOM     20  C   UNL     1       2.871  -1.896  -1.406  0.00  0.00    +0.238 C 
BRANCH  20  21
ATOM     21  C   UNL     1       4.020  -0.950  -1.644  0.00  0.00    +0.325 C 
ATOM     22  O   UNL     1       3.975   0.176  -1.208  0.00  0.00    -0.249 OA
BRANCH  21  23
ATOM     23  O   UNL     1       5.092  -1.358  -2.340  0.00  0.00    -0.460 OA
BRANCH  23  24
ATOM     24  C   UNL     1       6.144  -0.409  -2.527  0.00  0.00    +0.176 C 
ATOM     25  C   UNL     1       5.844   0.426  -3.789  0.00  0.00    +0.044 C 
ATOM     26  C   UNL     1       6.625   1.710  -3.709  0.00  0.00    +0.004 C 
ATOM     27  C   UNL     1       7.980   1.622  -4.437  0.00  0.00    +0.000 C 
ATOM     28  C   UNL     1       8.705   0.285  -4.191  0.00  0.00    +0.000 C 
ATOM     29  C   UNL     1       8.613  -0.164  -2.758  0.00  0.00    +0.004 C 
ATOM     30  C   UNL     1       7.410  -1.120  -2.620  0.00  0.00    +0.044 C 
ENDBRANCH  23  24
ENDBRANCH  21  23
ENDBRANCH  20  21
ENDBRANCH   5  20
TORSDOF 5
