REMARK  Name = ZINC09536802
REMARK  6 active torsions:
REMARK  status: ('A' for Active; 'I' for Inactive)
REMARK    1  A    between atoms: C_1  and  C_2
REMARK    2  A    between atoms: C_5  and  C_7
REMARK    3  A    between atoms: N_14  and  C_17
REMARK    4  A    between atoms: C_17  and  C_18
REMARK    5  A    between atoms: N_23  and  C_24
REMARK    6  A    between atoms: C_30  and  C_32
REMARK                            x       y       z     vdW  Elec       q    Type
REMARK                         _______ _______ _______ _____ _____    ______ ____
ROOT
ATOM      1  C   UNL     1       3.324   3.584  -9.984  0.00  0.00    +0.010 A 
ATOM      2  C   UNL     1       4.110   3.404 -11.075  0.00  0.00    +0.057 A 
ATOM      3  S   UNL     1       3.747   1.732 -11.575  0.00  0.00    -0.076 S 
ATOM      4  C   UNL     1       2.561   1.316 -10.322  0.00  0.00    +0.116 A 
ATOM      5  C   UNL     1       2.474   2.483  -9.545  0.00  0.00    +0.080 A 
ATOM      6  C   UNL     1       1.563   2.426  -8.442  0.00  0.00    +0.263 A 
ATOM      7  O   UNL     1       1.415   3.392  -7.712  0.00  0.00    -0.267 OA
ATOM      8  N   UNL     1       0.878   1.290  -8.220  0.00  0.00    -0.290 N 
ATOM      9  C   UNL     1       1.027   0.207  -9.025  0.00  0.00    +0.203 A 
ATOM     10  N   UNL     1       1.845   0.230 -10.042  0.00  0.00    -0.230 NA
ENDROOT
BRANCH   1  15
ATOM     11  C   UNL     1       2.357   8.435  -7.282  0.00  0.00    +0.051 C 
ATOM     12  C   UNL     1       2.870   7.192  -7.962  0.00  0.00    -0.013 A 
ATOM     13  C   UNL     1       4.152   6.780  -8.131  0.00  0.00    +0.011 A 
ATOM     14  C   UNL     1       4.394   5.590  -8.786  0.00  0.00    +0.016 A 
ATOM     15  C   UNL     1       3.329   4.869  -9.255  0.00  0.00    +0.021 A 
ATOM     16  S   UNL     1       1.948   5.882  -8.751  0.00  0.00    -0.093 S 
ENDBRANCH   1  15
BRANCH   8  17
ATOM     17  C   UNL     1      -0.052   1.222  -7.090  0.00  0.00    +0.222 C 
BRANCH  17  18
ATOM     18  C   UNL     1       0.677   0.723  -5.869  0.00  0.00    +0.240 C 
ATOM     19  O   UNL     1       1.856   0.451  -5.936  0.00  0.00    -0.273 OA
ATOM     20  N   UNL     1       0.017   0.578  -4.702  0.00  0.00    -0.239 N 
ATOM     21  C   UNL     1       0.669   0.132  -3.610  0.00  0.00    +0.306 C 
ATOM     22  O   UNL     1       1.852  -0.141  -3.678  0.00  0.00    -0.252 OA
ATOM     23  N   UNL     1       0.010  -0.012  -2.444  0.00  0.00    -0.296 N 
ATOM     24  H   UNL     1      -0.926   0.796  -4.648  0.00  0.00    +0.159 HD
ATOM     25  H   UNL     1      -0.934   0.205  -2.390  0.00  0.00    +0.151 HD
BRANCH  23  26
ATOM     26  C   UNL     1       0.718  -0.497  -1.257  0.00  0.00    +0.077 C 
ATOM     27  C   UNL     1       0.739  -2.027  -1.265  0.00  0.00    +0.022 C 
ATOM     28  C   UNL     1       1.479  -2.534  -0.026  0.00  0.00    +0.002 C 
ATOM     29  C   UNL     1       0.763  -2.041   1.233  0.00  0.00    +0.000 C 
ATOM     30  C   UNL     1       0.742  -0.511   1.242  0.00  0.00    +0.005 C 
ATOM     31  C   UNL     1       0.002  -0.004   0.002  0.00  0.00    +0.006 C 
ATOM     32  C   UNL     1      -0.019   1.526   0.010  0.00  0.00    +0.009 C 
ENDBRANCH  23  26
ENDBRANCH  17  18
ENDBRANCH   8  17
TORSDOF 4
