REMARK  Name = ZINC05291739
REMARK  6 active torsions:
REMARK  status: ('A' for Active; 'I' for Inactive)
REMARK    1  A    between atoms: C_1  and  C_2
REMARK    2  A    between atoms: C_4  and  C_16
REMARK    3  A    between atoms: C_5  and  C_15
REMARK    4  A    between atoms: N_6  and  C_7
REMARK    5  A    between atoms: C_16  and  C_18
REMARK    6  A    between atoms: C_18  and  N_19
REMARK                            x       y       z     vdW  Elec       q    Type
REMARK                         _______ _______ _______ _____ _____    ______ ____
ROOT
ATOM      1  C   UNL     1      -1.504   2.672   1.453  0.00  0.00    +0.183 C 
ATOM      2  O   UNL     1      -0.734   2.442   2.363  0.00  0.00    -0.290 OA
ENDROOT
BRANCH   1   6
ATOM      3  C   UNL     1      -6.105   4.779   0.862  0.00  0.00    +0.063 C 
ATOM      4  C   UNL     1      -4.819   4.254   1.446  0.00  0.00    +0.017 A 
ATOM      5  C   UNL     1      -3.826   3.674   0.750  0.00  0.00    +0.034 A 
ATOM      6  C   UNL     1      -2.785   3.325   1.726  0.00  0.00    +0.040 A 
ATOM      7  C   UNL     1      -3.267   3.735   2.955  0.00  0.00    +0.027 A 
ATOM      8  N   UNL     1      -4.477   4.292   2.767  0.00  0.00    -0.343 N 
ATOM      9  C   UNL     1      -2.557   3.587   4.276  0.00  0.00    +0.064 C 
BRANCH   8  10
ATOM     10  C   UNL     1      -5.313   4.853   3.831  0.00  0.00    +0.110 C 
ATOM     11  C   UNL     1      -5.461   6.370   3.629  0.00  0.00    +0.049 C 
ATOM     12  C   UNL     1      -6.585   6.916   4.542  0.00  0.00    +0.168 C 
ATOM     13  S   UNL     1      -7.698   5.463   4.726  0.00  0.00    -0.029 S 
ATOM     14  O   UNL     1      -7.732   5.077   6.093  0.00  0.00    -0.174 OA
ATOM     15  O   UNL     1      -8.916   5.724   4.042  0.00  0.00    -0.174 OA
ATOM     16  C   UNL     1      -6.731   4.216   3.776  0.00  0.00    +0.191 C 
ENDBRANCH   8  10
ENDBRANCH   1   6
BRANCH   1  17
ATOM     17  C   UNL     1      -1.140   2.284   0.043  0.00  0.00    +0.197 C 
BRANCH  17  18
ATOM     18  N   UNL     1       0.181   1.652   0.035  0.00  0.00    -0.217 N 
ATOM     19  C   UNL     1       0.389   0.327   0.183  0.00  0.00    +0.247 C 
ATOM     20  O   UNL     1      -0.450  -0.533   0.345  0.00  0.00    -0.273 OA
ATOM     21  C   UNL     1       1.887   0.141   0.103  0.00  0.00    +0.113 C 
ATOM     22  C   UNL     1       2.249  -0.749  -1.080  0.00  0.00    +0.035 C 
ATOM     23  C   UNL     1       3.771  -0.902  -1.160  0.00  0.00    +0.003 C 
ATOM     24  C   UNL     1       4.289  -1.517   0.141  0.00  0.00    +0.000 C 
ATOM     25  C   UNL     1       3.939  -0.601   1.315  0.00  0.00    +0.003 C 
ATOM     26  C   UNL     1       2.419  -0.447   1.405  0.00  0.00    +0.035 C 
ATOM     27  N   UNL     1       2.404   1.501  -0.098  0.00  0.00    -0.285 N 
ATOM     28  C   UNL     1       1.333   2.316  -0.124  0.00  0.00    +0.310 C 
ATOM     29  O   UNL     1       1.403   3.520  -0.276  0.00  0.00    -0.252 OA
ATOM     30  H   UNL     1       3.334   1.760  -0.194  0.00  0.00    +0.151 HD
ENDBRANCH  17  18
ENDBRANCH   1  17
TORSDOF 4
