REMARK  Name = ZINC19933283
REMARK  10 active torsions:
REMARK  status: ('A' for Active; 'I' for Inactive)
REMARK    1  A    between atoms: C_3  and  O_30
REMARK    2  A    between atoms: C_6  and  C_7
REMARK    3  A    between atoms: C_9  and  C_21
REMARK    4  A    between atoms: N_13  and  C_14
REMARK    5  A    between atoms: C_14  and  C_15
REMARK    6  A    between atoms: C_15  and  N_16
REMARK    7  A    between atoms: N_16  and  C_17
REMARK    8  A    between atoms: C_17  and  C_18
REMARK    9  A    between atoms: C_18  and  O_19
REMARK   10  A    between atoms: C_21  and  C_23
REMARK                            x       y       z     vdW  Elec       q    Type
REMARK                         _______ _______ _______ _____ _____    ______ ____
ROOT
ATOM      1  C   UNL     1       1.216  -1.582  -0.160  0.00  0.00    +0.145 C 
ATOM      2  C   UNL     1       1.348  -2.475  -1.371  0.00  0.00    +0.076 C 
ATOM      3  C   UNL     1       2.405  -3.289  -1.144  0.00  0.00    +0.249 C 
ATOM      4  C   UNL     1       2.987  -2.971   0.177  0.00  0.00    +0.288 C 
ATOM      5  O   UNL     1       3.948  -3.529   0.668  0.00  0.00    -0.266 OA
ATOM      6  N   UNL     1       2.293  -1.973   0.757  0.00  0.00    -0.285 N 
ATOM      7  O   UNL     1       2.859  -4.241  -1.992  0.00  0.00    -0.282 OA
ENDROOT
BRANCH   1  13
ATOM      8  C   UNL     1       0.264   0.676  -0.665  0.00  0.00    +0.009 A 
ATOM      9  C   UNL     1       0.407   2.000  -1.032  0.00  0.00    +0.046 A 
ATOM     10  C   UNL     1       1.669   2.512  -1.297  0.00  0.00    +0.117 A 
ATOM     11  C   UNL     1       2.784   1.693  -1.192  0.00  0.00    +0.046 A 
ATOM     12  C   UNL     1       2.635   0.370  -0.825  0.00  0.00    +0.009 A 
ATOM     13  C   UNL     1       1.376  -0.138  -0.561  0.00  0.00    -0.022 A 
BRANCH  10  14
ATOM     14  O   UNL     1       1.813   3.814  -1.659  0.00  0.00    -0.507 OA
ATOM     15  H   UNL     1       2.814   4.219  -1.868  0.00  0.00    +0.292 HD
ENDBRANCH  10  14
ENDBRANCH   1  13
BRANCH   2  16
ATOM     16  C   UNL     1       0.494  -2.463  -2.563  0.00  0.00    +0.195 C 
ATOM     17  O   UNL     1       0.964  -2.162  -3.645  0.00  0.00    -0.287 OA
BRANCH  16  18
ATOM     18  C   UNL     1      -0.936  -2.817  -2.451  0.00  0.00    +0.022 A 
ATOM     19  C   UNL     1      -1.450  -3.282  -1.238  0.00  0.00    +0.014 A 
ATOM     20  C   UNL     1      -2.786  -3.605  -1.138  0.00  0.00    +0.039 A 
ATOM     21  C   UNL     1      -3.617  -3.481  -2.242  0.00  0.00    +0.123 A 
ATOM     22  C   UNL     1      -3.111  -3.025  -3.450  0.00  0.00    +0.039 A 
ATOM     23  C   UNL     1      -1.778  -2.693  -3.560  0.00  0.00    +0.014 A 
ATOM     24  F   UNL     1      -4.925  -3.805  -2.140  0.00  0.00    -0.205 F 
ENDBRANCH  16  18
ENDBRANCH   2  16
BRANCH   6  25
ATOM     25  C   UNL     1       2.566  -1.381   2.069  0.00  0.00    +0.090 C 
BRANCH  25  26
ATOM     26  C   UNL     1       1.784  -2.141   3.143  0.00  0.00    -0.063 C 
BRANCH  26  27
ATOM     27  N   UNL     1       2.058  -1.547   4.459  0.00  0.00    +0.382 N 
ATOM     28  H   UNL     1       3.134  -1.612   4.674  0.00  0.00    -0.086 HD
ATOM     29  H   UNL     1       1.747  -0.492   4.457  0.00  0.00    -0.086 HD
BRANCH  27  30
ATOM     30  C   UNL     1       1.323  -2.252   5.518  0.00  0.00    -0.054 C 
BRANCH  30  31
ATOM     31  C   UNL     1       1.631  -1.607   6.870  0.00  0.00    +0.137 C 
BRANCH  31  32
ATOM     32  O   UNL     1       1.127  -0.270   6.886  0.00  0.00    -0.397 OA
ATOM     33  H   UNL     1       1.256   0.356   7.782  0.00  0.00    +0.209 HD
ENDBRANCH  31  32
ENDBRANCH  30  31
ENDBRANCH  27  30
ENDBRANCH  26  27
ENDBRANCH  25  26
ENDBRANCH   6  25
TORSDOF 10
