REMARK  Name = ZINC44995623
REMARK  5 active torsions:
REMARK  status: ('A' for Active; 'I' for Inactive)
REMARK    1  A    between atoms: C_1  and  C_2
REMARK    2  A    between atoms: C_4  and  C_7
REMARK    3  A    between atoms: C_7  and  N_8
REMARK    4  A    between atoms: N_8  and  C_9
REMARK    5  A    between atoms: C_12  and  N_16
REMARK                            x       y       z     vdW  Elec       q    Type
REMARK                         _______ _______ _______ _____ _____    ______ ____
ROOT
ATOM      1  C   UNL     1       1.690  -4.795  -2.746  0.00  0.00    +0.042 A 
ATOM      2  C   UNL     1       0.643  -5.532  -3.283  0.00  0.00    +0.026 A 
ATOM      3  C   UNL     1       0.910  -6.620  -4.091  0.00  0.00    +0.034 A 
ATOM      4  C   UNL     1       2.217  -6.976  -4.367  0.00  0.00    +0.127 A 
ATOM      5  C   UNL     1       3.263  -6.244  -3.834  0.00  0.00    +0.049 A 
ATOM      6  C   UNL     1       3.003  -5.151  -3.029  0.00  0.00    +0.041 A 
ATOM      7 BR   UNL     1       4.434  -4.146  -2.307  0.00  0.00    -0.048 Br
ENDROOT
BRANCH   4   8
ATOM      8  N   UNL     1       2.499  -8.143  -5.232  0.00  0.00    +0.056 N 
ATOM      9  O   UNL     1       1.586  -8.784  -5.699  0.00  0.00    -0.126 OA
ATOM     10  O   UNL     1       3.642  -8.455  -5.474  0.00  0.00    -0.126 OA
ENDBRANCH   4   8
BRANCH   1  11
ATOM     11  N   UNL     1       1.424  -3.694  -1.928  0.00  0.00    -0.336 N 
ATOM     12  H   UNL     1       2.156  -3.177  -1.557  0.00  0.00    +0.147 HD
BRANCH  11  13
ATOM     13  C   UNL     1       0.039  -3.320  -1.631  0.00  0.00    +0.178 C 
BRANCH  13  17
ATOM     14  C   UNL     1      -0.018   1.503   0.010  0.00  0.00    +0.069 C 
ATOM     15  C   UNL     1       0.002  -0.004   0.002  0.00  0.00    +0.081 A 
ATOM     16  C   UNL     1       0.008  -0.824  -1.141  0.00  0.00    +0.072 A 
ATOM     17  C   UNL     1       0.027  -2.108  -0.735  0.00  0.00    +0.154 A 
ATOM     18  O   UNL     1       0.034  -2.119   0.606  0.00  0.00    -0.358 OA
ATOM     19  N   UNL     1       0.023  -0.775   1.052  0.00  0.00    -0.083 NA
ENDBRANCH  13  17
ENDBRANCH  11  13
ENDBRANCH   1  11
TORSDOF 4
