REMARK  Name = ZINC41586222
REMARK  8 active torsions:
REMARK  status: ('A' for Active; 'I' for Inactive)
REMARK    1  A    between atoms: C_1  and  C_2
REMARK    2  A    between atoms: C_2  and  O_3
REMARK    3  A    between atoms: O_3  and  C_4
REMARK    4  A    between atoms: C_4  and  C_6
REMARK    5  A    between atoms: N_9  and  C_12
REMARK    6  A    between atoms: C_12  and  C_13
REMARK    7  A    between atoms: C_14  and  O_32
REMARK    8  A    between atoms: C_21  and  C_22
REMARK                            x       y       z     vdW  Elec       q    Type
REMARK                         _______ _______ _______ _____ _____    ______ ____
ROOT
ATOM      1  C   UNL     1       4.530  -6.111   4.402  0.00  0.00    +0.020 A 
ATOM      2  C   UNL     1       3.555  -6.936   4.940  0.00  0.00    +0.122 A 
ATOM      3  C   UNL     1       3.610  -8.314   4.749  0.00  0.00    +0.046 A 
ATOM      4  C   UNL     1       4.629  -8.867   4.026  0.00  0.00    +0.019 A 
ATOM      5  C   UNL     1       5.617  -8.047   3.478  0.00  0.00    +0.068 A 
ATOM      6  C   UNL     1       5.570  -6.656   3.660  0.00  0.00    +0.144 A 
ATOM      7  O   UNL     1       6.621  -6.079   3.037  0.00  0.00    -0.451 OA
ATOM      8  C   UNL     1       7.404  -6.995   2.420  0.00  0.00    +0.176 C 
ATOM      9  C   UNL     1       8.533  -6.737   1.712  0.00  0.00    +0.062 C 
ATOM     10  C   UNL     1       6.818  -8.320   2.668  0.00  0.00    +0.231 C 
ATOM     11  O   UNL     1       7.228  -9.401   2.281  0.00  0.00    -0.283 OA
ENDROOT
BRANCH   9  12
ATOM     12  C   UNL     1       9.282  -7.840   1.097  0.00  0.00    +0.032 A 
ATOM     13  C   UNL     1       9.624  -8.969   1.855  0.00  0.00    +0.132 A 
ATOM     14  C   UNL     1      10.329 -10.001   1.267  0.00  0.00    +0.039 A 
ATOM     15  C   UNL     1      10.697  -9.923  -0.065  0.00  0.00    +0.004 A 
ATOM     16  C   UNL     1      10.363  -8.812  -0.820  0.00  0.00    +0.021 A 
ATOM     17  C   UNL     1       9.654  -7.773  -0.252  0.00  0.00    +0.051 A 
ATOM     18 CL   UNL     1       9.231  -6.385  -1.204  0.00  0.00    -0.083 Cl
ATOM     19  F   UNL     1       9.266  -9.047   3.155  0.00  0.00    -0.205 F 
ENDBRANCH   9  12
BRANCH   2  20
ATOM     20  O   UNL     1       2.539  -6.396   5.660  0.00  0.00    -0.506 OA
ATOM     21  H   UNL     1       1.766  -6.156   5.131  0.00  0.00    +0.292 HD
ENDBRANCH   2  20
BRANCH   1  22
ATOM     22  C   UNL     1       4.458  -4.621   4.618  0.00  0.00    -0.036 C 
BRANCH  22  26
ATOM     23  C   UNL     1       1.516  -2.381   2.500  0.00  0.00    +0.094 C 
ATOM     24  C   UNL     1       2.969  -1.898   2.507  0.00  0.00    -0.004 C 
ATOM     25  C   UNL     1       3.711  -2.546   3.678  0.00  0.00    -0.078 C 
ATOM     26  N   UNL     1       3.679  -4.006   3.534  0.00  0.00    +0.383 N 
ATOM     27  C   UNL     1       2.293  -4.484   3.598  0.00  0.00    -0.078 C 
ATOM     28  C   UNL     1       1.497  -3.910   2.424  0.00  0.00    -0.004 C 
ATOM     29  H   UNL     1       4.082  -4.264   2.646  0.00  0.00    -0.081 HD
BRANCH  23  30
ATOM     30  C   UNL     1       0.801  -1.808   1.304  0.00  0.00    +0.310 C 
ATOM     31  O   UNL     1       0.324  -2.546   0.475  0.00  0.00    -0.251 OA
BRANCH  30  32
ATOM     32  O   UNL     1       0.693  -0.477   1.160  0.00  0.00    -0.465 OA
BRANCH  32  34
ATOM     33  C   UNL     1      -0.019   1.526   0.010  0.00  0.00    +0.048 C 
ATOM     34  C   UNL     1       0.002  -0.004   0.002  0.00  0.00    +0.229 C 
ENDBRANCH  32  34
ENDBRANCH  30  32
ENDBRANCH  23  30
ENDBRANCH  22  26
ENDBRANCH   1  22
TORSDOF 7
