REMARK  Name = ZINC34971958
REMARK  2 active torsions:
REMARK  status: ('A' for Active; 'I' for Inactive)
REMARK    1  A    between atoms: C_1  and  N_2
REMARK    2  A    between atoms: C_8  and  N_13
REMARK                            x       y       z     vdW  Elec       q    Type
REMARK                         _______ _______ _______ _____ _____    ______ ____
ROOT
ATOM      1  C   UNL     1       0.372   1.462   0.044  0.00  0.00    +0.142 C 
ATOM      2  N   UNL     1       0.280  -0.000   0.032  0.00  0.00    -0.237 N 
ATOM      3  C   UNL     1       0.097  -0.741  -1.076  0.00  0.00    +0.254 C 
ATOM      4  O   UNL     1      -0.018  -0.308  -2.206  0.00  0.00    -0.270 OA
ATOM      5  C   UNL     1       0.057  -2.162  -0.693  0.00  0.00    +0.050 A 
ATOM      6  C   UNL     1      -0.104  -3.350  -1.398  0.00  0.00    +0.016 A 
ATOM      7  C   UNL     1      -0.094  -4.555  -0.728  0.00  0.00    +0.028 A 
ATOM      8  C   UNL     1       0.078  -4.590   0.660  0.00  0.00    +0.067 A 
ATOM      9  C   UNL     1       0.241  -3.396   1.379  0.00  0.00    +0.041 A 
ATOM     10  C   UNL     1       0.231  -2.190   0.709  0.00  0.00    +0.051 A 
ATOM     11  C   UNL     1       0.375  -0.778   1.125  0.00  0.00    +0.254 C 
ATOM     12  O   UNL     1       0.547  -0.387   2.262  0.00  0.00    -0.270 OA
ENDROOT
BRANCH   8  13
ATOM     13  N   UNL     1       0.086  -5.785   1.314  0.00  0.00    -0.226 NA
ATOM     14  C   UNL     1      -0.714  -5.979   2.342  0.00  0.00    +0.154 C 
ATOM     15  N   UNL     1      -1.664  -5.042   2.717  0.00  0.00    -0.324 N 
ATOM     16  C   UNL     1      -1.714  -4.626   4.122  0.00  0.00    +0.104 C 
ATOM     17  C   UNL     1      -1.994  -5.820   5.030  0.00  0.00    +0.030 C 
ATOM     18  C   UNL     1      -0.805  -6.788   5.013  0.00  0.00    +0.079 C 
ATOM     19  S   UNL     1      -0.641  -7.455   3.321  0.00  0.00    -0.091 S 
ATOM     20  H   UNL     1      -2.280  -4.671   2.066  0.00  0.00    +0.148 HD
ENDBRANCH   8  13
TORSDOF 1
