REMARK  Name = ZINC06920117
REMARK  2 active torsions:
REMARK  status: ('A' for Active; 'I' for Inactive)
REMARK    1  A    between atoms: C_4  and  C_8
REMARK    2  A    between atoms: C_11  and  C_19
REMARK                            x       y       z     vdW  Elec       q    Type
REMARK                         _______ _______ _______ _____ _____    ______ ____
ROOT
ATOM      1  C   UNL     1       3.713  -0.710  -0.038  0.00  0.00    +0.147 C 
ATOM      2  C   UNL     1       3.793  -1.589  -1.291  0.00  0.00    +0.059 C 
ATOM      3  C   UNL     1       4.990  -2.541  -1.180  0.00  0.00    +0.107 C 
ATOM      4  N   UNL     1       4.780  -3.429  -0.020  0.00  0.00    -0.307 N 
ATOM      5  C   UNL     1       4.308  -2.825   1.137  0.00  0.00    +0.215 A 
ATOM      6  N   UNL     1       3.813  -1.561   1.147  0.00  0.00    -0.226 N 
ATOM      7  N   UNL     1       3.444  -1.287   2.465  0.00  0.00    -0.156 NA
ATOM      8  C   UNL     1       3.723  -2.357   3.166  0.00  0.00    +0.247 A 
ATOM      9  N   UNL     1       4.244  -3.292   2.355  0.00  0.00    -0.202 NA
ATOM     10  H   UNL     1       4.962  -4.380  -0.064  0.00  0.00    +0.149 HD
ENDROOT
BRANCH   1  14
ATOM     11  C   UNL     1      -0.017   1.378   0.010  0.00  0.00    +0.004 A 
ATOM     12  C   UNL     1       1.170   2.086   0.002  0.00  0.00    +0.039 A 
ATOM     13  C   UNL     1       2.379   1.411  -0.013  0.00  0.00    +0.130 A 
ATOM     14  C   UNL     1       2.398   0.026  -0.021  0.00  0.00    +0.031 A 
ATOM     15  C   UNL     1       1.209  -0.680  -0.013  0.00  0.00    +0.049 A 
ATOM     16  C   UNL     1       0.002  -0.004   0.002  0.00  0.00    +0.020 A 
ATOM     17 CL   UNL     1       1.232  -2.416  -0.022  0.00  0.00    -0.083 Cl
ATOM     18  F   UNL     1       3.539   2.103  -0.021  0.00  0.00    -0.205 F 
ENDBRANCH   1  14
BRANCH   3  19
ATOM     19  C   UNL     1       5.101  -3.363  -2.438  0.00  0.00    -0.009 A 
ATOM     20  C   UNL     1       6.020  -3.025  -3.420  0.00  0.00    +0.008 A 
ATOM     21  C   UNL     1       6.087  -3.810  -4.560  0.00  0.00    +0.020 A 
ATOM     22  C   UNL     1       5.241  -4.897  -4.680  0.00  0.00    +0.111 A 
ATOM     23  N   UNL     1       4.378  -5.189  -3.726  0.00  0.00    -0.263 NA
ATOM     24  C   UNL     1       4.292  -4.468  -2.625  0.00  0.00    +0.116 A 
ENDBRANCH   3  19
TORSDOF 2
