REMARK  Name = ZINC54532733
REMARK  2 active torsions:
REMARK  status: ('A' for Active; 'I' for Inactive)
REMARK    1  A    between atoms: C_1  and  C_2
REMARK    2  A    between atoms: C_10  and  C_19
REMARK                            x       y       z     vdW  Elec       q    Type
REMARK                         _______ _______ _______ _____ _____    ______ ____
ROOT
ATOM      1  C   UNL     1      -1.016  -0.517   2.880  0.00  0.00    +0.028 C 
ATOM      2  C   UNL     1      -0.607  -0.991   1.483  0.00  0.00    +0.072 C 
ATOM      3  C   UNL     1      -0.470  -2.516   1.478  0.00  0.00    +0.022 C 
ATOM      4  C   UNL     1       0.073  -2.971   0.121  0.00  0.00    +0.003 C 
ATOM      5  C   UNL     1       1.458  -2.360  -0.107  0.00  0.00    +0.019 C 
ATOM      6  C   UNL     1       1.342  -0.833  -0.119  0.00  0.00    +0.107 C 
ATOM      7  N   UNL     1       0.686  -0.395   1.121  0.00  0.00    -0.313 N 
ATOM      8  C   UNL     1       1.276   0.555   1.932  0.00  0.00    +0.114 A 
ATOM      9  C   UNL     1       1.042   1.922   1.696  0.00  0.00    +0.101 A 
ATOM     10  C   UNL     1       1.660   2.857   2.534  0.00  0.00    +0.023 A 
ATOM     11  C   UNL     1       2.473   2.401   3.564  0.00  0.00    -0.027 A 
ATOM     12  C   UNL     1       2.650   1.045   3.739  0.00  0.00    +0.021 A 
ATOM     13  N   UNL     1       2.053   0.177   2.931  0.00  0.00    -0.346 N 
ATOM     14  C   UNL     1       3.504   0.482   4.847  0.00  0.00    +0.053 C 
ATOM     15  C   UNL     1       4.442   1.552   5.400  0.00  0.00    +0.006 C 
ATOM     16  C   UNL     1       3.611   2.793   5.747  0.00  0.00    +0.005 C 
ATOM     17  C   UNL     1       3.130   3.430   4.445  0.00  0.00    +0.037 C 
ATOM     18  H   UNL     1       2.197  -0.771   3.077  0.00  0.00    +0.167 HD
ENDROOT
BRANCH   9  19
ATOM     19  C   UNL     1       0.171   2.358   0.595  0.00  0.00    +0.390 C 
ATOM     20  O   UNL     1       0.059   3.550   0.339  0.00  0.00    -0.240 OA
ATOM     21  O   UNL     1      -0.442   1.530  -0.065  0.00  0.00    -0.240 OA
ENDBRANCH   9  19
TORSDOF 1
