REMARK  Name = ZINC07674891
REMARK  5 active torsions:
REMARK  status: ('A' for Active; 'I' for Inactive)
REMARK    1  A    between atoms: C_1  and  C_2
REMARK    2  A    between atoms: C_3  and  C_14
REMARK    3  A    between atoms: N_5  and  C_7
REMARK    4  A    between atoms: N_15  and  N_16
REMARK    5  A    between atoms: C_18  and  C_22
REMARK                            x       y       z     vdW  Elec       q    Type
REMARK                         _______ _______ _______ _____ _____    ______ ____
ROOT
ATOM      1  C   UNL     1      -0.006  -0.371  -2.549  0.00  0.00    +0.146 C 
ATOM      2  N   UNL     1       0.002  -1.240  -3.513  0.00  0.00    -0.172 NA
ENDROOT
BRANCH   2   3
ATOM      3  N   UNL     1      -0.011  -0.806  -4.846  0.00  0.00    -0.209 N 
ATOM      4  C   UNL     1      -0.026   0.498  -5.278  0.00  0.00    +0.142 A 
ATOM      5  C   UNL     1      -0.035   0.463  -6.635  0.00  0.00    +0.067 A 
ATOM      6  N   UNL     1      -0.025  -0.838  -7.020  0.00  0.00    -0.326 N 
ATOM      7  C   UNL     1      -0.005  -1.602  -5.954  0.00  0.00    +0.192 A 
ATOM      8  N   UNL     1       0.015  -2.986  -5.953  0.00  0.00    -0.329 N 
ATOM      9  H   UNL     1       0.027  -3.471  -5.113  0.00  0.00    +0.145 HD
ATOM     10  H   UNL     1       0.018  -3.472  -6.793  0.00  0.00    +0.145 HD
ATOM     11  H   UNL     1      -0.029  -1.153  -7.937  0.00  0.00    +0.169 HD
BRANCH   5  12
ATOM     12  C   UNL     1      -0.052   1.639  -7.537  0.00  0.00    -0.000 A 
ATOM     13  C   UNL     1      -0.055   2.929  -7.006  0.00  0.00    +0.010 A 
ATOM     14  C   UNL     1      -0.071   4.020  -7.851  0.00  0.00    +0.001 A 
ATOM     15  C   UNL     1      -0.084   3.836  -9.222  0.00  0.00    +0.000 A 
ATOM     16  C   UNL     1      -0.081   2.559  -9.755  0.00  0.00    +0.001 A 
ATOM     17  C   UNL     1      -0.060   1.461  -8.920  0.00  0.00    +0.010 A 
ENDBRANCH   5  12
ENDBRANCH   2   3
BRANCH   1  20
ATOM     18  C   UNL     1      -0.018   1.503   0.010  0.00  0.00    +0.068 C 
ATOM     19  C   UNL     1       0.002  -0.004   0.002  0.00  0.00    +0.070 A 
ATOM     20  C   UNL     1       0.008  -0.827  -1.147  0.00  0.00    +0.054 A 
ATOM     21  C   UNL     1       0.028  -2.137  -0.711  0.00  0.00    +0.142 A 
ATOM     22  N   UNL     1       0.034  -2.112   0.639  0.00  0.00    -0.221 N 
ATOM     23  N   UNL     1       0.023  -0.775   1.055  0.00  0.00    -0.170 NA
ATOM     24 CL   UNL     1       0.043  -3.554  -1.714  0.00  0.00    -0.061 Cl
BRANCH  22  25
ATOM     25  C   UNL     1       0.054  -3.232   1.480  0.00  0.00    +0.067 A 
ATOM     26  C   UNL     1      -0.616  -4.391   1.111  0.00  0.00    +0.028 A 
ATOM     27  C   UNL     1      -0.595  -5.494   1.941  0.00  0.00    +0.002 A 
ATOM     28  C   UNL     1       0.093  -5.446   3.140  0.00  0.00    +0.000 A 
ATOM     29  C   UNL     1       0.762  -4.293   3.510  0.00  0.00    +0.002 A 
ATOM     30  C   UNL     1       0.748  -3.188   2.681  0.00  0.00    +0.028 A 
ENDBRANCH  22  25
ENDBRANCH   1  20
TORSDOF 4
