REMARK  Name = ZINC39939356
REMARK  6 active torsions:
REMARK  status: ('A' for Active; 'I' for Inactive)
REMARK    1  A    between atoms: C_1  and  C_2
REMARK    2  A    between atoms: C_5  and  C_8
REMARK    3  A    between atoms: C_8  and  N_9
REMARK    4  A    between atoms: N_12  and  C_15
REMARK    5  A    between atoms: C_15  and  C_16
REMARK    6  A    between atoms: C_21  and  C_26
REMARK                            x       y       z     vdW  Elec       q    Type
REMARK                         _______ _______ _______ _____ _____    ______ ____
ROOT
ATOM      1  C   UNL     1      -2.186  -7.674   5.545  0.00  0.00    +0.138 C 
ATOM      2  N   UNL     1      -3.312  -7.630   4.873  0.00  0.00    -0.160 NA
ATOM      3  C   UNL     1      -4.245  -8.582   4.965  0.00  0.00    +0.272 C 
ATOM      4  O   UNL     1      -5.282  -8.510   4.324  0.00  0.00    -0.268 OA
ATOM      5  C   UNL     1      -3.982  -9.735   5.873  0.00  0.00    +0.075 C 
ATOM      6  C   UNL     1      -4.783 -10.821   6.129  0.00  0.00    -0.015 C 
ATOM      7  C   UNL     1      -4.258 -11.850   7.104  0.00  0.00    +0.112 C 
ATOM      8  S   UNL     1      -2.629 -11.137   7.567  0.00  0.00    -0.100 S 
ATOM      9  C   UNL     1      -2.688  -9.670   6.570  0.00  0.00    +0.112 C 
ATOM     10  N   UNL     1      -1.871  -8.661   6.367  0.00  0.00    -0.226 NA
ENDROOT
BRANCH   6  11
ATOM     11  C   UNL     1      -6.087 -10.976   5.486  0.00  0.00    -0.020 A 
ATOM     12  C   UNL     1      -7.118 -10.060   5.750  0.00  0.00    +0.009 A 
ATOM     13  C   UNL     1      -8.342 -10.213   5.140  0.00  0.00    +0.020 A 
ATOM     14  C   UNL     1      -8.559 -11.268   4.266  0.00  0.00    +0.041 A 
ATOM     15  C   UNL     1      -7.547 -12.177   3.998  0.00  0.00    +0.020 A 
ATOM     16  C   UNL     1      -6.314 -12.037   4.595  0.00  0.00    +0.009 A 
ATOM     17 CL   UNL     1     -10.107 -11.451   3.503  0.00  0.00    -0.084 Cl
ENDBRANCH   6  11
BRANCH   1  18
ATOM     18  C   UNL     1      -1.201  -6.548   5.367  0.00  0.00    +0.158 C 
BRANCH  18  22
ATOM     19  N   UNL     1      -1.685  -3.896   2.115  0.00  0.00    -0.294 NA
ATOM     20  C   UNL     1      -1.571  -3.320   3.462  0.00  0.00    +0.100 C 
ATOM     21  C   UNL     1      -0.928  -4.345   4.399  0.00  0.00    +0.100 C 
ATOM     22  N   UNL     1      -1.745  -5.567   4.419  0.00  0.00    -0.293 NA
ATOM     23  C   UNL     1      -1.859  -6.143   3.072  0.00  0.00    +0.100 C 
ATOM     24  C   UNL     1      -2.502  -5.118   2.135  0.00  0.00    +0.100 C 
BRANCH  19  25
ATOM     25  C   UNL     1      -2.229  -2.915   1.167  0.00  0.00    +0.138 C 
BRANCH  25  29
ATOM     26  C   UNL     1      -0.019   1.526   0.010  0.00  0.00    +0.055 C 
ATOM     27  C   UNL     1       0.002  -0.004   0.002  0.00  0.00    +0.207 C 
ATOM     28  C   UNL     1      -1.432  -0.579   0.093  0.00  0.00    +0.102 C 
ATOM     29  C   UNL     1      -1.244  -1.789   0.989  0.00  0.00    +0.075 C 
ATOM     30  N   UNL     1      -0.110  -1.692   1.566  0.00  0.00    -0.092 NA
ATOM     31  O   UNL     1       0.598  -0.520   1.210  0.00  0.00    -0.390 OA
ENDBRANCH  25  29
ENDBRANCH  19  25
ENDBRANCH  18  22
ENDBRANCH   1  18
TORSDOF 5
