REMARK  Name = ZINC65712642
REMARK  6 active torsions:
REMARK  status: ('A' for Active; 'I' for Inactive)
REMARK    1  A    between atoms: C_1  and  C_2
REMARK    2  A    between atoms: C_3  and  C_27
REMARK    3  A    between atoms: C_9  and  C_12
REMARK    4  A    between atoms: C_12  and  N_13
REMARK    5  A    between atoms: C_14  and  C_16
REMARK    6  A    between atoms: N_18  and  C_19
REMARK                            x       y       z     vdW  Elec       q    Type
REMARK                         _______ _______ _______ _____ _____    ______ ____
ROOT
ATOM      1  N   UNL     1      -1.311  -1.446   5.397  0.00  0.00    -0.303 N 
ATOM      2  C   UNL     1      -1.548  -1.232   6.706  0.00  0.00    +0.300 C 
ATOM      3  O   UNL     1      -0.620  -1.097   7.476  0.00  0.00    -0.265 OA
ATOM      4  H   UNL     1      -2.053  -1.553   4.781  0.00  0.00    +0.149 HD
ENDROOT
BRANCH   2   5
ATOM      5  C   UNL     1      -2.952  -1.160   7.209  0.00  0.00    +0.303 C 
ATOM      6  O   UNL     1      -3.880  -1.294   6.439  0.00  0.00    -0.265 OA
ATOM      7  N   UNL     1      -3.189  -0.946   8.519  0.00  0.00    -0.276 N 
ATOM      8  H   UNL     1      -2.449  -0.904   9.145  0.00  0.00    +0.155 HD
BRANCH   7   9
ATOM      9  C   UNL     1      -4.500  -0.785   8.975  0.00  0.00    +0.054 A 
ATOM     10  C   UNL     1      -5.535  -1.496   8.381  0.00  0.00    +0.044 A 
ATOM     11  C   UNL     1      -6.831  -1.334   8.834  0.00  0.00    +0.043 A 
ATOM     12  C   UNL     1      -7.097  -0.465   9.879  0.00  0.00    +0.021 A 
ATOM     13  C   UNL     1      -6.069   0.244  10.471  0.00  0.00    +0.023 A 
ATOM     14  C   UNL     1      -4.770   0.082  10.027  0.00  0.00    +0.062 A 
ATOM     15 CL   UNL     1      -3.479   0.967  10.777  0.00  0.00    -0.082 Cl
ATOM     16 CL   UNL     1      -8.126  -2.222   8.093  0.00  0.00    -0.083 Cl
ENDBRANCH   7   9
ENDBRANCH   2   5
BRANCH   1  17
ATOM     17  C   UNL     1       0.067  -1.516   4.903  0.00  0.00    +0.140 C 
BRANCH  17  26
ATOM     18  C   UNL     1       0.005   1.453   0.005  0.00  0.00    +0.046 C 
ATOM     19  C   UNL     1       0.015  -0.053   0.002  0.00  0.00    -0.022 A 
ATOM     20  C   UNL     1       0.017  -0.850  -1.079  0.00  0.00    +0.017 A 
ATOM     21  N   UNL     1       0.027  -2.162  -0.692  0.00  0.00    -0.358 N 
ATOM     22  H   UNL     1       0.030  -2.921  -1.296  0.00  0.00    +0.166 HD
ATOM     23  C   UNL     1       0.032  -2.245   0.682  0.00  0.00    +0.047 A 
ATOM     24  C   UNL     1       0.031  -0.927   1.177  0.00  0.00    +0.003 A 
ATOM     25  C   UNL     1       0.041  -0.701   2.554  0.00  0.00    +0.015 A 
ATOM     26  C   UNL     1       0.056  -1.762   3.416  0.00  0.00    -0.030 A 
ATOM     27  C   UNL     1       0.060  -3.062   2.933  0.00  0.00    +0.007 A 
ATOM     28  C   UNL     1       0.041  -3.309   1.578  0.00  0.00    +0.026 A 
ATOM     29  C   UNL     1       0.009  -0.369  -2.507  0.00  0.00    +0.063 C 
ENDBRANCH  17  26
ENDBRANCH   1  17
TORSDOF 4
