REMARK  Name = ZINC35111299
REMARK  6 active torsions:
REMARK  status: ('A' for Active; 'I' for Inactive)
REMARK    1  A    between atoms: C_1  and  C_2
REMARK    2  A    between atoms: C_5  and  C_8
REMARK    3  A    between atoms: C_11  and  C_15
REMARK    4  A    between atoms: C_15  and  O_17
REMARK    5  A    between atoms: O_17  and  C_18
REMARK    6  A    between atoms: C_19  and  C_21
REMARK                            x       y       z     vdW  Elec       q    Type
REMARK                         _______ _______ _______ _____ _____    ______ ____
ROOT
ATOM      1  C   UNL     1      -0.310  -4.040   4.757  0.00  0.00    +0.165 C 
ATOM      2  N   UNL     1       0.393  -5.291   4.414  0.00  0.00    -0.271 N 
ATOM      3  C   UNL     1       0.228  -5.765   3.043  0.00  0.00    +0.196 C 
ATOM      4  C   UNL     1      -1.172  -5.372   2.486  0.00  0.00    +0.105 C 
ATOM      5  S   UNL     1      -1.305  -3.687   3.246  0.00  0.00    -0.131 S 
ATOM      6  C   UNL     1       1.144  -5.957   5.313  0.00  0.00    +0.220 C 
ATOM      7  O   UNL     1       1.915  -6.817   4.942  0.00  0.00    -0.275 OA
ENDROOT
BRANCH   1  12
ATOM      8  C   UNL     1       3.467   0.216   5.759  0.00  0.00    +0.044 C 
ATOM      9  C   UNL     1       2.482  -0.894   5.497  0.00  0.00    -0.050 A 
ATOM     10  C   UNL     1       1.179  -0.782   5.946  0.00  0.00    +0.004 A 
ATOM     11  C   UNL     1       0.276  -1.800   5.706  0.00  0.00    +0.006 A 
ATOM     12  C   UNL     1       0.675  -2.930   5.017  0.00  0.00    -0.017 A 
ATOM     13  C   UNL     1       1.977  -3.042   4.568  0.00  0.00    +0.006 A 
ATOM     14  C   UNL     1       2.880  -2.022   4.804  0.00  0.00    +0.004 A 
ENDBRANCH   1  12
BRANCH   6  15
ATOM     15  C   UNL     1       1.027  -5.633   6.780  0.00  0.00    +0.075 C 
ATOM     16  C   UNL     1       1.971  -4.479   7.125  0.00  0.00    +0.013 C 
ATOM     17  C   UNL     1       1.851  -4.151   8.615  0.00  0.00    +0.001 C 
ATOM     18  C   UNL     1       2.228  -5.382   9.441  0.00  0.00    +0.000 C 
ATOM     19  C   UNL     1       1.284  -6.536   9.096  0.00  0.00    +0.001 C 
ATOM     20  C   UNL     1       1.403  -6.865   7.606  0.00  0.00    +0.013 C 
ENDBRANCH   6  15
BRANCH   3  21
ATOM     21  C   UNL     1       0.367  -7.265   3.016  0.00  0.00    +0.328 C 
ATOM     22  O   UNL     1      -0.608  -7.960   2.854  0.00  0.00    -0.249 OA
BRANCH  21  23
ATOM     23  O   UNL     1       1.574  -7.830   3.173  0.00  0.00    -0.467 OA
ATOM     24  C   UNL     1       1.616  -9.255   3.271  0.00  0.00    +0.280 C 
ENDBRANCH  21  23
ENDBRANCH   3  21
TORSDOF 4
