REMARK  Name = ZINC15797015
REMARK  6 active torsions:
REMARK  status: ('A' for Active; 'I' for Inactive)
REMARK    1  A    between atoms: C_1  and  C_2
REMARK    2  A    between atoms: C_8  and  N_10
REMARK    3  A    between atoms: C_11  and  C_13
REMARK    4  A    between atoms: N_16  and  C_19
REMARK    5  A    between atoms: C_22  and  C_28
REMARK    6  A    between atoms: C_24  and  N_25
REMARK                            x       y       z     vdW  Elec       q    Type
REMARK                         _______ _______ _______ _____ _____    ______ ____
ROOT
ATOM      1  C   UNL     1      -1.269   1.458   3.578  0.00  0.00    +0.078 C 
ATOM      2  C   UNL     1      -0.671   2.805   3.992  0.00  0.00    +0.031 C 
ATOM      3  C   UNL     1      -1.346   3.284   5.279  0.00  0.00    +0.106 C 
ATOM      4  N   UNL     1      -1.141   2.290   6.340  0.00  0.00    -0.328 N 
ATOM      5  C   UNL     1      -1.749   1.001   5.986  0.00  0.00    +0.106 C 
ATOM      6  C   UNL     1      -1.085   0.454   4.720  0.00  0.00    +0.031 C 
ENDROOT
BRANCH   4   7
ATOM      7  C   UNL     1      -1.631   2.755   7.563  0.00  0.00    +0.060 A 
ATOM      8  C   UNL     1      -2.974   3.085   7.695  0.00  0.00    +0.026 A 
ATOM      9  C   UNL     1      -3.454   3.545   8.905  0.00  0.00    +0.014 A 
ATOM     10  C   UNL     1      -2.601   3.676   9.985  0.00  0.00    +0.057 A 
ATOM     11  C   UNL     1      -1.264   3.348   9.858  0.00  0.00    +0.047 A 
ATOM     12  C   UNL     1      -0.777   2.882   8.652  0.00  0.00    +0.148 A 
BRANCH  10  13
ATOM     13  C   UNL     1      -3.129   4.177  11.305  0.00  0.00    +0.417 C 
ATOM     14  F   UNL     1      -4.498   4.440  11.189  0.00  0.00    -0.166 F 
ATOM     15  F   UNL     1      -2.923   3.204  12.289  0.00  0.00    -0.166 F 
ATOM     16  F   UNL     1      -2.457   5.351  11.661  0.00  0.00    -0.166 F 
ENDBRANCH  10  13
BRANCH  12  17
ATOM     17  N   UNL     1       0.653   2.525   8.518  0.00  0.00    +0.058 N 
ATOM     18  O   UNL     1       1.380   2.548   9.494  0.00  0.00    -0.126 OA
ATOM     19  O   UNL     1       1.102   2.209   7.431  0.00  0.00    -0.126 OA
ENDBRANCH  12  17
ENDBRANCH   4   7
BRANCH   1  21
ATOM     20  N   UNL     1      -0.594   1.676   1.209  0.00  0.00    -0.312 N 
ATOM     21  C   UNL     1      -0.567   0.952   2.345  0.00  0.00    +0.216 C 
ATOM     22  O   UNL     1       0.024  -0.107   2.374  0.00  0.00    -0.276 OA
ATOM     23  H   UNL     1      -1.067   2.523   1.185  0.00  0.00    +0.149 HD
BRANCH  20  30
ATOM     24  C   UNL     1      -2.040   1.383  -1.284  0.00  0.00    +0.009 C 
ATOM     25  C   UNL     1      -0.565   1.790  -1.234  0.00  0.00    +0.006 C 
ATOM     26  C   UNL     1      -0.459   3.315  -1.176  0.00  0.00    +0.005 C 
ATOM     27  C   UNL     1       1.016   3.721  -1.126  0.00  0.00    +0.000 C 
ATOM     28  C   UNL     1       1.670   3.116   0.118  0.00  0.00    +0.002 C 
ATOM     29  C   UNL     1       1.563   1.591   0.059  0.00  0.00    +0.022 C 
ATOM     30  C   UNL     1       0.089   1.185   0.009  0.00  0.00    +0.076 C 
ENDBRANCH  20  30
ENDBRANCH   1  21
TORSDOF 5
