REMARK  Name = ZINC04601353
REMARK  2 active torsions:
REMARK  status: ('A' for Active; 'I' for Inactive)
REMARK    1  A    between atoms: C_6  and  C_7
REMARK    2  A    between atoms: C_18  and  N_23
REMARK                            x       y       z     vdW  Elec       q    Type
REMARK                         _______ _______ _______ _____ _____    ______ ____
ROOT
ATOM      1  C   UNL     1       1.673   4.332   0.348  0.00  0.00    +0.105 C 
ATOM      2  C   UNL     1       0.521   3.413   0.713  0.00  0.00    +0.029 C 
ATOM      3  C   UNL     1      -0.841   3.709   0.071  0.00  0.00    +0.033 C 
ATOM      4  C   UNL     1      -1.466   2.314   0.009  0.00  0.00    -0.030 C 
ATOM      5  C   UNL     1      -0.512   1.391  -0.022  0.00  0.00    -0.023 C 
ATOM      6  C   UNL     1       0.808   2.073  -0.028  0.00  0.00    +0.049 C 
ATOM      7  C   UNL     1       2.008   1.462   0.583  0.00  0.00    -0.017 A 
ATOM      8  C   UNL     1       2.158   0.099   0.719  0.00  0.00    +0.038 A 
ATOM      9  C   UNL     1       3.306  -0.424   1.284  0.00  0.00    +0.127 A 
ATOM     10  C   UNL     1       4.312   0.423   1.714  0.00  0.00    +0.034 A 
ATOM     11  C   UNL     1       4.169   1.789   1.587  0.00  0.00    +0.025 A 
ATOM     12  C   UNL     1       3.016   2.325   1.028  0.00  0.00    +0.032 A 
ATOM     13  N   UNL     1       2.879   3.716   0.942  0.00  0.00    -0.336 N 
ATOM     14  H   UNL     1       3.588   4.286   1.278  0.00  0.00    +0.147 HD
ENDROOT
BRANCH   1  20
ATOM     15  C   UNL     1       2.643   3.532  -1.816  0.00  0.00    +0.008 A 
ATOM     16  C   UNL     1       2.770   3.605  -3.191  0.00  0.00    +0.038 A 
ATOM     17  C   UNL     1       2.078   4.573  -3.899  0.00  0.00    +0.123 A 
ATOM     18  C   UNL     1       1.254   5.462  -3.230  0.00  0.00    +0.038 A 
ATOM     19  C   UNL     1       1.123   5.383  -1.856  0.00  0.00    +0.008 A 
ATOM     20  C   UNL     1       1.815   4.417  -1.150  0.00  0.00    -0.027 A 
ATOM     21  F   UNL     1       2.207   4.649  -5.242  0.00  0.00    -0.205 F 
ENDBRANCH   1  20
BRANCH   9  22
ATOM     22  N   UNL     1       3.459  -1.889   1.428  0.00  0.00    +0.056 N 
ATOM     23  O   UNL     1       2.574  -2.634   1.049  0.00  0.00    -0.126 OA
ATOM     24  O   UNL     1       4.471  -2.349   1.925  0.00  0.00    -0.126 OA
ENDBRANCH   9  22
TORSDOF 2
