REMARK  Name = ZINC67379246
REMARK  5 active torsions:
REMARK  status: ('A' for Active; 'I' for Inactive)
REMARK    1  A    between atoms: C_3  and  N_10
REMARK    2  A    between atoms: C_5  and  N_7
REMARK    3  A    between atoms: C_13  and  N_17
REMARK    4  A    between atoms: C_20  and  C_23
REMARK    5  A    between atoms: C_25  and  C_29
REMARK                            x       y       z     vdW  Elec       q    Type
REMARK                         _______ _______ _______ _____ _____    ______ ____
ROOT
ATOM      1  N   UNL     1       6.890   2.365   1.056  0.00  0.00    +0.387 N 
ATOM      2  C   UNL     1       7.591   1.115   0.739  0.00  0.00    -0.077 C 
ATOM      3  C   UNL     1       8.596   0.794   1.847  0.00  0.00    -0.007 C 
ATOM      4  C   UNL     1       9.610   1.937   1.957  0.00  0.00    +0.055 C 
ATOM      5  C   UNL     1       8.861   3.248   2.214  0.00  0.00    -0.007 C 
ATOM      6  C   UNL     1       7.846   3.478   1.092  0.00  0.00    -0.077 C 
ATOM      7  H   UNL     1       6.443   2.278   1.957  0.00  0.00    -0.081 HD
ENDROOT
BRANCH   1  11
ATOM      8  N   UNL     1       3.584   2.123  -0.021  0.00  0.00    -0.273 N 
ATOM      9  C   UNL     1       3.678   3.585  -0.115  0.00  0.00    +0.112 C 
ATOM     10  C   UNL     1       5.111   3.936   0.346  0.00  0.00    +0.013 C 
ATOM     11  C   UNL     1       5.872   2.628   0.030  0.00  0.00    +0.021 C 
ATOM     12  C   UNL     1       4.801   1.560   0.061  0.00  0.00    +0.206 C 
ATOM     13  O   UNL     1       5.011   0.368   0.146  0.00  0.00    -0.277 OA
BRANCH   8  16
ATOM     14  C   UNL     1       1.207  -0.682  -0.026  0.00  0.00    +0.004 A 
ATOM     15  C   UNL     1       2.396   0.021  -0.035  0.00  0.00    +0.023 A 
ATOM     16  C   UNL     1       2.381   1.409  -0.013  0.00  0.00    +0.038 A 
ATOM     17  C   UNL     1       1.169   2.087   0.017  0.00  0.00    +0.056 A 
ATOM     18  C   UNL     1      -0.017   1.379   0.025  0.00  0.00    +0.128 A 
ATOM     19  C   UNL     1       0.002  -0.004   0.004  0.00  0.00    +0.033 A 
BRANCH  18  20
ATOM     20  N   UNL     1      -1.308   2.100   0.057  0.00  0.00    +0.056 N 
ATOM     21  O   UNL     1      -1.325   3.309   0.076  0.00  0.00    -0.126 OA
ATOM     22  O   UNL     1      -2.347   1.481   0.065  0.00  0.00    -0.126 OA
ENDBRANCH  18  20
ENDBRANCH   8  16
ENDBRANCH   1  11
BRANCH   4  23
ATOM     23  C   UNL     1      10.555   1.664   3.098  0.00  0.00    +0.154 A 
ATOM     24  N   UNL     1      11.878   1.539   2.995  0.00  0.00    -0.216 NA
ATOM     25  C   UNL     1      12.395   1.306   4.174  0.00  0.00    +0.128 A 
ATOM     26  N   UNL     1      11.394   1.278   5.070  0.00  0.00    -0.262 N 
ATOM     27  H   UNL     1      11.473   1.126   6.025  0.00  0.00    +0.190 HD
ATOM     28  N   UNL     1      10.212   1.518   4.351  0.00  0.00    -0.157 NA
BRANCH  25  29
ATOM     29  C   UNL     1      13.858   1.105   4.474  0.00  0.00    +0.056 C 
ATOM     30  C   UNL     1      14.221   0.133   5.599  0.00  0.00    +0.012 C 
ATOM     31  C   UNL     1      14.386   1.639   5.807  0.00  0.00    +0.012 C 
ENDBRANCH  25  29
ENDBRANCH   4  23
TORSDOF 5
