REMARK  Name = ZINC35645461
REMARK  10 active torsions:
REMARK  status: ('A' for Active; 'I' for Inactive)
REMARK    1  A    between atoms: C_1  and  C_2
REMARK    2  A    between atoms: C_2  and  O_3
REMARK    3  A    between atoms: O_3  and  C_4
REMARK    4  A    between atoms: C_4  and  C_6
REMARK    5  A    between atoms: C_7  and  C_22
REMARK    6  A    between atoms: N_8  and  C_21
REMARK    7  A    between atoms: C_12  and  C_14
REMARK    8  A    between atoms: C_22  and  N_23
REMARK    9  A    between atoms: N_27  and  S_30
REMARK   10  A    between atoms: S_30  and  C_33
REMARK                            x       y       z     vdW  Elec       q    Type
REMARK                         _______ _______ _______ _____ _____    ______ ____
ROOT
ATOM      1  C   UNL     1       1.261  -3.883   3.760  0.00  0.00    +0.080 C 
ATOM      2  C   UNL     1       1.743  -3.723   2.509  0.00  0.00    +0.041 C 
ATOM      3  N   UNL     1       2.635  -2.731   2.218  0.00  0.00    -0.260 N 
ATOM      4  C   UNL     1       3.095  -1.858   3.123  0.00  0.00    +0.307 C 
ATOM      5  O   UNL     1       3.889  -1.008   2.770  0.00  0.00    -0.252 OA
ATOM      6  N   UNL     1       2.707  -1.891   4.413  0.00  0.00    -0.288 N 
ATOM      7  C   UNL     1       1.740  -2.921   4.828  0.00  0.00    +0.146 C 
ATOM      8  C   UNL     1       3.116  -2.615   0.839  0.00  0.00    +0.139 C 
ATOM      9  H   UNL     1       3.053  -1.249   5.053  0.00  0.00    +0.151 HD
ENDROOT
BRANCH   7  10
ATOM     10  C   UNL     1       2.374  -3.730   5.931  0.00  0.00    +0.013 A 
ATOM     11  C   UNL     1       3.734  -3.976   5.913  0.00  0.00    +0.008 A 
ATOM     12  C   UNL     1       4.316  -4.717   6.924  0.00  0.00    +0.001 A 
ATOM     13  C   UNL     1       3.539  -5.213   7.954  0.00  0.00    +0.003 A 
ATOM     14  C   UNL     1       2.179  -4.968   7.974  0.00  0.00    +0.039 A 
ATOM     15  C   UNL     1       1.596  -4.221   6.965  0.00  0.00    +0.129 A 
ATOM     16  F   UNL     1       0.267  -3.977   6.986  0.00  0.00    -0.205 F 
ENDBRANCH   7  10
BRANCH   1  17
ATOM     17  C   UNL     1       0.336  -4.910   4.062  0.00  0.00    +0.339 C 
ATOM     18  O   UNL     1      -0.848  -4.651   4.169  0.00  0.00    -0.245 OA
BRANCH  17  19
ATOM     19  O   UNL     1       0.767  -6.178   4.231  0.00  0.00    -0.462 OA
BRANCH  19  21
ATOM     20  C   UNL     1       0.451  -8.529   4.690  0.00  0.00    +0.048 C 
ATOM     21  C   UNL     1      -0.222  -7.164   4.534  0.00  0.00    +0.229 C 
ENDBRANCH  19  21
ENDBRANCH  17  19
ENDBRANCH   1  17
BRANCH   2  22
ATOM     22  C   UNL     1       1.288  -4.655   1.415  0.00  0.00    +0.136 C 
BRANCH  22  23
ATOM     23  N   UNL     1       2.434  -5.435   0.929  0.00  0.00    -0.296 NA
ATOM     24  C   UNL     1       2.779  -6.480   1.859  0.00  0.00    +0.086 C 
ATOM     25  C   UNL     1       4.318  -6.598   1.986  0.00  0.00    +0.032 C 
ATOM     26  C   UNL     1       4.975  -6.387   0.599  0.00  0.00    +0.111 C 
ATOM     27  N   UNL     1       4.316  -7.008  -0.516  0.00  0.00    -0.175 NA
ATOM     28  C   UNL     1       3.254  -6.241  -1.249  0.00  0.00    +0.125 C 
ATOM     29  C   UNL     1       2.116  -6.104  -0.332  0.00  0.00    +0.102 C 
BRANCH  27  30
ATOM     30  S   UNL     1       4.721  -8.544  -0.984  0.00  0.00    +0.061 S 
ATOM     31  O   UNL     1       4.360  -8.660  -2.353  0.00  0.00    -0.153 OA
ATOM     32  O   UNL     1       6.046  -8.773  -0.524  0.00  0.00    -0.153 OA
BRANCH  30  33
ATOM     33  C   UNL     1       3.680  -9.652  -0.093  0.00  0.00    +0.105 A 
ATOM     34  C   UNL     1       4.080 -10.136   1.139  0.00  0.00    +0.028 A 
ATOM     35  C   UNL     1       3.263 -11.005   1.838  0.00  0.00    +0.002 A 
ATOM     36  C   UNL     1       2.047 -11.389   1.306  0.00  0.00    +0.000 A 
ATOM     37  C   UNL     1       1.647 -10.904   0.075  0.00  0.00    +0.002 A 
ATOM     38  C   UNL     1       2.461 -10.032  -0.622  0.00  0.00    +0.028 A 
ENDBRANCH  30  33
ENDBRANCH  27  30
ENDBRANCH  22  23
ENDBRANCH   2  22
TORSDOF 8
