REMARK  Name = ZINC43424290
REMARK  3 active torsions:
REMARK  status: ('A' for Active; 'I' for Inactive)
REMARK    1  A    between atoms: C_2  and  N_23
REMARK    2  A    between atoms: C_6  and  S_7
REMARK    3  A    between atoms: S_7  and  N_10
REMARK                            x       y       z     vdW  Elec       q    Type
REMARK                         _______ _______ _______ _____ _____    ______ ____
ROOT
ATOM      1  S   UNL     1      -1.512  -0.904   0.012  0.00  0.00    +0.063 S 
ATOM      2  O   UNL     1      -1.682   0.445  -0.400  0.00  0.00    -0.153 OA
ATOM      3  O   UNL     1      -0.389  -1.335   0.767  0.00  0.00    -0.153 OA
ENDROOT
BRANCH   1   4
ATOM      4  N   UNL     1      -1.539  -1.826  -1.364  0.00  0.00    -0.169 NA
ATOM      5  C   UNL     1      -2.073  -1.271  -2.617  0.00  0.00    +0.138 C 
ATOM      6  C   UNL     1      -1.038  -1.538  -3.719  0.00  0.00    +0.177 C 
ATOM      7  O   UNL     1      -0.760  -2.937  -3.750  0.00  0.00    -0.374 OA
ATOM      8  C   UNL     1      -0.146  -3.468  -2.575  0.00  0.00    +0.137 C 
ATOM      9  C   UNL     1      -1.028  -3.192  -1.344  0.00  0.00    +0.109 C 
ATOM     10  C   UNL     1      -2.174  -4.210  -1.451  0.00  0.00    +0.023 C 
ATOM     11  C   UNL     1      -1.642  -5.372  -2.312  0.00  0.00    +0.004 C 
ATOM     12  C   UNL     1      -0.199  -5.016  -2.684  0.00  0.00    +0.033 C 
ENDBRANCH   1   4
BRANCH   1  18
ATOM     13  C   UNL     1      -2.804  -1.964   2.168  0.00  0.00    +0.055 A 
ATOM     14  C   UNL     1      -3.931  -2.298   2.908  0.00  0.00    +0.062 A 
ATOM     15  C   UNL     1      -5.196  -1.990   2.419  0.00  0.00    +0.145 A 
ATOM     16  C   UNL     1      -5.328  -1.353   1.199  0.00  0.00    +0.062 A 
ATOM     17  C   UNL     1      -4.202  -1.023   0.465  0.00  0.00    +0.070 A 
ATOM     18  C   UNL     1      -2.942  -1.328   0.950  0.00  0.00    +0.126 A 
ATOM     19 CL   UNL     1      -4.371  -0.224  -1.067  0.00  0.00    -0.081 Cl
ATOM     20  F   UNL     1      -6.295  -2.313   3.136  0.00  0.00    -0.204 F 
BRANCH  14  21
ATOM     21  N   UNL     1      -3.794  -2.943   4.142  0.00  0.00    -0.356 N 
ATOM     22  H   UNL     1      -2.911  -3.157   4.481  0.00  0.00    +0.142 HD
ATOM     23  H   UNL     1      -4.582  -3.175   4.658  0.00  0.00    +0.142 HD
ENDBRANCH  14  21
ENDBRANCH   1  18
TORSDOF 3
