REMARK  Name = ZINC04324786
REMARK  7 active torsions:
REMARK  status: ('A' for Active; 'I' for Inactive)
REMARK    1  A    between atoms: C_1  and  C_2
REMARK    2  A    between atoms: C_2  and  O_3
REMARK    3  A    between atoms: O_3  and  C_4
REMARK    4  A    between atoms: C_4  and  C_6
REMARK    5  A    between atoms: C_10  and  N_11
REMARK    6  A    between atoms: N_14  and  C_15
REMARK    7  A    between atoms: N_23  and  C_26
REMARK                            x       y       z     vdW  Elec       q    Type
REMARK                         _______ _______ _______ _____ _____    ______ ____
ROOT
ATOM      1  C   UNL     1       1.446  -2.354  -2.512  0.00  0.00    +0.091 A 
ATOM      2  C   UNL     1       2.871  -2.626  -2.514  0.00  0.00    -0.025 A 
ATOM      3  C   UNL     1       3.342  -3.114  -3.683  0.00  0.00    -0.021 A 
ATOM      4  S   UNL     1       1.925  -3.206  -4.734  0.00  0.00    -0.079 S 
ATOM      5  C   UNL     1       0.750  -2.628  -3.681  0.00  0.00    +0.087 A 
ATOM      6  C   UNL     1       4.763  -3.480  -3.978  0.00  0.00    -0.036 C 
ATOM      7  N   UNL     1       5.622  -2.874  -2.944  0.00  0.00    +0.381 N 
ATOM      8  C   UNL     1       5.096  -3.202  -1.612  0.00  0.00    -0.074 C 
ATOM      9  C   UNL     1       3.814  -2.408  -1.339  0.00  0.00    +0.018 C 
ATOM     10  C   UNL     1       6.988  -3.399  -3.073  0.00  0.00    -0.096 C 
ATOM     11  H   UNL     1       5.635  -1.872  -3.062  0.00  0.00    -0.082 HD
ENDROOT
BRANCH   5  12
ATOM     12  N   UNL     1      -0.604  -2.461  -3.925  0.00  0.00    -0.263 N 
ATOM     13  C   UNL     1      -1.117  -2.782  -5.130  0.00  0.00    +0.308 C 
ATOM     14  O   UNL     1      -0.391  -3.217  -6.003  0.00  0.00    -0.252 OA
ATOM     15  N   UNL     1      -2.433  -2.620  -5.367  0.00  0.00    -0.269 N 
ATOM     16  H   UNL     1      -1.183  -2.114  -3.228  0.00  0.00    +0.157 HD
ATOM     17  H   UNL     1      -3.024  -2.336  -4.651  0.00  0.00    +0.156 HD
BRANCH  15  18
ATOM     18  C   UNL     1      -2.949  -2.860  -6.646  0.00  0.00    +0.035 A 
ATOM     19  C   UNL     1      -3.990  -2.082  -7.134  0.00  0.00    +0.026 A 
ATOM     20  C   UNL     1      -4.498  -2.321  -8.396  0.00  0.00    +0.040 A 
ATOM     21  C   UNL     1      -3.970  -3.337  -9.175  0.00  0.00    +0.124 A 
ATOM     22  C   UNL     1      -2.932  -4.115  -8.690  0.00  0.00    +0.040 A 
ATOM     23  C   UNL     1      -2.417  -3.875  -7.431  0.00  0.00    +0.026 A 
ATOM     24  F   UNL     1      -4.468  -3.569 -10.408  0.00  0.00    -0.205 F 
ENDBRANCH  15  18
ENDBRANCH   5  12
BRANCH   1  25
ATOM     25  C   UNL     1       0.772  -1.820  -1.327  0.00  0.00    +0.342 C 
ATOM     26  O   UNL     1       0.309  -2.579  -0.497  0.00  0.00    -0.245 OA
BRANCH  25  27
ATOM     27  O   UNL     1       0.663  -0.486  -1.157  0.00  0.00    -0.461 OA
BRANCH  27  29
ATOM     28  C   UNL     1      -0.032   1.494   0.041  0.00  0.00    +0.048 C 
ATOM     29  C   UNL     1      -0.008  -0.036   0.022  0.00  0.00    +0.229 C 
ENDBRANCH  27  29
ENDBRANCH  25  27
ENDBRANCH   1  25
TORSDOF 5
