REMARK  Name = ZINC63406119
REMARK  5 active torsions:
REMARK  status: ('A' for Active; 'I' for Inactive)
REMARK    1  A    between atoms: C_1  and  C_2
REMARK    2  A    between atoms: C_2  and  O_3
REMARK    3  A    between atoms: O_3  and  C_4
REMARK    4  A    between atoms: C_7  and  N_10
REMARK    5  A    between atoms: N_10  and  C_11
REMARK                            x       y       z     vdW  Elec       q    Type
REMARK                         _______ _______ _______ _____ _____    ______ ____
ROOT
ATOM      1  C   UNL     1      -3.334  -6.567  -0.008  0.00  0.00    +0.189 C 
ATOM      2  C   UNL     1      -3.268  -7.910  -0.705  0.00  0.00    -0.001 C 
ATOM      3  C   UNL     1      -3.676  -9.020   0.019  0.00  0.00    +0.013 A 
ATOM      4  C   UNL     1      -3.644 -10.355  -0.579  0.00  0.00    +0.032 A 
ATOM      5  C   UNL     1      -4.058 -11.438   0.170  0.00  0.00    +0.012 A 
ATOM      6  C   UNL     1      -4.503 -11.264   1.484  0.00  0.00    +0.003 A 
ATOM      7  C   UNL     1      -4.554 -10.051   2.086  0.00  0.00    +0.024 A 
ATOM      8  C   UNL     1      -4.149  -8.878   1.402  0.00  0.00    +0.042 A 
ATOM      9  N   UNL     1      -4.203  -7.693   2.002  0.00  0.00    -0.283 N 
ATOM     10  C   UNL     1      -3.841  -6.560   1.418  0.00  0.00    +0.242 C 
ATOM     11  O   UNL     1      -3.917  -5.513   2.031  0.00  0.00    -0.273 OA
ATOM     12  C   UNL     1      -3.168 -10.496  -1.969  0.00  0.00    +0.194 C 
ATOM     13  O   UNL     1      -3.123 -11.585  -2.509  0.00  0.00    -0.287 OA
ATOM     14  C   UNL     1      -2.747  -9.271  -2.685  0.00  0.00    +0.030 A 
ATOM     15  C   UNL     1      -2.808  -8.017  -2.035  0.00  0.00    -0.008 A 
ATOM     16  C   UNL     1      -2.404  -6.867  -2.730  0.00  0.00    +0.009 A 
ATOM     17  C   UNL     1      -1.954  -6.971  -4.031  0.00  0.00    +0.001 A 
ATOM     18  C   UNL     1      -1.896  -8.202  -4.662  0.00  0.00    +0.001 A 
ATOM     19  C   UNL     1      -2.291  -9.350  -3.995  0.00  0.00    +0.012 A 
ATOM     20  H   UNL     1      -4.524  -7.656   2.916  0.00  0.00    +0.155 HD
ENDROOT
BRANCH   1  21
ATOM     21  N   UNL     1      -1.988  -5.989  -0.012  0.00  0.00    -0.329 N 
ATOM     22  H   UNL     1      -1.211  -6.569  -0.018  0.00  0.00    +0.147 HD
BRANCH  21  26
ATOM     23  C   UNL     1      -1.498  -1.849   0.006  0.00  0.00    +0.121 A 
ATOM     24  C   UNL     1      -0.387  -2.679  -0.003  0.00  0.00    +0.047 A 
ATOM     25  C   UNL     1      -0.548  -4.050  -0.009  0.00  0.00    +0.026 A 
ATOM     26  C   UNL     1      -1.824  -4.599  -0.005  0.00  0.00    +0.028 A 
ATOM     27  C   UNL     1      -2.936  -3.768   0.004  0.00  0.00    +0.026 A 
ATOM     28  C   UNL     1      -2.773  -2.396   0.016  0.00  0.00    +0.047 A 
BRANCH  23  29
ATOM     29  O   UNL     1      -1.339  -0.499   0.012  0.00  0.00    -0.492 OA
BRANCH  29  31
ATOM     30  C   UNL     1      -0.019   1.526   0.010  0.00  0.00    +0.048 C 
ATOM     31  C   UNL     1       0.002  -0.004   0.002  0.00  0.00    +0.225 C 
ENDBRANCH  29  31
ENDBRANCH  23  29
ENDBRANCH  21  26
ENDBRANCH   1  21
TORSDOF 4
