REMARK  Name = ZINC01070403
REMARK  8 active torsions:
REMARK  status: ('A' for Active; 'I' for Inactive)
REMARK    1  A    between atoms: C_1  and  C_2
REMARK    2  A    between atoms: C_2  and  C_3
REMARK    3  A    between atoms: C_6  and  N_9
REMARK    4  A    between atoms: C_10  and  C_12
REMARK    5  A    between atoms: C_12  and  C_13
REMARK    6  A    between atoms: N_17  and  C_24
REMARK    7  A    between atoms: N_20  and  C_21
REMARK    8  A    between atoms: C_27  and  C_30
REMARK                            x       y       z     vdW  Elec       q    Type
REMARK                         _______ _______ _______ _____ _____    ______ ____
ROOT
ATOM      1  C   UNL     1       1.674  -2.813   7.966  0.00  0.00    +0.173 C 
ATOM      2  C   UNL     1       2.374  -3.346   9.201  0.00  0.00    +0.248 C 
ATOM      3  O   UNL     1       2.959  -4.402   9.312  0.00  0.00    -0.273 OA
ATOM      4  N   UNL     1       2.211  -2.402  10.148  0.00  0.00    -0.193 N 
ATOM      5  C   UNL     1       1.512  -1.358   9.689  0.00  0.00    +0.316 C 
ATOM      6  O   UNL     1       1.237  -0.382  10.359  0.00  0.00    -0.252 OA
ATOM      7  N   UNL     1       1.146  -1.509   8.400  0.00  0.00    -0.270 N 
ENDROOT
BRANCH   4   8
ATOM      8  C   UNL     1       2.710  -2.503  11.454  0.00  0.00    +0.045 A 
ATOM      9  C   UNL     1       2.383  -1.541  12.400  0.00  0.00    +0.024 A 
ATOM     10  C   UNL     1       2.877  -1.643  13.686  0.00  0.00    +0.005 A 
ATOM     11  C   UNL     1       3.696  -2.702  14.032  0.00  0.00    -0.050 A 
ATOM     12  C   UNL     1       4.023  -3.661  13.092  0.00  0.00    +0.005 A 
ATOM     13  C   UNL     1       3.529  -3.568  11.806  0.00  0.00    +0.024 A 
ATOM     14  C   UNL     1       4.232  -2.810  15.436  0.00  0.00    +0.044 C 
ENDBRANCH   4   8
BRANCH   7  15
ATOM     15  C   UNL     1       0.376  -0.563   7.589  0.00  0.00    +0.079 C 
ATOM     16  C   UNL     1       0.221   0.863   8.122  0.00  0.00    +0.024 C 
ATOM     17  C   UNL     1      -0.973  -0.094   8.140  0.00  0.00    +0.024 C 
ENDBRANCH   7  15
BRANCH   1  18
ATOM     18  C   UNL     1       2.670  -2.636   6.818  0.00  0.00    +0.128 C 
BRANCH  18  20
ATOM     19  N   UNL     1       4.053  -4.085   5.367  0.00  0.00    -0.285 N 
ATOM     20  C   UNL     1       3.082  -3.989   6.297  0.00  0.00    +0.219 C 
ATOM     21  O   UNL     1       2.541  -4.990   6.715  0.00  0.00    -0.275 OA
ATOM     22  H   UNL     1       4.532  -3.292   5.082  0.00  0.00    +0.155 HD
BRANCH  19  26
ATOM     23  C   UNL     1       4.993  -7.794   3.717  0.00  0.00    -0.048 A 
ATOM     24  C   UNL     1       4.621  -7.704   5.046  0.00  0.00    +0.005 A 
ATOM     25  C   UNL     1       4.308  -6.476   5.596  0.00  0.00    +0.023 A 
ATOM     26  C   UNL     1       4.369  -5.331   4.813  0.00  0.00    +0.033 A 
ATOM     27  C   UNL     1       4.744  -5.424   3.479  0.00  0.00    +0.023 A 
ATOM     28  C   UNL     1       5.060  -6.654   2.936  0.00  0.00    +0.005 A 
BRANCH  23  30
ATOM     29  C   UNL     1       6.828  -9.408   3.299  0.00  0.00    +0.009 C 
ATOM     30  C   UNL     1       5.334  -9.135   3.120  0.00  0.00    +0.032 C 
ENDBRANCH  23  30
ENDBRANCH  19  26
ENDBRANCH  18  20
ENDBRANCH   1  18
TORSDOF 6
