REMARK  Name = ZINC03521485
REMARK  7 active torsions:
REMARK  status: ('A' for Active; 'I' for Inactive)
REMARK    1  A    between atoms: C_1  and  C_2
REMARK    2  A    between atoms: C_2  and  N_3
REMARK    3  A    between atoms: C_7  and  C_9
REMARK    4  A    between atoms: C_9  and  C_11
REMARK    5  A    between atoms: C_9  and  S_12
REMARK    6  A    between atoms: S_12  and  C_13
REMARK    7  A    between atoms: N_23  and  C_24
REMARK                            x       y       z     vdW  Elec       q    Type
REMARK                         _______ _______ _______ _____ _____    ______ ____
ROOT
ATOM      1  C   UNL     1      -3.008   0.686   1.207  0.00  0.00    +0.177 A 
ATOM      2  N   UNL     1      -4.133   0.018   1.283  0.00  0.00    -0.223 NA
ATOM      3  C   UNL     1      -4.801  -0.369   0.178  0.00  0.00    +0.079 A 
ATOM      4  C   UNL     1      -6.001  -1.082   0.259  0.00  0.00    +0.028 A 
ATOM      5  C   UNL     1      -6.645  -1.455  -0.886  0.00  0.00    +0.002 A 
ATOM      6  C   UNL     1      -6.125  -1.136  -2.135  0.00  0.00    +0.001 A 
ATOM      7  C   UNL     1      -4.954  -0.440  -2.247  0.00  0.00    +0.015 A 
ATOM      8  C   UNL     1      -4.275  -0.047  -1.094  0.00  0.00    +0.065 A 
ATOM      9  C   UNL     1      -3.016   0.707  -1.155  0.00  0.00    +0.267 A 
ATOM     10  O   UNL     1      -2.517   1.018  -2.220  0.00  0.00    -0.267 OA
ATOM     11  N   UNL     1      -2.429   1.039   0.019  0.00  0.00    -0.253 N 
ENDROOT
BRANCH  11  12
ATOM     12  C   UNL     1      -1.224   1.754   0.017  0.00  0.00    +0.087 A 
ATOM     13  C   UNL     1      -0.013   1.076   0.008  0.00  0.00    +0.029 A 
ATOM     14  C   UNL     1       1.174   1.783   0.000  0.00  0.00    +0.002 A 
ATOM     15  C   UNL     1       1.157   3.166   0.008  0.00  0.00    +0.003 A 
ATOM     16  C   UNL     1      -0.046   3.846   0.023  0.00  0.00    +0.040 A 
ATOM     17  C   UNL     1      -1.238   3.144   0.030  0.00  0.00    +0.147 A 
ATOM     18  F   UNL     1      -2.414   3.808   0.044  0.00  0.00    -0.203 F 
ENDBRANCH  11  12
BRANCH   1  19
ATOM     19  S   UNL     1      -2.204   1.150   2.704  0.00  0.00    -0.075 S 
BRANCH  19  20
ATOM     20  C   UNL     1      -3.360   0.455   3.911  0.00  0.00    +0.137 C 
ATOM     21  C   UNL     1      -3.369  -1.071   3.787  0.00  0.00    +0.029 C 
BRANCH  20  26
ATOM     22  N   UNL     1      -4.311   1.104   8.578  0.00  0.00    -0.299 N 
ATOM     23  C   UNL     1      -3.427   1.147   7.562  0.00  0.00    +0.306 C 
ATOM     24  O   UNL     1      -2.282   1.499   7.767  0.00  0.00    -0.252 OA
ATOM     25  N   UNL     1      -3.812   0.800   6.318  0.00  0.00    -0.239 N 
ATOM     26  C   UNL     1      -2.928   0.843   5.302  0.00  0.00    +0.233 C 
ATOM     27  O   UNL     1      -1.786   1.194   5.506  0.00  0.00    -0.274 OA
ATOM     28  H   UNL     1      -5.224   0.823   8.415  0.00  0.00    +0.150 HD
ATOM     29  H   UNL     1      -4.726   0.519   6.154  0.00  0.00    +0.159 HD
BRANCH  22  31
ATOM     30  C   UNL     1      -5.076   1.345  10.888  0.00  0.00    +0.024 C 
ATOM     31  C   UNL     1      -3.891   1.482   9.930  0.00  0.00    +0.102 C 
ENDBRANCH  22  31
ENDBRANCH  20  26
ENDBRANCH  19  20
ENDBRANCH   1  19
TORSDOF 5
