REMARK  Name = ZINC61521738
REMARK  2 active torsions:
REMARK  status: ('A' for Active; 'I' for Inactive)
REMARK    1  A    between atoms: C_2  and  O_9
REMARK    2  A    between atoms: O_9  and  C_10
REMARK                            x       y       z     vdW  Elec       q    Type
REMARK                         _______ _______ _______ _____ _____    ______ ____
ROOT
ATOM      1  C   UNL     1       2.343   4.096   0.105  0.00  0.00    +0.329 A 
ATOM      2  N   UNL     1       2.368   5.418   0.221  0.00  0.00    -0.157 NA
ATOM      3  C   UNL     1       3.529   6.052   0.316  0.00  0.00    +0.260 A 
ATOM      4  N   UNL     1       4.665   5.362   0.295  0.00  0.00    -0.180 NA
ATOM      5  C   UNL     1       4.638   4.045   0.179  0.00  0.00    +0.230 A 
ATOM      6  N   UNL     1       3.480   3.410   0.089  0.00  0.00    -0.164 NA
ATOM      7 CL   UNL     1       6.123   3.146   0.151  0.00  0.00    -0.041 Cl
ATOM      8  N   UNL     1       3.558   7.439   0.438  0.00  0.00    -0.186 N 
ATOM      9  C   UNL     1       4.654   8.220   0.537  0.00  0.00    +0.228 A 
ATOM     10  N   UNL     1       4.258   9.462   0.633  0.00  0.00    -0.222 NA
ATOM     11  C   UNL     1       2.926   9.517   0.599  0.00  0.00    +0.245 A 
ATOM     12  N   UNL     1       2.453   8.305   0.474  0.00  0.00    -0.151 NA
ENDROOT
BRANCH   1  13
ATOM     13  O   UNL     1       1.159   3.446   0.009  0.00  0.00    -0.423 OA
BRANCH  13  15
ATOM     14  C   UNL     1       1.503   1.404   1.180  0.00  0.00    +0.066 A 
ATOM     15  C   UNL     1       1.174   2.087   0.018  0.00  0.00    +0.135 A 
ATOM     16  C   UNL     1       0.861   1.382  -1.134  0.00  0.00    +0.066 A 
ATOM     17  C   UNL     1       0.876  -0.001  -1.123  0.00  0.00    +0.046 A 
ATOM     18  C   UNL     1       1.204  -0.680   0.037  0.00  0.00    +0.040 A 
ATOM     19  C   UNL     1       1.517   0.022   1.187  0.00  0.00    +0.046 A 
ATOM     20 CL   UNL     1       1.929  -0.834   2.640  0.00  0.00    -0.083 Cl
ATOM     21 CL   UNL     1       0.484  -0.884  -2.565  0.00  0.00    -0.083 Cl
ENDBRANCH  13  15
ENDBRANCH   1  13
TORSDOF 2
