REMARK  Name = ZINC37425900
REMARK  6 active torsions:
REMARK  status: ('A' for Active; 'I' for Inactive)
REMARK    1  A    between atoms: C_1  and  C_2
REMARK    2  A    between atoms: C_2  and  C_3
REMARK    3  A    between atoms: C_2  and  N_4
REMARK    4  A    between atoms: C_5  and  C_7
REMARK    5  A    between atoms: C_14  and  C_16
REMARK    6  A    between atoms: N_21  and  C_22
REMARK                            x       y       z     vdW  Elec       q    Type
REMARK                         _______ _______ _______ _____ _____    ______ ____
ROOT
ATOM      1  C   UNL     1       1.871  -1.177   2.972  0.00  0.00    +0.092 C 
ATOM      2  C   UNL     1       1.320  -0.436   4.192  0.00  0.00    +0.016 C 
ATOM      3  C   UNL     1       2.056  -0.903   5.450  0.00  0.00    +0.020 C 
ATOM      4  C   UNL     1       1.818  -2.403   5.648  0.00  0.00    +0.108 C 
ATOM      5  N   UNL     1       2.211  -3.110   4.422  0.00  0.00    -0.296 N 
ATOM      6  C   UNL     1       1.632  -2.681   3.142  0.00  0.00    +0.120 C 
ATOM      7  C   UNL     1       3.087  -4.133   4.469  0.00  0.00    +0.266 C 
ATOM      8  O   UNL     1       3.393  -4.721   3.449  0.00  0.00    -0.268 OA
ENDROOT
BRANCH   7   9
ATOM      9  C   UNL     1       3.674  -4.540   5.756  0.00  0.00    +0.135 A 
ATOM     10  C   UNL     1       4.877  -5.201   5.795  0.00  0.00    +0.081 A 
ATOM     11  S   UNL     1       5.076  -5.426   7.558  0.00  0.00    -0.060 S 
ATOM     12  C   UNL     1       3.558  -4.630   8.062  0.00  0.00    +0.163 A 
ATOM     13  N   UNL     1       3.048  -4.268   6.903  0.00  0.00    -0.220 NA
ATOM     14  N   UNL     1       3.053  -4.438   9.338  0.00  0.00    -0.294 N 
ATOM     15  H   UNL     1       2.159  -4.083   9.458  0.00  0.00    +0.154 HD
BRANCH  14  16
ATOM     16  C   UNL     1       3.834  -4.756  10.455  0.00  0.00    +0.033 A 
ATOM     17  C   UNL     1       5.192  -4.465  10.460  0.00  0.00    +0.026 A 
ATOM     18  C   UNL     1       5.961  -4.780  11.563  0.00  0.00    +0.040 A 
ATOM     19  C   UNL     1       5.379  -5.387  12.663  0.00  0.00    +0.124 A 
ATOM     20  C   UNL     1       4.025  -5.679  12.660  0.00  0.00    +0.040 A 
ATOM     21  C   UNL     1       3.251  -5.360  11.562  0.00  0.00    +0.026 A 
ATOM     22  F   UNL     1       6.133  -5.695  13.741  0.00  0.00    -0.205 F 
ENDBRANCH  14  16
ENDBRANCH   7   9
BRANCH   1  24
ATOM     23  N   UNL     1       1.491  -1.210   0.528  0.00  0.00    -0.313 N 
ATOM     24  C   UNL     1       1.168  -0.693   1.730  0.00  0.00    +0.218 C 
ATOM     25  O   UNL     1       0.311   0.162   1.812  0.00  0.00    -0.275 OA
ATOM     26  H   UNL     1       2.175  -1.894   0.462  0.00  0.00    +0.149 HD
BRANCH  23  28
ATOM     27  C   UNL     1       1.501   0.521  -1.199  0.00  0.00    +0.027 C 
ATOM     28  C   UNL     1       0.807  -0.740  -0.679  0.00  0.00    +0.067 C 
ATOM     29  C   UNL     1       0.859  -1.829  -1.752  0.00  0.00    +0.027 C 
ENDBRANCH  23  28
ENDBRANCH   1  24
TORSDOF 4
