REMARK  Name = ZINC04933606
REMARK  8 active torsions:
REMARK  status: ('A' for Active; 'I' for Inactive)
REMARK    1  A    between atoms: C_1  and  C_2
REMARK    2  A    between atoms: C_7  and  N_12
REMARK    3  A    between atoms: C_9  and  C_11
REMARK    4  A    between atoms: C_13  and  C_15
REMARK    5  A    between atoms: C_15  and  N_16
REMARK    6  A    between atoms: N_16  and  C_17
REMARK    7  A    between atoms: N_16  and  S_18
REMARK    8  A    between atoms: S_18  and  C_21
REMARK                            x       y       z     vdW  Elec       q    Type
REMARK                         _______ _______ _______ _____ _____    ______ ____
ROOT
ATOM      1  N   UNL     1       0.569  -5.007  -1.525  0.00  0.00    -0.171 NA
ATOM      2  C   UNL     1       1.995  -5.200  -1.801  0.00  0.00    +0.132 C 
ENDROOT
BRANCH   1   3
ATOM      3  S   UNL     1       0.074  -4.532  -0.018  0.00  0.00    +0.061 S 
ATOM      4  O   UNL     1       1.096  -4.926   0.888  0.00  0.00    -0.153 OA
ATOM      5  O   UNL     1      -1.274  -4.960   0.120  0.00  0.00    -0.153 OA
BRANCH   3   6
ATOM      6  C   UNL     1       0.046  -2.770  -0.011  0.00  0.00    +0.106 A 
ATOM      7  C   UNL     1      -1.105  -2.097  -0.377  0.00  0.00    +0.030 A 
ATOM      8  C   UNL     1      -1.130  -0.716  -0.371  0.00  0.00    +0.025 A 
ATOM      9  C   UNL     1       0.002  -0.004   0.002  0.00  0.00    +0.037 A 
ATOM     10  C   UNL     1       1.156  -0.683   0.369  0.00  0.00    -0.024 A 
ATOM     11  C   UNL     1       1.176  -2.064   0.362  0.00  0.00    +0.034 A 
ATOM     12  C   UNL     1       2.384   0.089   0.775  0.00  0.00    +0.046 C 
ATOM     13  C   UNL     1       2.462   1.385  -0.033  0.00  0.00    +0.101 C 
ATOM     14  C   UNL     1       1.134   2.092   0.003  0.00  0.00    +0.218 C 
ATOM     15  O   UNL     1       1.100   3.304   0.024  0.00  0.00    -0.275 OA
ATOM     16  N   UNL     1      -0.017   1.394   0.010  0.00  0.00    -0.285 N 
ATOM     17  H   UNL     1      -0.865   1.864   0.016  0.00  0.00    +0.155 HD
ENDBRANCH   3   6
ENDBRANCH   1   3
BRANCH   1  18
ATOM     18  C   UNL     1      -0.419  -5.235  -2.583  0.00  0.00    +0.204 C 
BRANCH  18  20
ATOM     19  N   UNL     1      -1.418  -3.963  -4.454  0.00  0.00    -0.311 N 
ATOM     20  C   UNL     1      -0.559  -3.987  -3.416  0.00  0.00    +0.229 C 
ATOM     21  O   UNL     1       0.101  -3.005  -3.153  0.00  0.00    -0.274 OA
ATOM     22  H   UNL     1      -1.946  -4.749  -4.665  0.00  0.00    +0.149 HD
BRANCH  19  28
ATOM     23  C   UNL     1      -0.836  -1.163  -7.619  0.00  0.00    +0.008 C 
ATOM     24  C   UNL     1      -2.195  -1.857  -7.508  0.00  0.00    -0.009 C 
ATOM     25  C   UNL     1      -3.198  -0.911  -6.846  0.00  0.00    +0.003 C 
ATOM     26  C   UNL     1      -2.700  -0.538  -5.448  0.00  0.00    +0.002 C 
ATOM     27  C   UNL     1      -2.558  -1.804  -4.602  0.00  0.00    +0.022 C 
ATOM     28  C   UNL     1      -1.555  -2.750  -5.264  0.00  0.00    +0.076 C 
ATOM     29  C   UNL     1      -2.052  -3.124  -6.662  0.00  0.00    +0.009 C 
ATOM     30  C   UNL     1      -1.049  -4.070  -7.325  0.00  0.00    +0.009 C 
ENDBRANCH  19  28
ENDBRANCH  18  20
ENDBRANCH   1  18
TORSDOF 5
