REMARK  Name = ZINC46427788
REMARK  6 active torsions:
REMARK  status: ('A' for Active; 'I' for Inactive)
REMARK    1  A    between atoms: C_1  and  C_2
REMARK    2  A    between atoms: C_2  and  C_21
REMARK    3  A    between atoms: N_3  and  N_4
REMARK    4  A    between atoms: C_8  and  S_11
REMARK    5  A    between atoms: S_11  and  N_14
REMARK    6  A    between atoms: N_17  and  C_20
REMARK                            x       y       z     vdW  Elec       q    Type
REMARK                         _______ _______ _______ _____ _____    ______ ____
ROOT
ATOM      1  N   UNL     1       0.024   0.035   2.340  0.00  0.00    -0.221 N 
ATOM      2  C   UNL     1       0.045  -0.666   3.539  0.00  0.00    +0.138 A 
ATOM      3  C   UNL     1       0.041   0.029   4.745  0.00  0.00    +0.047 A 
ATOM      4  C   UNL     1       0.062  -0.682   5.931  0.00  0.00    +0.033 A 
ATOM      5  C   UNL     1       0.086  -2.069   5.872  0.00  0.00    +0.124 A 
ATOM      6  C   UNL     1       0.088  -2.694   4.641  0.00  0.00    +0.141 A 
ATOM      7  N   UNL     1       0.062  -1.991   3.525  0.00  0.00    -0.237 NA
ATOM      8  H   UNL     1       0.011   1.005   2.345  0.00  0.00    +0.176 HD
ENDROOT
BRANCH   1  11
ATOM      9  C   UNL     1      -0.018   1.503   0.010  0.00  0.00    +0.068 C 
ATOM     10  C   UNL     1       0.002  -0.004   0.002  0.00  0.00    +0.066 C 
ATOM     11  N   UNL     1       0.022  -0.659   1.123  0.00  0.00    -0.185 NA
BRANCH  10  12
ATOM     12  C   UNL     1      -0.000  -0.734  -1.279  0.00  0.00    +0.033 A 
ATOM     13  C   UNL     1      -0.015  -0.033  -2.487  0.00  0.00    +0.012 A 
ATOM     14  C   UNL     1      -0.017  -0.722  -3.681  0.00  0.00    +0.001 A 
ATOM     15  C   UNL     1      -0.004  -2.106  -3.687  0.00  0.00    +0.003 A 
ATOM     16  C   UNL     1       0.011  -2.809  -2.496  0.00  0.00    +0.039 A 
ATOM     17  C   UNL     1       0.019  -2.133  -1.291  0.00  0.00    +0.132 A 
ATOM     18  F   UNL     1       0.039  -2.820  -0.128  0.00  0.00    -0.205 F 
ENDBRANCH  10  12
ENDBRANCH   1  11
BRANCH   5  19
ATOM     19  S   UNL     1       0.114  -3.022   7.354  0.00  0.00    +0.062 S 
ATOM     20  O   UNL     1       0.685  -4.279   7.018  0.00  0.00    -0.153 OA
ATOM     21  O   UNL     1       0.658  -2.185   8.365  0.00  0.00    -0.153 OA
BRANCH  19  22
ATOM     22  N   UNL     1      -1.460  -3.315   7.777  0.00  0.00    -0.174 NA
ATOM     23  C   UNL     1      -2.193  -2.384   8.649  0.00  0.00    +0.125 C 
ATOM     24  C   UNL     1      -3.525  -2.034   7.976  0.00  0.00    +0.101 C 
ATOM     25  N   UNL     1      -4.243  -3.272   7.646  0.00  0.00    -0.303 NA
ATOM     26  C   UNL     1      -3.495  -4.079   6.673  0.00  0.00    +0.101 C 
ATOM     27  C   UNL     1      -2.164  -4.510   7.288  0.00  0.00    +0.125 C 
ATOM     28  C   UNL     1      -5.597  -2.980   7.157  0.00  0.00    +0.105 C 
ENDBRANCH  19  22
ENDBRANCH   5  19
TORSDOF 4
