REMARK  Name = ZINC13209199
REMARK  7 active torsions:
REMARK  status: ('A' for Active; 'I' for Inactive)
REMARK    1  A    between atoms: C_1  and  O_2
REMARK    2  A    between atoms: O_2  and  C_3
REMARK    3  A    between atoms: C_8  and  O_9
REMARK    4  A    between atoms: C_12  and  C_15
REMARK    5  A    between atoms: C_22  and  O_26
REMARK    6  A    between atoms: C_23  and  O_25
REMARK    7  A    between atoms: O_26  and  C_27
REMARK                            x       y       z     vdW  Elec       q    Type
REMARK                         _______ _______ _______ _____ _____    ______ ____
ROOT
ATOM      1  C   UNL     1       2.147   9.515  -2.628  0.00  0.00    +0.162 A 
ATOM      2  C   UNL     1       1.926   8.152  -2.537  0.00  0.00    +0.053 A 
ATOM      3  C   UNL     1       2.417   7.433  -1.458  0.00  0.00    -0.037 A 
ATOM      4  C   UNL     1       3.129   8.076  -0.468  0.00  0.00    -0.027 A 
ATOM      5  C   UNL     1       3.355   9.442  -0.556  0.00  0.00    +0.054 A 
ATOM      6  C   UNL     1       2.868  10.164  -1.631  0.00  0.00    +0.159 A 
ATOM      7  C   UNL     1       3.677   7.336   0.725  0.00  0.00    +0.117 C 
ATOM      8  N   UNL     1       3.717   5.895   0.462  0.00  0.00    -0.305 NA
ATOM      9  C   UNL     1       2.399   5.423   0.007  0.00  0.00    +0.090 C 
ATOM     10  C   UNL     1       2.152   5.949  -1.407  0.00  0.00    +0.059 C 
ATOM     11  H   UNL     1       4.462   5.685  -0.319  0.00  0.00    +0.123 HD
ENDROOT
BRANCH   9  12
ATOM     12  C   UNL     1       2.374   3.917  -0.001  0.00  0.00    -0.006 A 
ATOM     13  C   UNL     1       3.535   3.204  -0.016  0.00  0.00    +0.088 A 
ATOM     14  N   UNL     1       3.542   1.878  -0.024  0.00  0.00    -0.366 N 
ATOM     15  C   UNL     1       2.441   1.161  -0.016  0.00  0.00    +0.091 A 
ATOM     16  C   UNL     1       1.191   1.799   0.000  0.00  0.00    +0.002 A 
ATOM     17  C   UNL     1       1.153   3.219   0.009  0.00  0.00    -0.007 A 
ATOM     18  C   UNL     1      -0.083   3.880   0.024  0.00  0.00    +0.058 A 
ATOM     19  C   UNL     1      -1.237   3.150   0.032  0.00  0.00    +0.162 A 
ATOM     20  C   UNL     1      -1.201   1.746   0.017  0.00  0.00    +0.159 A 
ATOM     21  C   UNL     1      -0.013   1.076   0.008  0.00  0.00    +0.059 A 
ATOM     22  H   UNL     1       4.497   1.333  -0.036  0.00  0.00    +0.165 HD
BRANCH  20  23
ATOM     23  O   UNL     1      -2.366   1.046   0.018  0.00  0.00    -0.503 OA
ATOM     24  H   UNL     1      -2.346  -0.054   0.007  0.00  0.00    +0.292 HD
ENDBRANCH  20  23
BRANCH  19  25
ATOM     25  O   UNL     1      -2.435   3.789   0.047  0.00  0.00    -0.491 OA
ATOM     26  C   UNL     1      -2.408   5.218   0.055  0.00  0.00    +0.277 C 
ENDBRANCH  19  25
ENDBRANCH   9  12
BRANCH   1  28
ATOM     27  C   UNL     1       0.933   9.483  -4.673  0.00  0.00    +0.277 C 
ATOM     28  O   UNL     1       1.663  10.217  -3.688  0.00  0.00    -0.491 OA
ENDBRANCH   1  28
BRANCH   6  29
ATOM     29  O   UNL     1       3.093  11.503  -1.712  0.00  0.00    -0.503 OA
ATOM     30  H   UNL     1       3.663  12.014  -0.922  0.00  0.00    +0.292 HD
ENDBRANCH   6  29
TORSDOF 5
