REMARK  Name = ZINC12871861
REMARK  9 active torsions:
REMARK  status: ('A' for Active; 'I' for Inactive)
REMARK    1  A    between atoms: C_1  and  C_2
REMARK    2  A    between atoms: C_2  and  C_3
REMARK    3  A    between atoms: C_2  and  C_4
REMARK    4  A    between atoms: C_4  and  C_6
REMARK    5  A    between atoms: C_4  and  N_19
REMARK    6  A    between atoms: N_8  and  N_9
REMARK    7  A    between atoms: C_10  and  C_12
REMARK    8  A    between atoms: N_19  and  S_20
REMARK    9  A    between atoms: S_20  and  C_23
REMARK                            x       y       z     vdW  Elec       q    Type
REMARK                         _______ _______ _______ _____ _____    ______ ____
ROOT
ATOM      1  C   UNL     1      -0.609   3.658  -2.893  0.00  0.00    +0.248 C 
ATOM      2  O   UNL     1      -0.562   2.704  -3.640  0.00  0.00    -0.273 OA
ATOM      3  N   UNL     1      -0.321   4.891  -3.355  0.00  0.00    -0.233 N 
ATOM      4  H   UNL     1      -0.292   5.644  -2.744  0.00  0.00    +0.173 HD
ENDROOT
BRANCH   3   5
ATOM      5  N   UNL     1      -0.063   5.085  -4.719  0.00  0.00    -0.230 N 
ATOM      6  C   UNL     1       0.225   6.317  -5.181  0.00  0.00    +0.260 C 
ATOM      7  O   UNL     1       0.261   7.261  -4.415  0.00  0.00    -0.269 OA
ATOM      8  H   UNL     1      -0.092   4.332  -5.330  0.00  0.00    +0.173 HD
BRANCH   6   9
ATOM      9  C   UNL     1       0.497   6.522  -6.619  0.00  0.00    +0.038 A 
ATOM     10  C   UNL     1       0.463   5.439  -7.500  0.00  0.00    +0.014 A 
ATOM     11  C   UNL     1       0.711   5.638  -8.842  0.00  0.00    +0.021 A 
ATOM     12  C   UNL     1       1.008   6.905  -9.314  0.00  0.00    +0.041 A 
ATOM     13  C   UNL     1       1.049   7.982  -8.444  0.00  0.00    +0.021 A 
ATOM     14  C   UNL     1       0.796   7.798  -7.101  0.00  0.00    +0.014 A 
ATOM     15 CL   UNL     1       1.327   7.146 -11.004  0.00  0.00    -0.084 Cl
ENDBRANCH   6   9
ENDBRANCH   3   5
BRANCH   1  16
ATOM     16  C   UNL     1      -0.991   3.466  -1.448  0.00  0.00    +0.166 C 
BRANCH  16  18
ATOM     17  C   UNL     1      -2.807   5.173  -1.617  0.00  0.00    +0.009 C 
ATOM     18  C   UNL     1      -2.490   3.715  -1.278  0.00  0.00    +0.010 C 
ATOM     19  C   UNL     1      -3.270   2.793  -2.218  0.00  0.00    +0.009 C 
ENDBRANCH  16  18
BRANCH  16  20
ATOM     20  N   UNL     1      -0.674   2.095  -1.037  0.00  0.00    -0.177 NA
ATOM     21  H   UNL     1      -0.772   1.365  -1.668  0.00  0.00    +0.149 HD
BRANCH  20  22
ATOM     22  S   UNL     1      -0.149   1.793   0.504  0.00  0.00    +0.065 S 
ATOM     23  O   UNL     1       0.045   0.388   0.599  0.00  0.00    -0.153 OA
ATOM     24  O   UNL     1       0.891   2.724   0.769  0.00  0.00    -0.153 OA
BRANCH  22  25
ATOM     25  C   UNL     1      -1.474   2.193   1.594  0.00  0.00    +0.142 A 
ATOM     26  C   UNL     1      -2.474   1.400   2.050  0.00  0.00    +0.036 A 
ATOM     27  C   UNL     1      -3.415   1.934   2.909  0.00  0.00    +0.010 A 
ATOM     28  C   UNL     1      -3.311   3.237   3.270  0.00  0.00    +0.047 A 
ATOM     29  S   UNL     1      -1.844   3.748   2.390  0.00  0.00    -0.077 S 
ENDBRANCH  22  25
ENDBRANCH  20  22
ENDBRANCH  16  20
ENDBRANCH   1  16
TORSDOF 7
