REMARK  Name = ZINC10813747
REMARK  10 active torsions:
REMARK  status: ('A' for Active; 'I' for Inactive)
REMARK    1  A    between atoms: C_1  and  C_2
REMARK    2  A    between atoms: C_5  and  S_9
REMARK    3  A    between atoms: C_6  and  C_8
REMARK    4  A    between atoms: S_9  and  N_12
REMARK    5  A    between atoms: C_15  and  C_18
REMARK    6  A    between atoms: N_20  and  C_21
REMARK    7  A    between atoms: C_23  and  C_28
REMARK    8  A    between atoms: C_23  and  C_29
REMARK    9  A    between atoms: C_24  and  C_26
REMARK   10  A    between atoms: C_24  and  C_27
REMARK                            x       y       z     vdW  Elec       q    Type
REMARK                         _______ _______ _______ _____ _____    ______ ____
ROOT
ATOM      1  N   UNL     1       6.513   1.276  -0.109  0.00  0.00    -0.177 NA
ATOM      2  C   UNL     1       5.992   1.312   1.264  0.00  0.00    +0.110 C 
ATOM      3  C   UNL     1       4.557   0.775   1.261  0.00  0.00    +0.030 C 
ATOM      4  C   UNL     1       3.722   1.565   0.251  0.00  0.00    +0.077 C 
ATOM      5  C   UNL     1       4.309   1.383  -1.151  0.00  0.00    +0.030 C 
ATOM      6  C   UNL     1       5.741   1.928  -1.175  0.00  0.00    +0.110 C 
ENDROOT
BRANCH   4   7
ATOM      7  C   UNL     1       2.302   1.062   0.270  0.00  0.00    +0.216 C 
ATOM      8  O   UNL     1       1.988   0.160   1.017  0.00  0.00    -0.276 OA
ATOM      9  N   UNL     1       1.381   1.614  -0.544  0.00  0.00    -0.312 N 
ATOM     10  H   UNL     1       1.631   2.336  -1.142  0.00  0.00    +0.149 HD
BRANCH   9  11
ATOM     11  C   UNL     1      -0.003   1.124  -0.525  0.00  0.00    +0.070 C 
ATOM     12  C   UNL     1      -0.778   1.843   0.578  0.00  0.00    +0.009 C 
ATOM     13  C   UNL     1      -2.229   1.369   0.606  0.00  0.00    -0.072 C 
ATOM     14  C   UNL     1      -2.115   0.955  -1.868  0.00  0.00    -0.072 C 
ATOM     15  C   UNL     1      -0.666   1.436  -1.867  0.00  0.00    +0.009 C 
ATOM     16  C   UNL     1      -2.801   1.549  -3.119  0.00  0.00    -0.010 C 
ATOM     17  C   UNL     1      -2.148  -0.571  -2.015  0.00  0.00    -0.010 C 
ATOM     18  C   UNL     1      -3.014   2.329   1.528  0.00  0.00    -0.010 C 
ATOM     19  C   UNL     1      -2.300  -0.026   1.238  0.00  0.00    -0.010 C 
ATOM     20  N   UNL     1      -2.927   1.408  -0.707  0.00  0.00    +0.386 N 
ATOM     21  H   UNL     1      -3.220   2.377  -0.883  0.00  0.00    -0.084 HD
ATOM     22  H   UNL     1      -3.756   0.806  -0.644  0.00  0.00    -0.084 HD
ENDBRANCH   9  11
ENDBRANCH   4   7
BRANCH   1  23
ATOM     23  S   UNL     1       7.944   0.514  -0.448  0.00  0.00    +0.061 S 
ATOM     24  O   UNL     1       8.495   1.171  -1.581  0.00  0.00    -0.153 OA
ATOM     25  O   UNL     1       8.645   0.401   0.782  0.00  0.00    -0.153 OA
BRANCH  23  30
ATOM     26  C   UNL     1       6.608  -5.105  -2.193  0.00  0.00    +0.044 C 
ATOM     27  C   UNL     1       6.941  -3.701  -1.758  0.00  0.00    -0.050 A 
ATOM     28  C   UNL     1       7.469  -2.802  -2.666  0.00  0.00    +0.005 A 
ATOM     29  C   UNL     1       7.775  -1.515  -2.266  0.00  0.00    +0.029 A 
ATOM     30  C   UNL     1       7.553  -1.126  -0.958  0.00  0.00    +0.108 A 
ATOM     31  C   UNL     1       7.030  -2.026  -0.049  0.00  0.00    -0.024 A 
ATOM     32  C   UNL     1       6.719  -3.312  -0.450  0.00  0.00    +0.008 A 
ATOM     33  C   UNL     1       6.794  -1.605   1.379  0.00  0.00    +0.046 C 
ENDBRANCH  23  30
ENDBRANCH   1  23
TORSDOF 4
