REMARK  Name = ZINC02714993
REMARK  5 active torsions:
REMARK  status: ('A' for Active; 'I' for Inactive)
REMARK    1  A    between atoms: C_1  and  C_2
REMARK    2  A    between atoms: C_2  and  N_3
REMARK    3  A    between atoms: N_12  and  C_13
REMARK    4  A    between atoms: C_13  and  C_15
REMARK    5  A    between atoms: C_19  and  N_21
REMARK                            x       y       z     vdW  Elec       q    Type
REMARK                         _______ _______ _______ _____ _____    ______ ____
ROOT
ATOM      1  C   UNL     1      -1.626  -0.861   0.532  0.00  0.00    +0.269 C 
ATOM      2  O   UNL     1      -2.729  -0.347   0.476  0.00  0.00    -0.268 OA
ENDROOT
BRANCH   1  12
ATOM      3  N   UNL     1      -2.643  -4.295   0.099  0.00  0.00    -0.319 N 
ATOM      4  C   UNL     1      -3.869  -4.913  -0.079  0.00  0.00    +0.093 A 
ATOM      5  C   UNL     1      -4.139  -6.284  -0.238  0.00  0.00    +0.151 A 
ATOM      6  C   UNL     1      -5.429  -6.732  -0.405  0.00  0.00    +0.078 A 
ATOM      7  C   UNL     1      -6.499  -5.849  -0.422  0.00  0.00    +0.127 A 
ATOM      8  C   UNL     1      -6.260  -4.494  -0.267  0.00  0.00    +0.055 A 
ATOM      9  C   UNL     1      -4.970  -4.046  -0.100  0.00  0.00    +0.044 A 
ATOM     10  S   UNL     1      -4.234  -2.448   0.134  0.00  0.00    -0.052 S 
ATOM     11  C   UNL     1      -2.576  -2.944   0.237  0.00  0.00    +0.167 A 
ATOM     12  N   UNL     1      -1.499  -2.186   0.415  0.00  0.00    -0.152 NA
ATOM     13  F   UNL     1      -7.760  -6.306  -0.588  0.00  0.00    -0.205 F 
ATOM     14  F   UNL     1      -3.120  -7.171  -0.226  0.00  0.00    -0.203 F 
BRANCH   3  16
ATOM     15  C   UNL     1      -0.282  -4.326  -0.537  0.00  0.00    +0.027 C 
ATOM     16  C   UNL     1      -1.418  -5.096   0.140  0.00  0.00    +0.121 C 
ENDBRANCH   3  16
ENDBRANCH   1  12
BRANCH   1  17
ATOM     17  C   UNL     1      -0.425  -0.016   0.730  0.00  0.00    +0.041 A 
ATOM     18  C   UNL     1       0.840  -0.602   0.795  0.00  0.00    +0.013 A 
ATOM     19  C   UNL     1       1.957   0.187   0.980  0.00  0.00    +0.003 A 
ATOM     20  C   UNL     1       1.828   1.558   1.101  0.00  0.00    +0.024 A 
ATOM     21  C   UNL     1       0.573   2.150   1.038  0.00  0.00    +0.045 A 
ATOM     22  C   UNL     1      -0.555   1.366   0.852  0.00  0.00    +0.037 A 
BRANCH  21  23
ATOM     23  N   UNL     1       0.447   3.541   1.161  0.00  0.00    -0.210 N 
ATOM     24  C   UNL     1       0.696   4.192   2.304  0.00  0.00    +0.227 C 
ATOM     25  O   UNL     1       1.050   3.678   3.343  0.00  0.00    -0.275 OA
ATOM     26  C   UNL     1       0.469   5.673   2.092  0.00  0.00    +0.106 C 
ATOM     27  C   UNL     1       0.032   5.765   0.616  0.00  0.00    +0.106 C 
ATOM     28  C   UNL     1       0.063   4.327   0.147  0.00  0.00    +0.227 C 
ATOM     29  O   UNL     1      -0.216   3.946  -0.969  0.00  0.00    -0.275 OA
ENDBRANCH  21  23
ENDBRANCH   1  17
TORSDOF 4
