REMARK  Name = ZINC03338329
REMARK  4 active torsions:
REMARK  status: ('A' for Active; 'I' for Inactive)
REMARK    1  A    between atoms: C_5  and  C_7
REMARK    2  A    between atoms: C_7  and  O_9
REMARK    3  A    between atoms: O_9  and  C_10
REMARK    4  A    between atoms: C_10  and  C_11
REMARK                            x       y       z     vdW  Elec       q    Type
REMARK                         _______ _______ _______ _____ _____    ______ ____
ROOT
ATOM      1  C   UNL     1      -1.183  -4.882  -0.014  0.00  0.00    +0.258 C 
ATOM      2  O   UNL     1      -2.159  -4.162   0.000  0.00  0.00    -0.271 OA
ATOM      3  N   UNL     1      -1.335  -6.221  -0.020  0.00  0.00    -0.258 N 
ATOM      4  C   UNL     1      -0.168  -7.117  -0.032  0.00  0.00    +0.209 C 
ATOM      5  C   UNL     1      -0.429  -8.252  -0.989  0.00  0.00    +0.235 C 
ATOM      6  O   UNL     1       0.502  -8.785  -1.554  0.00  0.00    -0.274 OA
ATOM      7  N   UNL     1      -1.683  -8.681  -1.224  0.00  0.00    -0.283 N 
ATOM      8  C   UNL     1      -2.779  -8.053  -0.623  0.00  0.00    +0.055 A 
ATOM      9  C   UNL     1      -2.611  -6.806  -0.011  0.00  0.00    +0.058 A 
ATOM     10  C   UNL     1      -3.683  -6.170   0.586  0.00  0.00    +0.025 A 
ATOM     11  C   UNL     1      -4.928  -6.774   0.583  0.00  0.00    +0.002 A 
ATOM     12  C   UNL     1      -5.100  -8.009  -0.014  0.00  0.00    +0.002 A 
ATOM     13  C   UNL     1      -4.029  -8.651  -0.625  0.00  0.00    +0.025 A 
ATOM     14  H   UNL     1      -1.829  -9.436  -1.816  0.00  0.00    +0.155 HD
ENDROOT
BRANCH   1  15
ATOM     15  C   UNL     1       0.198  -4.280  -0.025  0.00  0.00    +0.328 C 
BRANCH  15  16
ATOM     16  O   UNL     1       0.097  -2.855  -0.015  0.00  0.00    -0.452 OA
BRANCH  16  17
ATOM     17  C   UNL     1       1.250  -2.159  -0.023  0.00  0.00    +0.341 C 
ATOM     18  O   UNL     1       2.314  -2.747  -0.037  0.00  0.00    -0.245 OA
BRANCH  17  23
ATOM     19  C   UNL     1      -0.017   1.375   0.010  0.00  0.00    +0.001 A 
ATOM     20  C   UNL     1       1.170   2.087   0.002  0.00  0.00    +0.001 A 
ATOM     21  C   UNL     1       2.383   1.422  -0.013  0.00  0.00    +0.016 A 
ATOM     22  C   UNL     1       2.417   0.042  -0.022  0.00  0.00    +0.032 A 
ATOM     23  C   UNL     1       1.223  -0.683  -0.014  0.00  0.00    +0.073 A 
ATOM     24  C   UNL     1       0.002  -0.004   0.002  0.00  0.00    +0.016 A 
ATOM     25 BR   UNL     1       4.076  -0.866  -0.044  0.00  0.00    -0.049 Br
ENDBRANCH  17  23
ENDBRANCH  16  17
ENDBRANCH  15  16
ENDBRANCH   1  15
TORSDOF 4
