REMARK  Name = ZINC14915322
REMARK  8 active torsions:
REMARK  status: ('A' for Active; 'I' for Inactive)
REMARK    1  A    between atoms: C_1  and  C_2
REMARK    2  A    between atoms: C_2  and  C_4
REMARK    3  A    between atoms: C_2  and  N_13
REMARK    4  A    between atoms: N_9  and  C_10
REMARK    5  A    between atoms: C_10  and  C_11
REMARK    6  A    between atoms: C_10  and  C_12
REMARK    7  A    between atoms: N_16  and  C_19
REMARK    8  A    between atoms: C_24  and  O_25
REMARK                            x       y       z     vdW  Elec       q    Type
REMARK                         _______ _______ _______ _____ _____    ______ ____
ROOT
ATOM      1  N   UNL     1       0.713  -0.491   1.192  0.00  0.00    -0.289 NA
ATOM      2  C   UNL     1       2.052   0.106   1.286  0.00  0.00    +0.104 C 
ATOM      3  C   UNL     1       2.824  -0.559   2.431  0.00  0.00    +0.120 C 
ATOM      4  N   UNL     1       2.015  -0.468   3.656  0.00  0.00    -0.325 N 
ATOM      5  C   UNL     1       0.616  -0.920   3.601  0.00  0.00    +0.120 C 
ATOM      6  C   UNL     1      -0.069  -0.241   2.411  0.00  0.00    +0.104 C 
ENDROOT
BRANCH   4   7
ATOM      7  C   UNL     1       2.561   0.036   4.842  0.00  0.00    +0.072 A 
ATOM      8  C   UNL     1       2.481   1.393   5.123  0.00  0.00    +0.027 A 
ATOM      9  C   UNL     1       3.021   1.888   6.295  0.00  0.00    +0.002 A 
ATOM     10  C   UNL     1       3.641   1.034   7.189  0.00  0.00    +0.004 A 
ATOM     11  C   UNL     1       3.724  -0.319   6.916  0.00  0.00    +0.047 A 
ATOM     12  C   UNL     1       3.180  -0.823   5.746  0.00  0.00    +0.138 A 
BRANCH  12  13
ATOM     13  O   UNL     1       3.257  -2.155   5.478  0.00  0.00    -0.505 OA
ATOM     14  H   UNL     1       4.051  -2.413   4.991  0.00  0.00    +0.292 HD
ENDBRANCH  12  13
ENDBRANCH   4   7
BRANCH   1  16
ATOM     15  C   UNL     1      -0.019   1.526   0.010  0.00  0.00    +0.034 C 
ATOM     16  C   UNL     1       0.002  -0.004   0.002  0.00  0.00    +0.140 C 
BRANCH  16  17
ATOM     17  C   UNL     1       0.707  -0.490  -1.238  0.00  0.00    +0.237 C 
ATOM     18  O   UNL     1       1.704  -1.174  -1.140  0.00  0.00    -0.274 OA
ATOM     19  N   UNL     1       0.231  -0.164  -2.456  0.00  0.00    -0.239 N 
ATOM     20  C   UNL     1       0.862  -0.599  -3.565  0.00  0.00    +0.306 C 
ATOM     21  O   UNL     1       1.860  -1.285  -3.466  0.00  0.00    -0.252 OA
ATOM     22  N   UNL     1       0.385  -0.273  -4.782  0.00  0.00    -0.297 N 
ATOM     23  H   UNL     1      -0.566   0.383  -2.534  0.00  0.00    +0.159 HD
ATOM     24  H   UNL     1      -0.412   0.274  -4.861  0.00  0.00    +0.151 HD
BRANCH  22  25
ATOM     25  C   UNL     1       1.071  -0.745  -5.988  0.00  0.00    +0.068 C 
ATOM     26  C   UNL     1       0.581  -2.153  -6.335  0.00  0.00    +0.027 C 
ATOM     27  C   UNL     1       0.768   0.201  -7.151  0.00  0.00    +0.027 C 
ENDBRANCH  22  25
ENDBRANCH  16  17
ENDBRANCH   1  16
TORSDOF 5
