REMARK  Name = ZINC19228597
REMARK  9 active torsions:
REMARK  status: ('A' for Active; 'I' for Inactive)
REMARK    1  A    between atoms: C_1  and  O_2
REMARK    2  A    between atoms: O_2  and  C_3
REMARK    3  A    between atoms: C_3  and  C_4
REMARK    4  A    between atoms: C_7  and  C_9
REMARK    5  A    between atoms: C_9  and  N_10
REMARK    6  A    between atoms: C_14  and  N_17
REMARK    7  A    between atoms: N_20  and  C_23
REMARK    8  A    between atoms: C_28  and  O_29
REMARK    9  A    between atoms: O_29  and  C_30
REMARK                            x       y       z     vdW  Elec       q    Type
REMARK                         _______ _______ _______ _____ _____    ______ ____
ROOT
ATOM      1  N   UNL     1      -5.558   6.712  -1.223  0.00  0.00    +0.385 N 
ATOM      2  C   UNL     1      -6.678   5.766  -1.300  0.00  0.00    -0.078 C 
ATOM      3  C   UNL     1      -6.663   4.854  -0.071  0.00  0.00    -0.017 C 
ATOM      4  C   UNL     1      -5.333   4.096  -0.021  0.00  0.00    +0.015 C 
ATOM      5  C   UNL     1      -4.181   5.104   0.010  0.00  0.00    +0.040 C 
ATOM      6  C   UNL     1      -4.269   6.009  -1.221  0.00  0.00    -0.059 C 
ATOM      7  H   UNL     1      -5.643   7.257  -0.271  0.00  0.00    -0.081 HD
ENDROOT
BRANCH   5   8
ATOM      8  N   UNL     1      -2.900   4.385  -0.000  0.00  0.00    -0.298 NA
ATOM      9  C   UNL     1      -2.732   3.592   1.226  0.00  0.00    +0.103 C 
ATOM     10  C   UNL     1      -1.355   2.924   1.212  0.00  0.00    +0.120 C 
ATOM     11  N   UNL     1      -1.237   2.074   0.019  0.00  0.00    -0.325 N 
ATOM     12  C   UNL     1      -1.406   2.867  -1.207  0.00  0.00    +0.120 C 
ATOM     13  C   UNL     1      -2.782   3.535  -1.194  0.00  0.00    +0.103 C 
BRANCH  11  14
ATOM     14  C   UNL     1      -0.017   1.389   0.010  0.00  0.00    +0.072 A 
ATOM     15  C   UNL     1       1.177   2.095   0.002  0.00  0.00    +0.027 A 
ATOM     16  C   UNL     1       2.381   1.416  -0.013  0.00  0.00    +0.002 A 
ATOM     17  C   UNL     1       2.399   0.034  -0.021  0.00  0.00    +0.004 A 
ATOM     18  C   UNL     1       1.213  -0.677  -0.013  0.00  0.00    +0.047 A 
ATOM     19  C   UNL     1       0.002  -0.004   0.002  0.00  0.00    +0.141 A 
BRANCH  19  20
ATOM     20  O   UNL     1      -1.165  -0.702   0.009  0.00  0.00    -0.493 OA
ATOM     21  C   UNL     1      -1.069  -2.127   0.000  0.00  0.00    +0.277 C 
ENDBRANCH  19  20
ENDBRANCH  11  14
ENDBRANCH   5   8
BRANCH   1  22
ATOM     22  C   UNL     1      -5.621   7.693  -2.315  0.00  0.00    -0.003 C 
BRANCH  22  26
ATOM     23  C   UNL     1      -4.417   6.135  -5.390  0.00  0.00    +0.131 A 
ATOM     24  C   UNL     1      -5.735   5.909  -5.538  0.00  0.00    +0.047 A 
ATOM     25  C   UNL     1      -6.374   6.458  -4.402  0.00  0.00    +0.043 A 
ATOM     26  C   UNL     1      -5.410   6.992  -3.632  0.00  0.00    +0.089 A 
ATOM     27  O   UNL     1      -4.226   6.791  -4.234  0.00  0.00    -0.464 OA
BRANCH  23  28
ATOM     28  C   UNL     1      -3.338   5.720  -6.356  0.00  0.00    +0.233 C 
BRANCH  28  30
ATOM     29  C   UNL     1      -2.115   6.471  -8.277  0.00  0.00    +0.194 C 
ATOM     30  O   UNL     1      -3.125   6.764  -7.309  0.00  0.00    -0.375 OA
ENDBRANCH  28  30
ENDBRANCH  23  28
ENDBRANCH  22  26
ENDBRANCH   1  22
TORSDOF 7
