REMARK  Name = ZINC40553861
REMARK  3 active torsions:
REMARK  status: ('A' for Active; 'I' for Inactive)
REMARK    1  A    between atoms: C_1  and  C_2
REMARK    2  A    between atoms: C_4  and  C_14
REMARK    3  A    between atoms: C_6  and  C_11
REMARK                            x       y       z     vdW  Elec       q    Type
REMARK                         _______ _______ _______ _____ _____    ______ ____
ROOT
ATOM      1  C   UNL     1      -2.113   1.165  -0.821  0.00  0.00    +0.070 C 
ATOM      2  C   UNL     1      -1.719  -0.283  -0.686  0.00  0.00    +0.091 A 
ATOM      3  C   UNL     1      -0.831  -1.026  -1.579  0.00  0.00    +0.076 A 
ATOM      4  C   UNL     1      -0.113  -0.695  -2.744  0.00  0.00    +0.053 A 
ATOM      5  C   UNL     1       0.652  -1.696  -3.343  0.00  0.00    +0.037 A 
ATOM      6  C   UNL     1       0.675  -2.960  -2.776  0.00  0.00    +0.049 A 
ATOM      7  N   UNL     1      -0.007  -3.240  -1.686  0.00  0.00    -0.215 NA
ATOM      8  C   UNL     1      -0.751  -2.334  -1.071  0.00  0.00    +0.259 A 
ATOM      9  O   UNL     1      -1.525  -2.373   0.033  0.00  0.00    -0.334 OA
ATOM     10  N   UNL     1      -2.102  -1.100   0.247  0.00  0.00    -0.080 NA
ENDROOT
BRANCH   4  11
ATOM     11  C   UNL     1      -0.168   0.669  -3.315  0.00  0.00    +0.248 C 
ATOM     12  O   UNL     1      -0.019   1.636  -2.593  0.00  0.00    -0.270 OA
ATOM     13  N   UNL     1      -0.384   0.840  -4.634  0.00  0.00    -0.290 N 
ATOM     14  C   UNL     1      -0.690  -0.302  -5.510  0.00  0.00    +0.136 C 
ATOM     15  C   UNL     1      -1.948   0.027  -6.321  0.00  0.00    +0.179 C 
ATOM     16  O   UNL     1      -1.784   1.297  -6.959  0.00  0.00    -0.373 OA
ATOM     17  C   UNL     1      -1.612   2.384  -6.050  0.00  0.00    +0.139 C 
ATOM     18  C   UNL     1      -0.328   2.179  -5.250  0.00  0.00    +0.105 C 
ATOM     19  C   UNL     1       0.875   2.222  -6.197  0.00  0.00    +0.025 C 
ATOM     20  C   UNL     1       0.910   3.565  -6.927  0.00  0.00    +0.002 C 
ATOM     21  C   UNL     1      -0.372   3.730  -7.746  0.00  0.00    +0.003 C 
ATOM     22  C   UNL     1      -1.550   3.707  -6.807  0.00  0.00    +0.033 C 
ENDBRANCH   4  11
BRANCH   6  23
ATOM     23  C   UNL     1       1.501  -4.041  -3.424  0.00  0.00    +0.038 C 
ATOM     24  C   UNL     1       1.961  -3.810  -4.865  0.00  0.00    +0.010 C 
ATOM     25  C   UNL     1       0.860  -4.830  -4.567  0.00  0.00    +0.010 C 
ENDBRANCH   6  23
TORSDOF 2
