REMARK  Name = ZINC02228188
REMARK  2 active torsions:
REMARK  status: ('A' for Active; 'I' for Inactive)
REMARK    1  A    between atoms: C_4  and  C_7
REMARK    2  A    between atoms: C_10  and  C_18
REMARK                            x       y       z     vdW  Elec       q    Type
REMARK                         _______ _______ _______ _____ _____    ______ ____
ROOT
ATOM      1  C   UNL     1       3.711  -0.707  -0.038  0.00  0.00    +0.106 C 
ATOM      2  C   UNL     1       4.019  -1.178  -1.464  0.00  0.00    +0.059 C 
ATOM      3  C   UNL     1       2.874  -2.061  -1.976  0.00  0.00    +0.145 C 
ATOM      4  N   UNL     1       2.569  -3.072  -0.963  0.00  0.00    -0.226 N 
ATOM      5  C   UNL     1       2.928  -2.979   0.340  0.00  0.00    +0.215 A 
ATOM      6  N   UNL     1       2.501  -4.049   0.954  0.00  0.00    -0.202 NA
ATOM      7  C   UNL     1       1.867  -4.841   0.082  0.00  0.00    +0.247 A 
ATOM      8  N   UNL     1       1.886  -4.280  -1.101  0.00  0.00    -0.156 NA
ATOM      9  N   UNL     1       3.630  -1.887   0.845  0.00  0.00    -0.307 N 
ATOM     10  H   UNL     1       4.044  -1.901   1.722  0.00  0.00    +0.149 HD
ENDROOT
BRANCH   3  11
ATOM     11  C   UNL     1       3.292  -2.736  -3.257  0.00  0.00    +0.012 A 
ATOM     12  C   UNL     1       4.387  -3.579  -3.269  0.00  0.00    +0.008 A 
ATOM     13  C   UNL     1       4.770  -4.198  -4.444  0.00  0.00    +0.001 A 
ATOM     14  C   UNL     1       4.059  -3.975  -5.608  0.00  0.00    +0.003 A 
ATOM     15  C   UNL     1       2.963  -3.133  -5.598  0.00  0.00    +0.039 A 
ATOM     16  C   UNL     1       2.575  -2.517  -4.421  0.00  0.00    +0.129 A 
ATOM     17  F   UNL     1       1.501  -1.697  -4.409  0.00  0.00    -0.205 F 
ENDBRANCH   3  11
BRANCH   1  21
ATOM     18  C   UNL     1      -0.017   1.378   0.010  0.00  0.00    +0.000 A 
ATOM     19  C   UNL     1       1.171   2.086   0.002  0.00  0.00    +0.000 A 
ATOM     20  C   UNL     1       2.377   1.411  -0.013  0.00  0.00    +0.005 A 
ATOM     21  C   UNL     1       2.396   0.029  -0.020  0.00  0.00    -0.027 A 
ATOM     22  C   UNL     1       1.208  -0.679  -0.012  0.00  0.00    +0.005 A 
ATOM     23  C   UNL     1       0.002  -0.004   0.002  0.00  0.00    +0.000 A 
ENDBRANCH   1  21
TORSDOF 2
