REMARK  Name = ZINC00494340
REMARK  7 active torsions:
REMARK  status: ('A' for Active; 'I' for Inactive)
REMARK    1  A    between atoms: C_1  and  C_2
REMARK    2  A    between atoms: C_9  and  N_23
REMARK    3  A    between atoms: C_10  and  C_21
REMARK    4  A    between atoms: C_14  and  C_17
REMARK    5  A    between atoms: C_17  and  C_18
REMARK    6  A    between atoms: C_17  and  C_19
REMARK    7  A    between atoms: C_17  and  C_20
REMARK                            x       y       z     vdW  Elec       q    Type
REMARK                         _______ _______ _______ _____ _____    ______ ____
ROOT
ATOM      1  C   UNL     1      -0.018   1.502   0.010  0.00  0.00    +0.068 C 
ATOM      2  C   UNL     1       0.002  -0.004   0.002  0.00  0.00    +0.067 A 
ATOM      3  C   UNL     1      -0.097  -0.876  -1.070  0.00  0.00    +0.048 A 
ATOM      4  C   UNL     1      -0.054  -2.143  -0.555  0.00  0.00    +0.222 A 
ATOM      5  N   UNL     1       0.087  -2.063   0.782  0.00  0.00    -0.246 N 
ATOM      6  H   UNL     1       0.150  -2.818   1.383  0.00  0.00    +0.192 HD
ATOM      7  N   UNL     1       0.120  -0.709   1.113  0.00  0.00    -0.176 NA
ATOM      8  O   UNL     1      -0.154  -3.277  -1.288  0.00  0.00    -0.423 OA
ATOM      9  C   UNL     1      -0.352  -3.141  -2.610  0.00  0.00    +0.200 C 
ATOM     10  C   UNL     1      -0.394  -1.952  -3.238  0.00  0.00    +0.097 C 
ATOM     11  C   UNL     1      -0.243  -0.600  -2.558  0.00  0.00    +0.042 C 
ATOM     12  C   UNL     1       1.024   0.024  -3.098  0.00  0.00    +0.017 C 
ATOM     13  C   UNL     1       1.054   1.541  -3.146  0.00  0.00    +0.005 C 
ATOM     14  C   UNL     1      -0.206   2.032  -3.866  0.00  0.00    -0.005 C 
ATOM     15  C   UNL     1      -1.414   1.668  -3.011  0.00  0.00    +0.005 C 
ATOM     16  C   UNL     1      -1.528   0.173  -2.790  0.00  0.00    +0.017 C 
ENDROOT
BRANCH  14  17
ATOM     17  C   UNL     1      -0.135   3.549  -4.048  0.00  0.00    -0.035 C 
ATOM     18  C   UNL     1       1.099   3.906  -4.880  0.00  0.00    +0.011 C 
ATOM     19  C   UNL     1      -1.394   4.037  -4.768  0.00  0.00    +0.011 C 
ATOM     20  C   UNL     1      -0.038   4.223  -2.678  0.00  0.00    +0.011 C 
ENDBRANCH  14  17
BRANCH   9  21
ATOM     21  N   UNL     1      -0.521  -4.282  -3.357  0.00  0.00    -0.328 N 
ATOM     22  H   UNL     1      -0.495  -5.151  -2.927  0.00  0.00    +0.145 HD
ATOM     23  H   UNL     1      -0.666  -4.218  -4.314  0.00  0.00    +0.145 HD
ENDBRANCH   9  21
BRANCH  10  24
ATOM     24  C   UNL     1      -0.590  -1.991  -4.663  0.00  0.00    +0.101 C 
ATOM     25  N   UNL     1      -0.745  -2.022  -5.788  0.00  0.00    -0.191 NA
ENDBRANCH  10  24
TORSDOF 3
