REMARK  Name = ZINC05908593
REMARK  7 active torsions:
REMARK  status: ('A' for Active; 'I' for Inactive)
REMARK    1  A    between atoms: C_1  and  C_2
REMARK    2  A    between atoms: C_2  and  C_3
REMARK    3  A    between atoms: C_9  and  C_10
REMARK    4  A    between atoms: C_9  and  N_48
REMARK    5  A    between atoms: C_11  and  C_23
REMARK    6  A    between atoms: C_15  and  O_22
REMARK    7  A    between atoms: C_17  and  C_21
REMARK                            x       y       z     vdW  Elec       q    Type
REMARK                         _______ _______ _______ _____ _____    ______ ____
ROOT
ATOM      1  C   UNL     1       1.285   1.793  -2.211  0.00  0.00    -0.013 A 
ATOM      2  C   UNL     1       2.414   1.224  -1.661  0.00  0.00    -0.042 A 
ATOM      3  C   UNL     1       3.646   1.848  -1.723  0.00  0.00    +0.050 A 
ATOM      4  C   UNL     1       3.792   3.077  -2.344  0.00  0.00    +0.143 A 
ATOM      5  O   UNL     1       4.995   3.684  -2.401  0.00  0.00    -0.425 OA
ATOM      6  C   UNL     1       5.143   4.872  -2.999  0.00  0.00    +0.285 A 
ATOM      7  C   UNL     1       4.069   5.526  -3.581  0.00  0.00    +0.091 A 
ATOM      8  C   UNL     1       2.812   4.948  -3.550  0.00  0.00    -0.029 A 
ATOM      9  C   UNL     1       2.665   3.701  -2.921  0.00  0.00    +0.067 A 
ATOM     10  C   UNL     1       1.367   3.031  -2.857  0.00  0.00    +0.191 A 
ATOM     11  O   UNL     1       0.372   3.545  -3.354  0.00  0.00    -0.287 OA
ATOM     12  C   UNL     1       1.629   5.639  -4.178  0.00  0.00    +0.045 C 
ATOM     13  C   UNL     1       2.302  -0.114  -0.975  0.00  0.00    +0.044 C 
ENDROOT
BRANCH   6  14
ATOM     14  O   UNL     1       6.361   5.445  -3.035  0.00  0.00    -0.480 OA
ATOM     15  H   UNL     1       6.594   6.028  -2.300  0.00  0.00    +0.295 HD
ENDBRANCH   6  14
BRANCH   1  16
ATOM     16  C   UNL     1      -0.038   1.078  -2.121  0.00  0.00    -0.038 C 
BRANCH  16  22
ATOM     17  C   UNL     1      -2.224   1.220  -1.090  0.00  0.00    -0.068 C 
ATOM     18  C   UNL     1      -3.028   1.923   0.006  0.00  0.00    -0.015 C 
ATOM     19  C   UNL     1      -2.455   1.545   1.375  0.00  0.00    -0.003 C 
ATOM     20  C   UNL     1      -0.975   1.932   1.425  0.00  0.00    -0.019 C 
ATOM     21  C   UNL     1      -0.230   1.229   0.288  0.00  0.00    -0.078 C 
ATOM     22  N   UNL     1      -0.813   1.654  -1.003  0.00  0.00    +0.384 N 
ATOM     23  H   UNL     1      -0.775   2.678  -1.064  0.00  0.00    -0.081 HD
BRANCH  17  25
ATOM     24  C   UNL     1      -4.233   1.146  -2.573  0.00  0.00    +0.002 C 
ATOM     25  C   UNL     1      -2.780   1.612  -2.460  0.00  0.00    -0.019 C 
ENDBRANCH  17  25
ENDBRANCH  16  22
ENDBRANCH   1  16
TORSDOF 4
