REMARK  Name = ZINC39479884
REMARK  3 active torsions:
REMARK  status: ('A' for Active; 'I' for Inactive)
REMARK    1  A    between atoms: C_1  and  N_2
REMARK    2  A    between atoms: C_12  and  O_21
REMARK    3  A    between atoms: O_21  and  C_22
REMARK                            x       y       z     vdW  Elec       q    Type
REMARK                         _______ _______ _______ _____ _____    ______ ____
ROOT
ATOM      1  C   UNL     1      -1.718   1.650   0.951  0.00  0.00    +0.137 C 
ATOM      2  N   UNL     1      -1.771   0.196   0.778  0.00  0.00    -0.284 N 
ATOM      3  C   UNL     1      -2.504  -0.462   1.740  0.00  0.00    +0.074 A 
ATOM      4  C   UNL     1      -2.548   0.122   2.990  0.00  0.00    -0.012 A 
ATOM      5  C   UNL     1      -3.542  -0.025   3.884  0.00  0.00    +0.044 A 
ATOM      6  C   UNL     1      -4.427  -1.085   3.640  0.00  0.00    +0.127 A 
ATOM      7  C   UNL     1      -4.237  -1.888   2.526  0.00  0.00    +0.078 A 
ATOM      8  C   UNL     1      -3.285  -1.594   1.561  0.00  0.00    +0.148 A 
ATOM      9  F   UNL     1      -3.123  -2.387   0.480  0.00  0.00    -0.203 F 
ATOM     10  F   UNL     1      -5.456  -1.322   4.484  0.00  0.00    -0.205 F 
ATOM     11  C   UNL     1      -1.094   0.486   3.437  0.00  0.00    +0.132 C 
ATOM     12  C   UNL     1      -0.355  -0.041   2.211  0.00  0.00    +0.194 C 
ATOM     13  N   UNL     1       0.241   0.654   1.299  0.00  0.00    -0.211 NA
ATOM     14  C   UNL     1       0.306   0.054   0.077  0.00  0.00    +0.144 A 
ATOM     15  C   UNL     1      -1.088  -0.264  -0.314  0.00  0.00    +0.156 A 
ATOM     16  N   UNL     1      -1.305  -0.829  -1.439  0.00  0.00    -0.218 NA
ATOM     17  C   UNL     1      -0.297  -1.134  -2.251  0.00  0.00    +0.225 A 
ATOM     18  N   UNL     1       0.959  -0.873  -1.945  0.00  0.00    -0.222 NA
ATOM     19  C   UNL     1       1.294  -0.283  -0.783  0.00  0.00    +0.160 A 
ATOM     20 CL   UNL     1       2.954   0.048  -0.397  0.00  0.00    -0.060 Cl
ENDROOT
BRANCH  12  21
ATOM     21  O   UNL     1      -0.320  -1.382   2.063  0.00  0.00    -0.482 OA
ATOM     22  C   UNL     1       0.967  -1.984   1.917  0.00  0.00    +0.278 C 
ENDBRANCH  12  21
TORSDOF 1
