REMARK  Name = ZINC21814355
REMARK  3 active torsions:
REMARK  status: ('A' for Active; 'I' for Inactive)
REMARK    1  A    between atoms: C_1  and  C_2
REMARK    2  A    between atoms: C_7  and  C_8
REMARK    3  A    between atoms: C_10  and  C_13
REMARK                            x       y       z     vdW  Elec       q    Type
REMARK                         _______ _______ _______ _____ _____    ______ ____
ROOT
ATOM      1  C   UNL     1       2.426   3.938   0.011  0.00  0.00    +0.203 A 
ATOM      2  N   UNL     1       3.670   3.416  -0.007  0.00  0.00    -0.187 NA
ATOM      3  C   UNL     1       4.489   4.456  -0.014  0.00  0.00    +0.261 A 
ATOM      4  O   UNL     1       3.719   5.557  -0.000  0.00  0.00    -0.332 OA
ATOM      5  N   UNL     1       2.548   5.241   0.008  0.00  0.00    -0.056 NA
ENDROOT
BRANCH   1  12
ATOM      6  C   UNL     1      -0.095   5.354   0.048  0.00  0.00    +0.044 C 
ATOM      7  C   UNL     1      -0.066   3.848   0.042  0.00  0.00    -0.040 A 
ATOM      8  C   UNL     1      -1.246   3.132   0.055  0.00  0.00    +0.004 A 
ATOM      9  C   UNL     1      -1.220   1.750   0.044  0.00  0.00    +0.000 A 
ATOM     10  C   UNL     1      -0.012   1.076   0.033  0.00  0.00    +0.001 A 
ATOM     11  C   UNL     1       1.174   1.781   0.020  0.00  0.00    +0.012 A 
ATOM     12  C   UNL     1       1.154   3.174   0.025  0.00  0.00    +0.025 A 
ENDBRANCH   1  12
BRANCH   3  13
ATOM     13  C   UNL     1       5.957   4.415  -0.032  0.00  0.00    +0.067 C 
ATOM     14  C   UNL     1       6.677   3.166  -0.044  0.00  0.00    -0.000 C 
ATOM     15  C   UNL     1       8.022   3.201  -0.059  0.00  0.00    +0.104 C 
ATOM     16  S   UNL     1       8.385   4.946  -0.055  0.00  0.00    -0.102 S 
ATOM     17  C   UNL     1       6.718   5.580  -0.039  0.00  0.00    +0.100 C 
ATOM     18  N   UNL     1       6.290   6.897  -0.035  0.00  0.00    -0.292 NA
ATOM     19  H   UNL     1       5.215   7.126  -0.025  0.00  0.00    +0.187 HD
ENDBRANCH   3  13
TORSDOF 2
