REMARK  Name = ZINC40398655
REMARK  4 active torsions:
REMARK  status: ('A' for Active; 'I' for Inactive)
REMARK    1  A    between atoms: C_1  and  N_2
REMARK    2  A    between atoms: N_2  and  C_3
REMARK    3  A    between atoms: N_2  and  N_4
REMARK    4  A    between atoms: N_17  and  C_20
REMARK                            x       y       z     vdW  Elec       q    Type
REMARK                         _______ _______ _______ _____ _____    ______ ____
ROOT
ATOM      1  N   UNL     1      -1.266  -0.511   0.011  0.00  0.00    -0.235 N 
ATOM      2  C   UNL     1      -2.091  -0.202   1.052  0.00  0.00    +0.114 A 
ATOM      3  C   UNL     1      -3.352  -0.659   1.136  0.00  0.00    +0.048 A 
ATOM      4  C   UNL     1      -3.879  -1.525   0.079  0.00  0.00    +0.078 A 
ATOM      5  C   UNL     1      -3.021  -1.847  -1.006  0.00  0.00    +0.067 A 
ATOM      6  C   UNL     1      -1.662  -1.295  -1.011  0.00  0.00    +0.277 A 
ATOM      7  O   UNL     1      -0.899  -1.546  -1.926  0.00  0.00    -0.265 OA
ATOM      8  C   UNL     1      -3.483  -2.667  -2.033  0.00  0.00    +0.030 A 
ATOM      9  C   UNL     1      -4.790  -3.140  -1.942  0.00  0.00    +0.066 A 
ATOM     10  C   UNL     1      -5.595  -2.779  -0.830  0.00  0.00    +0.078 A 
ATOM     11  N   UNL     1      -5.119  -1.994   0.128  0.00  0.00    -0.246 NA
ATOM     12  C   UNL     1      -6.963  -3.299  -0.777  0.00  0.00    +0.046 A 
ATOM     13  C   UNL     1      -7.410  -4.090  -1.766  0.00  0.00    +0.091 A 
ATOM     14  N   UNL     1      -6.639  -4.438  -2.835  0.00  0.00    -0.312 N 
ATOM     15  C   UNL     1      -5.368  -4.009  -2.973  0.00  0.00    +0.261 A 
ATOM     16  O   UNL     1      -4.708  -4.339  -3.941  0.00  0.00    -0.267 OA
ENDROOT
BRANCH  14  17
ATOM     17  C   UNL     1      -7.209  -5.305  -3.868  0.00  0.00    +0.090 C 
ATOM     18  C   UNL     1      -8.488  -4.666  -4.447  0.00  0.00    +0.025 C 
ATOM     19  C   UNL     1      -9.434  -5.868  -4.696  0.00  0.00    +0.002 C 
ATOM     20  C   UNL     1      -9.150  -6.783  -3.479  0.00  0.00    +0.002 C 
ATOM     21  C   UNL     1      -7.630  -6.651  -3.252  0.00  0.00    +0.025 C 
ENDBRANCH  14  17
BRANCH   1  23
ATOM     22  C   UNL     1      -0.018   1.465   0.010  0.00  0.00    +0.150 C 
ATOM     23  N   UNL     1       0.002  -0.004   0.002  0.00  0.00    -0.275 N 
ATOM     24  C   UNL     1       0.786  -0.526   1.129  0.00  0.00    +0.150 C 
ENDBRANCH   1  23
TORSDOF 2
