REMARK  Name = ZINC03667617
REMARK  8 active torsions:
REMARK  status: ('A' for Active; 'I' for Inactive)
REMARK    1  A    between atoms: C_1  and  C_2
REMARK    2  A    between atoms: C_2  and  C_3
REMARK    3  A    between atoms: C_3  and  N_4
REMARK    4  A    between atoms: C_8  and  C_9
REMARK    5  A    between atoms: C_11  and  C_24
REMARK    6  A    between atoms: N_12  and  C_15
REMARK    7  A    between atoms: C_13  and  C_14
REMARK    8  A    between atoms: C_18  and  N_21
REMARK                            x       y       z     vdW  Elec       q    Type
REMARK                         _______ _______ _______ _____ _____    ______ ____
ROOT
ATOM      1  C   UNL     1      -2.480   3.613  -4.950  0.00  0.00    -0.002 A 
ATOM      2  C   UNL     1      -3.400   2.485  -5.137  0.00  0.00    +0.031 A 
ATOM      3  C   UNL     1      -4.080   2.728  -6.271  0.00  0.00    +0.022 A 
ATOM      4  N   UNL     1      -3.651   3.909  -6.807  0.00  0.00    -0.317 N 
ATOM      5  C   UNL     1      -2.686   4.456  -6.024  0.00  0.00    +0.028 A 
ATOM      6  C   UNL     1      -1.966   5.755  -6.282  0.00  0.00    +0.064 C 
ATOM      7  C   UNL     1      -5.143   1.837  -6.860  0.00  0.00    +0.064 C 
ENDROOT
BRANCH   1  12
ATOM      8  N   UNL     1      -1.277   2.186  -0.673  0.00  0.00    -0.246 N 
ATOM      9  C   UNL     1      -0.732   3.033  -1.570  0.00  0.00    +0.269 C 
ATOM     10  O   UNL     1       0.319   3.638  -1.459  0.00  0.00    -0.268 OA
ATOM     11  C   UNL     1      -1.660   3.080  -2.706  0.00  0.00    +0.105 C 
ATOM     12  C   UNL     1      -1.529   3.803  -3.849  0.00  0.00    +0.040 C 
ATOM     13  N   UNL     1      -2.712   2.219  -2.359  0.00  0.00    -0.333 N 
ATOM     14  C   UNL     1      -2.438   1.707  -1.145  0.00  0.00    +0.153 C 
ATOM     15  S   UNL     1      -3.439   0.596  -0.313  0.00  0.00    -0.015 SA
ATOM     16  H   UNL     1      -3.635   1.930  -2.882  0.00  0.00    +0.168 HD
BRANCH   8  17
ATOM     17  C   UNL     1      -0.686   1.836   0.621  0.00  0.00    +0.116 C 
BRANCH  17  19
ATOM     18  C   UNL     1      -0.560   2.450   3.039  0.00  0.00    +0.005 C 
ATOM     19  C   UNL     1      -1.178   2.815   1.688  0.00  0.00    +0.016 C 
ENDBRANCH  17  19
ENDBRANCH   8  17
ENDBRANCH   1  12
BRANCH   4  20
ATOM     20  C   UNL     1      -4.135   4.474  -7.995  0.00  0.00    +0.047 A 
ATOM     21  C   UNL     1      -4.825   5.679  -7.961  0.00  0.00    +0.028 A 
ATOM     22  C   UNL     1      -5.296   6.236  -9.134  0.00  0.00    +0.035 A 
ATOM     23  C   UNL     1      -5.092   5.589 -10.339  0.00  0.00    +0.126 A 
ATOM     24  C   UNL     1      -4.410   4.387 -10.375  0.00  0.00    +0.035 A 
ATOM     25  C   UNL     1      -3.931   3.828  -9.207  0.00  0.00    +0.028 A 
BRANCH  23  26
ATOM     26  N   UNL     1      -5.604   6.186 -11.594  0.00  0.00    +0.056 N 
ATOM     27  O   UNL     1      -5.425   5.617 -12.656  0.00  0.00    -0.126 OA
ATOM     28  O   UNL     1      -6.205   7.245 -11.563  0.00  0.00    -0.126 OA
ENDBRANCH  23  26
ENDBRANCH   4  20
TORSDOF 5
