REMARK  Name = ZINC09861533
REMARK  2 active torsions:
REMARK  status: ('A' for Active; 'I' for Inactive)
REMARK    1  A    between atoms: N_8  and  C_12
REMARK    2  A    between atoms: C_12  and  C_13
REMARK                            x       y       z     vdW  Elec       q    Type
REMARK                         _______ _______ _______ _____ _____    ______ ____
ROOT
ATOM      1  C   UNL     1      -7.260   4.123  -2.458  0.00  0.00    +0.003 C 
ATOM      2  C   UNL     1      -6.577   5.508  -2.591  0.00  0.00    +0.003 C 
ATOM      3  C   UNL     1      -5.070   5.203  -2.440  0.00  0.00    +0.035 C 
ATOM      4  C   UNL     1      -4.889   3.733  -2.823  0.00  0.00    +0.113 C 
ATOM      5  C   UNL     1      -6.272   3.179  -3.190  0.00  0.00    +0.035 C 
ATOM      6  C   UNL     1      -4.275   2.941  -1.697  0.00  0.00    +0.247 C 
ATOM      7  O   UNL     1      -4.719   2.784  -0.580  0.00  0.00    -0.273 OA
ATOM      8  N   UNL     1      -3.122   2.445  -2.197  0.00  0.00    -0.224 N 
ATOM      9  C   UNL     1      -2.942   2.810  -3.473  0.00  0.00    +0.309 C 
ATOM     10  O   UNL     1      -1.980   2.483  -4.140  0.00  0.00    -0.252 OA
ATOM     11  N   UNL     1      -3.946   3.582  -3.934  0.00  0.00    -0.285 N 
ATOM     12  H   UNL     1      -4.029   3.961  -4.823  0.00  0.00    +0.151 HD
ENDROOT
BRANCH   8  13
ATOM     13  C   UNL     1      -2.189   1.606  -1.441  0.00  0.00    +0.124 C 
BRANCH  13  14
ATOM     14  C   UNL     1      -1.160   2.494  -0.739  0.00  0.00    +0.045 C 
ATOM     15  C   UNL     1      -1.145   2.486   0.792  0.00  0.00    +0.047 C 
ATOM     16  C   UNL     1      -0.022   1.799   0.012  0.00  0.00    +0.123 C 
ATOM     17 CL   UNL     1       0.002  -0.004   0.002  0.00  0.00    -0.101 Cl
ATOM     18 CL   UNL     1       1.593   2.598   0.001  0.00  0.00    -0.101 Cl
ENDBRANCH  13  14
ENDBRANCH   8  13
TORSDOF 2
