REMARK  Name = ZINC05717230
REMARK  4 active torsions:
REMARK  status: ('A' for Active; 'I' for Inactive)
REMARK    1  A    between atoms: C_4  and  N_20
REMARK    2  A    between atoms: C_5  and  C_7
REMARK    3  A    between atoms: C_7  and  C_8
REMARK    4  A    between atoms: N_10  and  C_11
REMARK                            x       y       z     vdW  Elec       q    Type
REMARK                         _______ _______ _______ _____ _____    ______ ____
ROOT
ATOM      1  C   UNL     1       1.464  -2.713   1.465  0.00  0.00    +0.222 C 
ATOM      2  O   UNL     1       1.405  -1.941   2.399  0.00  0.00    -0.275 OA
ATOM      3  N   UNL     1       1.612  -4.034   1.691  0.00  0.00    -0.284 N 
ATOM      4  H   UNL     1       1.732  -4.643   0.946  0.00  0.00    +0.155 HD
ENDROOT
BRANCH   3   5
ATOM      5  C   UNL     1       1.592  -4.526   3.002  0.00  0.00    +0.053 A 
ATOM      6  C   UNL     1       0.961  -3.805   4.006  0.00  0.00    +0.046 A 
ATOM      7  C   UNL     1       0.942  -4.293   5.299  0.00  0.00    +0.061 A 
ATOM      8  C   UNL     1       1.553  -5.501   5.593  0.00  0.00    +0.061 A 
ATOM      9  C   UNL     1       2.183  -6.222   4.594  0.00  0.00    +0.043 A 
ATOM     10  C   UNL     1       2.199  -5.740   3.298  0.00  0.00    +0.064 A 
ATOM     11 CL   UNL     1       2.982  -6.649   2.043  0.00  0.00    -0.082 Cl
ATOM     12 CL   UNL     1       1.529  -6.112   7.218  0.00  0.00    -0.082 Cl
ATOM     13 CL   UNL     1       0.154  -3.392   6.556  0.00  0.00    -0.082 Cl
ENDBRANCH   3   5
BRANCH   1  14
ATOM     14  C   UNL     1       1.371  -2.196   0.052  0.00  0.00    +0.133 C 
BRANCH  14  19
ATOM     15  C   UNL     1      -0.193   1.239  -0.030  0.00  0.00    +0.000 A 
ATOM     16  C   UNL     1       0.916   2.051   0.116  0.00  0.00    +0.002 A 
ATOM     17  C   UNL     1       2.173   1.489   0.241  0.00  0.00    +0.033 A 
ATOM     18  C   UNL     1       2.320   0.114   0.220  0.00  0.00    +0.130 A 
ATOM     19  C   UNL     1       1.211  -0.698   0.076  0.00  0.00    -0.008 A 
ATOM     20  C   UNL     1      -0.046  -0.135  -0.051  0.00  0.00    +0.006 A 
BRANCH  18  21
ATOM     21  N   UNL     1       3.666  -0.488   0.353  0.00  0.00    +0.057 N 
ATOM     22  O   UNL     1       4.645   0.220   0.381  0.00  0.00    -0.126 OA
ATOM     23  O   UNL     1       3.785  -1.688   0.434  0.00  0.00    -0.126 OA
ENDBRANCH  18  21
ENDBRANCH  14  19
ENDBRANCH   1  14
TORSDOF 4
