REMARK  Name = ZINC15675601
REMARK  6 active torsions:
REMARK  status: ('A' for Active; 'I' for Inactive)
REMARK    1  A    between atoms: C_1  and  C_2
REMARK    2  A    between atoms: C_2  and  C_3
REMARK    3  A    between atoms: C_2  and  N_4
REMARK    4  A    between atoms: C_13  and  C_14
REMARK    5  A    between atoms: C_13  and  C_15
REMARK    6  A    between atoms: N_17  and  C_18
REMARK                            x       y       z     vdW  Elec       q    Type
REMARK                         _______ _______ _______ _____ _____    ______ ____
ROOT
ATOM      1  N   UNL     1      -3.948   1.894   0.097  0.00  0.00    -0.278 N 
ATOM      2  C   UNL     1      -3.249   0.752   0.297  0.00  0.00    +0.264 C 
ATOM      3  O   UNL     1      -3.789  -0.272   0.672  0.00  0.00    -0.268 OA
ATOM      4  C   UNL     1      -1.806   0.814   0.036  0.00  0.00    +0.109 A 
ATOM      5  C   UNL     1      -0.871  -0.175  -0.034  0.00  0.00    +0.079 A 
ATOM      6  C   UNL     1       0.364   0.429  -0.312  0.00  0.00    +0.153 A 
ATOM      7  C   UNL     1       0.149   1.805  -0.401  0.00  0.00    +0.088 A 
ATOM      8  N   UNL     1      -1.173   2.038  -0.172  0.00  0.00    -0.331 N 
ATOM      9  C   UNL     1      -1.913   3.303  -0.125  0.00  0.00    +0.157 C 
ATOM     10  C   UNL     1      -3.358   3.055  -0.559  0.00  0.00    +0.129 C 
ATOM     11  C   UNL     1      -4.194   4.292  -0.225  0.00  0.00    +0.043 C 
ATOM     12  C   UNL     1       1.410   2.381  -0.688  0.00  0.00    +0.067 A 
ATOM     13  C   UNL     1       2.301   1.377  -0.758  0.00  0.00    +0.198 A 
ATOM     14  O   UNL     1       1.677   0.208  -0.532  0.00  0.00    -0.461 OA
ENDROOT
BRANCH  10  15
ATOM     15  C   UNL     1      -3.385   2.838  -2.051  0.00  0.00    +0.238 C 
ATOM     16  O   UNL     1      -3.566   3.777  -2.797  0.00  0.00    -0.273 OA
ATOM     17  N   UNL     1      -3.210   1.601  -2.555  0.00  0.00    -0.311 N 
ATOM     18  H   UNL     1      -3.066   0.850  -1.958  0.00  0.00    +0.149 HD
BRANCH  17  19
ATOM     19  C   UNL     1      -3.237   1.389  -4.004  0.00  0.00    +0.073 C 
ATOM     20  C   UNL     1      -4.685   1.213  -4.467  0.00  0.00    +0.022 C 
ATOM     21  C   UNL     1      -4.760   1.391  -5.985  0.00  0.00    +0.002 C 
ATOM     22  C   UNL     1      -3.921   2.600  -6.400  0.00  0.00    +0.000 C 
ATOM     23  C   UNL     1      -2.718   2.130  -7.220  0.00  0.00    +0.000 C 
ATOM     24  C   UNL     1      -1.671   1.521  -6.285  0.00  0.00    +0.000 C 
ATOM     25  C   UNL     1      -2.124   0.126  -5.850  0.00  0.00    +0.002 C 
ATOM     26  C   UNL     1      -2.434   0.134  -4.352  0.00  0.00    +0.022 C 
ENDBRANCH  17  19
ENDBRANCH  10  15
BRANCH   1  28
ATOM     27  C   UNL     1      -6.188   0.972  -0.239  0.00  0.00    +0.028 C 
ATOM     28  C   UNL     1      -5.338   1.966   0.554  0.00  0.00    +0.071 C 
ATOM     29  C   UNL     1      -5.404   1.620   2.043  0.00  0.00    +0.028 C 
ENDBRANCH   1  28
TORSDOF 3
