REMARK  Name = ZINC00115423
REMARK  6 active torsions:
REMARK  status: ('A' for Active; 'I' for Inactive)
REMARK    1  A    between atoms: C_1  and  C_2
REMARK    2  A    between atoms: C_2  and  C_3
REMARK    3  A    between atoms: C_5  and  C_18
REMARK    4  A    between atoms: C_6  and  N_17
REMARK    5  A    between atoms: C_13  and  C_15
REMARK    6  A    between atoms: C_13  and  C_16
REMARK                            x       y       z     vdW  Elec       q    Type
REMARK                         _______ _______ _______ _____ _____    ______ ____
ROOT
ATOM      1  C   UNL     1       0.718  -0.497  -1.257  0.00  0.00    +0.071 C 
ATOM      2  C   UNL     1      -0.073  -0.095  -2.469  0.00  0.00    +0.094 C 
ATOM      3  C   UNL     1      -0.848  -1.000  -3.117  0.00  0.00    +0.198 C 
ATOM      4  O   UNL     1      -0.929  -2.272  -2.692  0.00  0.00    -0.445 OA
ATOM      5  C   UNL     1       0.038  -2.792  -1.913  0.00  0.00    +0.115 C 
ATOM      6  C   UNL     1       0.853  -2.000  -1.199  0.00  0.00    +0.041 C 
ATOM      7  C   UNL     1       1.855  -2.545  -0.373  0.00  0.00    +0.164 C 
ATOM      8  O   UNL     1       2.585  -1.799   0.250  0.00  0.00    -0.292 OA
ATOM      9  C   UNL     1       2.039  -4.032  -0.249  0.00  0.00    +0.086 C 
ATOM     10  C   UNL     1       0.693  -4.721  -0.498  0.00  0.00    -0.021 C 
ATOM     11  C   UNL     1       0.184  -4.295  -1.867  0.00  0.00    +0.081 C 
ATOM     12  C   UNL     1      -0.307  -4.301   0.581  0.00  0.00    +0.012 C 
ATOM     13  C   UNL     1       0.879  -6.239  -0.469  0.00  0.00    +0.012 C 
ENDROOT
BRANCH   3  14
ATOM     14  N   UNL     1      -1.561  -0.610  -4.223  0.00  0.00    -0.328 N 
ATOM     15  H   UNL     1      -1.508   0.307  -4.535  0.00  0.00    +0.145 HD
ATOM     16  H   UNL     1      -2.118  -1.251  -4.692  0.00  0.00    +0.145 HD
ENDBRANCH   3  14
BRANCH   1  18
ATOM     17  C   UNL     1      -0.019   1.526   0.010  0.00  0.00    +0.005 C 
ATOM     18  C   UNL     1       0.002  -0.004   0.002  0.00  0.00    +0.010 C 
ENDBRANCH   1  18
BRANCH   2  19
ATOM     19  C   UNL     1      -0.009   1.254  -2.945  0.00  0.00    +0.100 C 
ATOM     20  N   UNL     1       0.043   2.324  -3.321  0.00  0.00    -0.191 NA
ENDBRANCH   2  19
TORSDOF 3
