REMARK  Name = ZINC21808715
REMARK  9 active torsions:
REMARK  status: ('A' for Active; 'I' for Inactive)
REMARK    1  A    between atoms: C_1  and  C_2
REMARK    2  A    between atoms: N_8  and  C_9
REMARK    3  A    between atoms: C_9  and  C_10
REMARK    4  A    between atoms: C_10  and  C_11
REMARK    5  A    between atoms: C_11  and  N_12
REMARK    6  A    between atoms: C_21  and  C_22
REMARK    7  A    between atoms: C_21  and  C_23
REMARK    8  A    between atoms: N_25  and  C_26
REMARK    9  A    between atoms: C_29  and  C_32
REMARK                            x       y       z     vdW  Elec       q    Type
REMARK                         _______ _______ _______ _____ _____    ______ ____
ROOT
ATOM      1  N   UNL     1       1.277  -0.121   6.375  0.00  0.00    -0.281 N 
ATOM      2  C   UNL     1       1.242  -1.298   7.043  0.00  0.00    +0.264 C 
ATOM      3  O   UNL     1       0.369  -2.123   6.846  0.00  0.00    -0.268 OA
ATOM      4  C   UNL     1       2.316  -1.524   8.019  0.00  0.00    +0.106 A 
ATOM      5  C   UNL     1       2.662  -2.646   8.713  0.00  0.00    +0.048 A 
ATOM      6  C   UNL     1       3.766  -2.321   9.492  0.00  0.00    +0.038 A 
ATOM      7  C   UNL     1       4.108  -0.976   9.283  0.00  0.00    +0.057 A 
ATOM      8  N   UNL     1       3.187  -0.498   8.369  0.00  0.00    -0.333 N 
ATOM      9  C   UNL     1       3.058   0.851   7.812  0.00  0.00    +0.157 C 
ATOM     10  C   UNL     1       2.441   0.756   6.413  0.00  0.00    +0.128 C 
ATOM     11  C   UNL     1       3.493   0.223   5.439  0.00  0.00    +0.043 C 
ATOM     12  C   UNL     1       5.216  -0.512  10.008  0.00  0.00    +0.034 A 
ATOM     13  C   UNL     1       5.875  -1.341  10.844  0.00  0.00    +0.048 A 
ATOM     14  S   UNL     1       4.972  -2.871  10.671  0.00  0.00    -0.095 S 
ENDROOT
BRANCH  10  15
ATOM     15  C   UNL     1       2.025   2.135   5.970  0.00  0.00    +0.238 C 
ATOM     16  O   UNL     1       2.691   2.736   5.153  0.00  0.00    -0.273 OA
ATOM     17  N   UNL     1       0.914   2.701   6.481  0.00  0.00    -0.311 N 
ATOM     18  H   UNL     1       0.421   2.252   7.186  0.00  0.00    +0.149 HD
BRANCH  17  19
ATOM     19  C   UNL     1       0.451   3.995   5.973  0.00  0.00    +0.073 C 
ATOM     20  C   UNL     1       1.206   5.121   6.681  0.00  0.00    +0.022 C 
ATOM     21  C   UNL     1       0.946   5.042   8.187  0.00  0.00    +0.005 C 
ATOM     22  C   UNL     1      -0.553   5.187   8.454  0.00  0.00    -0.014 C 
ATOM     23  C   UNL     1      -1.309   4.061   7.746  0.00  0.00    +0.005 C 
ATOM     24  C   UNL     1      -1.049   4.140   6.240  0.00  0.00    +0.022 C 
ATOM     25  C   UNL     1      -0.813   5.108   9.959  0.00  0.00    +0.007 C 
ENDBRANCH  17  19
ENDBRANCH  10  15
BRANCH   1  26
ATOM     26  C   UNL     1       0.111   0.280   5.584  0.00  0.00    +0.107 C 
BRANCH  26  27
ATOM     27  C   UNL     1       0.219  -0.314   4.178  0.00  0.00    +0.000 C 
BRANCH  27  28
ATOM     28  C   UNL     1      -1.056  -0.001   3.393  0.00  0.00    -0.077 C 
BRANCH  28  35
ATOM     29  C   UNL     1      -2.237   1.309   1.208  0.00  0.00    -0.013 C 
ATOM     30  C   UNL     1      -2.144  -0.217   1.268  0.00  0.00    -0.072 C 
ATOM     31  C   UNL     1      -2.018  -0.776  -0.151  0.00  0.00    -0.016 C 
ATOM     32  C   UNL     1      -1.926  -2.303  -0.086  0.00  0.00    -0.003 C 
ATOM     33  C   UNL     1      -0.740  -2.696   0.800  0.00  0.00    -0.019 C 
ATOM     34  C   UNL     1      -0.914  -2.066   2.184  0.00  0.00    -0.078 C 
ATOM     35  N   UNL     1      -0.968  -0.604   2.056  0.00  0.00    +0.381 N 
ATOM     36  H   UNL     1      -0.133  -0.276   1.595  0.00  0.00    -0.081 HD
ENDBRANCH  28  35
ENDBRANCH  27  28
ENDBRANCH  26  27
ENDBRANCH   1  26
TORSDOF 6
