REMARK  Name = ZINC39315527
REMARK  5 active torsions:
REMARK  status: ('A' for Active; 'I' for Inactive)
REMARK    1  A    between atoms: C_1  and  C_2
REMARK    2  A    between atoms: C_2  and  C_3
REMARK    3  A    between atoms: C_5  and  C_17
REMARK    4  A    between atoms: C_7  and  C_15
REMARK    5  A    between atoms: C_8  and  N_14
REMARK                            x       y       z     vdW  Elec       q    Type
REMARK                         _______ _______ _______ _____ _____    ______ ____
ROOT
ATOM      1  C   UNL     1       0.405  -0.946   0.961  0.00  0.00    +0.069 C 
ATOM      2  C   UNL     1      -0.142  -1.145   2.136  0.00  0.00    +0.030 C 
ATOM      3  C   UNL     1      -1.510  -0.879   2.701  0.00  0.00    +0.098 C 
ATOM      4  C   UNL     1      -1.274  -0.318   4.091  0.00  0.00    +0.097 C 
ATOM      5  C   UNL     1      -0.049  -0.312   4.655  0.00  0.00    +0.195 C 
ATOM      6  O   UNL     1       1.095  -0.749   4.098  0.00  0.00    -0.448 OA
ATOM      7  C   UNL     1       0.989  -1.679   3.016  0.00  0.00    +0.343 C 
ATOM      8  N   UNL     1       2.139  -1.609   2.110  0.00  0.00    -0.138 NA
ATOM      9  N   UNL     1       1.732  -1.228   1.005  0.00  0.00    -0.155 NA
ENDROOT
BRANCH   3  10
ATOM     10  C   UNL     1      -2.240   0.125   1.848  0.00  0.00    -0.032 A 
ATOM     11  C   UNL     1      -1.797   1.434   1.789  0.00  0.00    +0.007 A 
ATOM     12  C   UNL     1      -2.465   2.357   1.007  0.00  0.00    +0.041 A 
ATOM     13  C   UNL     1      -3.579   1.972   0.281  0.00  0.00    +0.158 A 
ATOM     14  C   UNL     1      -4.023   0.660   0.339  0.00  0.00    +0.159 A 
ATOM     15  C   UNL     1      -3.349  -0.264   1.120  0.00  0.00    +0.046 A 
ATOM     16  F   UNL     1      -5.110   0.282  -0.368  0.00  0.00    -0.202 F 
ATOM     17  F   UNL     1      -4.232   2.874  -0.484  0.00  0.00    -0.202 F 
ENDBRANCH   3  10
BRANCH   5  18
ATOM     18  N   UNL     1       0.041   0.193   5.928  0.00  0.00    -0.329 N 
ATOM     19  H   UNL     1      -0.754   0.522   6.376  0.00  0.00    +0.145 HD
ATOM     20  H   UNL     1       0.899   0.220   6.379  0.00  0.00    +0.145 HD
ENDBRANCH   5  18
BRANCH   1  22
ATOM     21  C   UNL     1      -0.866  -1.687  -1.036  0.00  0.00    +0.010 C 
ATOM     22  C   UNL     1      -0.336  -0.476  -0.265  0.00  0.00    +0.054 C 
ENDBRANCH   1  22
BRANCH   4  23
ATOM     23  C   UNL     1      -2.382   0.219   4.824  0.00  0.00    +0.101 C 
ATOM     24  N   UNL     1      -3.260   0.646   5.404  0.00  0.00    -0.191 NA
ENDBRANCH   4  23
TORSDOF 4
