REMARK  Name = ZINC31863129
REMARK  3 active torsions:
REMARK  status: ('A' for Active; 'I' for Inactive)
REMARK    1  A    between atoms: C_6  and  C_7
REMARK    2  A    between atoms: C_8  and  C_9
REMARK    3  A    between atoms: C_17  and  N_18
REMARK                            x       y       z     vdW  Elec       q    Type
REMARK                         _______ _______ _______ _____ _____    ______ ____
ROOT
ATOM      1  C   UNL     1       2.423   1.051  -0.015  0.00  0.00    +0.161 A 
ATOM      2  N   UNL     1       2.589  -0.262  -0.018  0.00  0.00    -0.129 NA
ATOM      3  N   UNL     1       3.844  -0.547  -0.037  0.00  0.00    -0.127 NA
ATOM      4  C   UNL     1       4.559   0.569  -0.038  0.00  0.00    +0.182 A 
ATOM      5  N   UNL     1       3.673   1.617  -0.024  0.00  0.00    -0.280 N 
ATOM      6  C   UNL     1       4.121   2.905  -0.022  0.00  0.00    +0.114 A 
ATOM      7  C   UNL     1       5.447   3.173  -0.033  0.00  0.00    +0.059 A 
ATOM      8  C   UNL     1       6.382   2.126  -0.047  0.00  0.00    +0.048 A 
ATOM      9  C   UNL     1       5.947   0.829  -0.050  0.00  0.00    +0.071 A 
ATOM     10 CL   UNL     1       5.994   4.820  -0.030  0.00  0.00    -0.082 Cl
ENDROOT
BRANCH   9  11
ATOM     11  N   UNL     1       6.862  -0.224  -0.063  0.00  0.00    -0.355 N 
ATOM     12  H   UNL     1       7.942  -0.013  -0.072  0.00  0.00    +0.142 HD
ATOM     13  H   UNL     1       6.505  -1.264  -0.065  0.00  0.00    +0.142 HD
ENDBRANCH   9  11
BRANCH   1  15
ATOM     14  C   UNL     1      -0.013   1.076   0.008  0.00  0.00    +0.011 C 
ATOM     15  C   UNL     1       1.146   1.766   0.001  0.00  0.00    +0.049 C 
BRANCH  14  21
ATOM     16  C   UNL     1      -1.320   3.193   0.031  0.00  0.00    +0.009 A 
ATOM     17  C   UNL     1      -2.527   3.859   0.035  0.00  0.00    +0.020 A 
ATOM     18  C   UNL     1      -3.715   3.147   0.037  0.00  0.00    +0.041 A 
ATOM     19  C   UNL     1      -3.700   1.762   0.029  0.00  0.00    +0.020 A 
ATOM     20  C   UNL     1      -2.501   1.082   0.020  0.00  0.00    +0.009 A 
ATOM     21  C   UNL     1      -1.297   1.794   0.018  0.00  0.00    -0.025 A 
ATOM     22 CL   UNL     1      -5.230   3.994   0.048  0.00  0.00    -0.084 Cl
ENDBRANCH  14  21
ENDBRANCH   1  15
TORSDOF 3
