REMARK  Name = ZINC54910644
REMARK  4 active torsions:
REMARK  status: ('A' for Active; 'I' for Inactive)
REMARK    1  A    between atoms: C_1  and  C_2
REMARK    2  A    between atoms: C_15  and  C_17
REMARK    3  A    between atoms: C_17  and  C_19
REMARK    4  A    between atoms: C_17  and  O_20
REMARK                            x       y       z     vdW  Elec       q    Type
REMARK                         _______ _______ _______ _____ _____    ______ ____
ROOT
ATOM      1  C   UNL     1       0.087   1.503  -0.015  0.00  0.00    +0.044 C 
ATOM      2  C   UNL     1       0.079  -0.004  -0.017  0.00  0.00    -0.050 A 
ATOM      3  C   UNL     1       0.083  -0.692  -1.216  0.00  0.00    +0.005 A 
ATOM      4  C   UNL     1       0.074  -2.073  -1.217  0.00  0.00    +0.024 A 
ATOM      5  C   UNL     1       0.063  -2.770  -0.014  0.00  0.00    +0.039 A 
ATOM      6  C   UNL     1       0.062  -2.079   1.188  0.00  0.00    -0.026 A 
ATOM      7  C   UNL     1       0.074  -0.694   1.180  0.00  0.00    +0.008 A 
ATOM      8  C   UNL     1       0.061  -2.800   2.510  0.00  0.00    +0.038 C 
ATOM      9  C   UNL     1      -0.446  -4.232   2.338  0.00  0.00    +0.024 C 
ATOM     10  C   UNL     1       0.339  -4.903   1.203  0.00  0.00    +0.113 C 
ATOM     11  N   UNL     1       0.050  -4.169  -0.037  0.00  0.00    -0.279 N 
ATOM     12  C   UNL     1      -0.231  -4.852  -1.211  0.00  0.00    +0.165 A 
ATOM     13  N   UNL     1      -0.617  -4.363  -2.370  0.00  0.00    -0.233 NA
ATOM     14  C   UNL     1      -0.846  -5.154  -3.402  0.00  0.00    +0.126 A 
ATOM     15  C   UNL     1      -0.665  -6.483  -3.212  0.00  0.00    +0.039 A 
ATOM     16  S   UNL     1      -0.154  -6.508  -1.501  0.00  0.00    -0.054 S 
ENDROOT
BRANCH  15  17
ATOM     17  C   UNL     1      -0.841  -7.625  -4.179  0.00  0.00    +0.150 C 
ATOM     18  C   UNL     1       0.439  -7.802  -4.998  0.00  0.00    +0.043 C 
BRANCH  17  19
ATOM     19  O   UNL     1      -1.933  -7.343  -5.056  0.00  0.00    -0.387 OA
ATOM     20  H   UNL     1      -2.104  -8.037  -5.707  0.00  0.00    +0.210 HD
ENDBRANCH  17  19
ENDBRANCH  15  17
TORSDOF 2
