REMARK  Name = ZINC39950403
REMARK  7 active torsions:
REMARK  status: ('A' for Active; 'I' for Inactive)
REMARK    1  A    between atoms: C_1  and  O_2
REMARK    2  A    between atoms: O_2  and  C_3
REMARK    3  A    between atoms: C_6  and  C_9
REMARK    4  A    between atoms: C_13  and  C_16
REMARK    5  A    between atoms: C_17  and  N_33
REMARK    6  A    between atoms: N_18  and  N_22
REMARK    7  A    between atoms: C_23  and  C_24
REMARK                            x       y       z     vdW  Elec       q    Type
REMARK                         _______ _______ _______ _____ _____    ______ ____
ROOT
ATOM      1  C   UNL     1       2.090  -4.915  -6.872  0.00  0.00    +0.060 C 
ATOM      2  C   UNL     1       1.631  -6.072  -7.451  0.00  0.00    +0.113 C 
ATOM      3  N   UNL     1       1.363  -5.899  -8.783  0.00  0.00    -0.203 N 
ATOM      4  C   UNL     1       1.673  -4.501  -9.118  0.00  0.00    +0.212 C 
ATOM      5  C   UNL     1       2.145  -3.891  -7.816  0.00  0.00    +0.184 C 
ATOM      6  O   UNL     1       2.502  -2.742  -7.631  0.00  0.00    -0.290 OA
ENDROOT
BRANCH   1  10
ATOM      7  C   UNL     1       2.505  -2.503  -4.381  0.00  0.00    +0.095 C 
ATOM      8  C   UNL     1       3.948  -2.923  -3.977  0.00  0.00    +0.094 C 
ATOM      9  S   UNL     1       4.226  -4.221  -5.264  0.00  0.00    -0.135 S 
ATOM     10  C   UNL     1       2.474  -4.771  -5.422  0.00  0.00    +0.150 C 
ATOM     11  N   UNL     1       1.719  -3.672  -4.783  0.00  0.00    -0.293 NA
ATOM     12  H   UNL     1       1.162  -4.014  -4.015  0.00  0.00    +0.124 HD
BRANCH   7  16
ATOM     13  C   UNL     1       0.606  -0.607  -1.056  0.00  0.00    +0.120 A 
ATOM     14  C   UNL     1       1.173   0.161  -2.062  0.00  0.00    +0.046 A 
ATOM     15  C   UNL     1       1.786  -0.455  -3.136  0.00  0.00    +0.009 A 
ATOM     16  C   UNL     1       1.835  -1.835  -3.209  0.00  0.00    -0.029 A 
ATOM     17  C   UNL     1       1.270  -2.602  -2.207  0.00  0.00    +0.009 A 
ATOM     18  C   UNL     1       0.661  -1.992  -1.128  0.00  0.00    +0.046 A 
BRANCH  13  20
ATOM     19  C   UNL     1      -0.017   1.425   0.010  0.00  0.00    +0.277 C 
ATOM     20  O   UNL     1       0.002  -0.004   0.002  0.00  0.00    -0.495 OA
ENDBRANCH  13  20
ENDBRANCH   7  16
ENDBRANCH   1  10
BRANCH   2  21
ATOM     21  N   UNL     1       1.462  -7.253  -6.780  0.00  0.00    -0.345 N 
ATOM     22  H   UNL     1       1.671  -7.308  -5.834  0.00  0.00    +0.144 HD
ATOM     23  H   UNL     1       1.132  -8.035  -7.250  0.00  0.00    +0.144 HD
ENDBRANCH   2  21
BRANCH   3  24
ATOM     24  N   UNL     1       0.883  -6.875  -9.665  0.00  0.00    -0.186 NA
ATOM     25  C   UNL     1       0.668  -6.574 -10.923  0.00  0.00    +0.136 C 
BRANCH  25  26
ATOM     26  C   UNL     1       0.188  -7.550 -11.804  0.00  0.00    +0.000 C 
ATOM     27  C   UNL     1      -0.085  -7.398 -13.163  0.00  0.00    +0.004 A 
ATOM     28  C   UNL     1       0.019  -6.296 -14.039  0.00  0.00    +0.010 A 
ATOM     29  C   UNL     1      -0.325  -6.439 -15.344  0.00  0.00    +0.001 A 
ATOM     30  C   UNL     1      -0.785  -7.657 -15.851  0.00  0.00    +0.002 A 
ATOM     31  C   UNL     1      -0.911  -8.756 -15.068  0.00  0.00    +0.026 A 
ATOM     32  C   UNL     1      -0.570  -8.684 -13.692  0.00  0.00    +0.043 A 
ATOM     33  N   UNL     1      -0.602  -9.592 -12.738  0.00  0.00    -0.380 N 
ATOM     34  C   UNL     1      -0.136  -8.993 -11.484  0.00  0.00    +0.150 C 
ATOM     35  H   UNL     1      -0.887 -10.512 -12.848  0.00  0.00    +0.160 HD
ENDBRANCH  25  26
ENDBRANCH   3  24
TORSDOF 6
