REMARK  Name = ZINC46385635
REMARK  6 active torsions:
REMARK  status: ('A' for Active; 'I' for Inactive)
REMARK    1  A    between atoms: C_1  and  C_2
REMARK    2  A    between atoms: C_3  and  C_8
REMARK    3  A    between atoms: N_6  and  C_7
REMARK    4  A    between atoms: N_10  and  C_11
REMARK    5  A    between atoms: C_11  and  C_13
REMARK    6  A    between atoms: C_11  and  C_14
REMARK                            x       y       z     vdW  Elec       q    Type
REMARK                         _______ _______ _______ _____ _____    ______ ____
ROOT
ATOM      1  C   UNL     1      -0.010  -0.835  -4.912  0.00  0.00    +0.100 C 
ATOM      2  C   UNL     1       1.421  -0.540  -5.367  0.00  0.00    +0.033 C 
ENDROOT
BRANCH   1   3
ATOM      3  C   UNL     1      -0.600  -1.919  -5.777  0.00  0.00    -0.025 A 
ATOM      4  C   UNL     1      -0.290  -3.243  -5.530  0.00  0.00    +0.009 A 
ATOM      5  C   UNL     1      -0.828  -4.244  -6.319  0.00  0.00    +0.048 A 
ATOM      6  C   UNL     1      -1.679  -3.918  -7.360  0.00  0.00    +0.142 A 
ATOM      7  C   UNL     1      -1.990  -2.583  -7.611  0.00  0.00    +0.076 A 
ATOM      8  C   UNL     1      -1.453  -1.586  -6.813  0.00  0.00    +0.032 A 
ATOM      9  N   UNL     1      -2.851  -2.267  -8.671  0.00  0.00    -0.280 N 
ATOM     10  C   UNL     1      -3.601  -3.247  -9.219  0.00  0.00    +0.255 C 
ATOM     11  O   UNL     1      -4.330  -3.004 -10.158  0.00  0.00    -0.272 OA
ATOM     12  C   UNL     1      -3.528  -4.646  -8.661  0.00  0.00    +0.325 C 
ATOM     13  O   UNL     1      -2.217  -4.889  -8.145  0.00  0.00    -0.481 OA
ATOM     14  H   UNL     1      -2.908  -1.358  -9.005  0.00  0.00    +0.155 HD
ENDBRANCH   1   3
BRANCH   1  17
ATOM     15  C   UNL     1      -0.005  -0.369  -2.520  0.00  0.00    +0.248 C 
ATOM     16  O   UNL     1      -0.023   0.818  -2.781  0.00  0.00    -0.270 OA
ATOM     17  N   UNL     1       0.003  -1.278  -3.516  0.00  0.00    -0.305 N 
ATOM     18  H   UNL     1       0.017  -2.225  -3.308  0.00  0.00    +0.150 HD
BRANCH  15  21
ATOM     19  C   UNL     1      -0.018   1.503   0.010  0.00  0.00    +0.066 C 
ATOM     20  C   UNL     1       0.002  -0.004   0.002  0.00  0.00    +0.048 A 
ATOM     21  C   UNL     1       0.008  -0.815  -1.115  0.00  0.00    +0.077 A 
ATOM     22  C   UNL     1       0.029  -2.152  -0.660  0.00  0.00    +0.147 A 
ATOM     23  N   UNL     1       0.035  -2.134   0.645  0.00  0.00    -0.179 NA
ATOM     24  N   UNL     1       0.024  -0.804   1.080  0.00  0.00    -0.271 N 
ATOM     25  C   UNL     1       0.031  -0.360   2.476  0.00  0.00    +0.172 C 
ENDBRANCH  15  21
ENDBRANCH   1  17
TORSDOF 3
