REMARK  Name = ZINC04944171
REMARK  4 active torsions:
REMARK  status: ('A' for Active; 'I' for Inactive)
REMARK    1  A    between atoms: C_2  and  C_3
REMARK    2  A    between atoms: C_3  and  S_4
REMARK    3  A    between atoms: S_4  and  C_5
REMARK    4  A    between atoms: C_17  and  C_19
REMARK                            x       y       z     vdW  Elec       q    Type
REMARK                         _______ _______ _______ _____ _____    ______ ____
ROOT
ATOM      1  C   UNL     1       2.291   4.049   0.367  0.00  0.00    +0.172 A 
ATOM      2  N   UNL     1       3.477   3.494  -0.009  0.00  0.00    -0.302 N 
ATOM      3  H   UNL     1       4.311   4.047  -0.004  0.00  0.00    +0.171 HD
ATOM      4  C   UNL     1       3.528   2.200  -0.390  0.00  0.00    +0.258 A 
ATOM      5  O   UNL     1       4.585   1.691  -0.730  0.00  0.00    -0.267 OA
ATOM      6  C   UNL     1       2.346   1.454  -0.388  0.00  0.00    +0.065 A 
ATOM      7  C   UNL     1       1.165   2.063   0.002  0.00  0.00    +0.137 A 
ATOM      8  N   UNL     1       1.175   3.349   0.370  0.00  0.00    -0.208 NA
ATOM      9  N   UNL     1      -0.016   1.341   0.009  0.00  0.00    -0.270 N 
ATOM     10  C   UNL     1       0.002  -0.004   0.002  0.00  0.00    +0.219 C 
ATOM     11  O   UNL     1      -1.044  -0.617  -0.008  0.00  0.00    -0.275 OA
ATOM     12  C   UNL     1       1.304  -0.758   0.007  0.00  0.00    +0.109 C 
ATOM     13  C   UNL     1       2.351   0.008  -0.804  0.00  0.00    +0.066 C 
ATOM     14  H   UNL     1      -0.865   1.810   0.016  0.00  0.00    +0.156 HD
ENDROOT
BRANCH  13  15
ATOM     15  C   UNL     1       2.022  -0.094  -2.272  0.00  0.00    -0.039 A 
ATOM     16  C   UNL     1       0.813   0.381  -2.744  0.00  0.00    +0.004 A 
ATOM     17  C   UNL     1       0.514   0.292  -4.090  0.00  0.00    +0.000 A 
ATOM     18  C   UNL     1       1.420  -0.281  -4.963  0.00  0.00    +0.000 A 
ATOM     19  C   UNL     1       2.627  -0.761  -4.490  0.00  0.00    +0.000 A 
ATOM     20  C   UNL     1       2.928  -0.667  -3.144  0.00  0.00    +0.004 A 
ENDBRANCH  13  15
BRANCH   1  21
ATOM     21  S   UNL     1       2.249   5.740   0.860  0.00  0.00    -0.075 S 
BRANCH  21  22
ATOM     22  C   UNL     1       0.486   5.915   1.232  0.00  0.00    +0.165 C 
BRANCH  22  24
ATOM     23  C   UNL     1      -0.005   8.388   2.033  0.00  0.00    +0.004 C 
ATOM     24  C   UNL     1       0.213   7.291   1.677  0.00  0.00    -0.094 C 
ENDBRANCH  22  24
ENDBRANCH  21  22
ENDBRANCH   1  21
TORSDOF 4
