REMARK  Name = ZINC36151740
REMARK  2 active torsions:
REMARK  status: ('A' for Active; 'I' for Inactive)
REMARK    1  A    between atoms: C_1  and  C_2
REMARK    2  A    between atoms: C_7  and  C_8
REMARK                            x       y       z     vdW  Elec       q    Type
REMARK                         _______ _______ _______ _____ _____    ______ ____
ROOT
ATOM      1  C   UNL     1       0.025   0.018   2.493  0.00  0.00    +0.182 A 
ATOM      2  N   UNL     1       0.004   1.322   2.652  0.00  0.00    -0.127 NA
ATOM      3  N   UNL     1       0.035   1.615   3.907  0.00  0.00    -0.121 NA
ATOM      4  C   UNL     1       0.085   0.521   4.607  0.00  0.00    +0.209 A 
ATOM      5  N   UNL     1       0.045  -0.544   3.748  0.00  0.00    -0.221 N 
ATOM      6  N   UNL     1      -0.006  -1.845   4.082  0.00  0.00    -0.277 N 
ATOM      7  C   UNL     1       0.506  -2.270   5.387  0.00  0.00    +0.101 C 
ATOM      8  C   UNL     1      -0.159  -3.666   5.620  0.00  0.00    +0.025 C 
ATOM      9  C   UNL     1      -1.530  -3.374   6.262  0.00  0.00    +0.003 C 
ATOM     10  C   UNL     1      -1.591  -1.843   6.499  0.00  0.00    +0.016 C 
ATOM     11  C   UNL     1      -0.090  -1.447   6.550  0.00  0.00    +0.076 C 
ATOM     12  S   UNL     1       0.192   0.310   6.355  0.00  0.00    -0.079 S 
ATOM     13  H   UNL     1      -0.925  -2.226   3.913  0.00  0.00    +0.167 HD
ENDROOT
BRANCH   1  20
ATOM     14  C   UNL     1      -0.018   1.503   0.010  0.00  0.00    +0.044 C 
ATOM     15  C   UNL     1       0.002  -0.004   0.002  0.00  0.00    -0.040 A 
ATOM     16  C   UNL     1       0.006  -0.689  -1.196  0.00  0.00    +0.004 A 
ATOM     17  C   UNL     1       0.024  -2.072  -1.205  0.00  0.00    +0.000 A 
ATOM     18  C   UNL     1       0.039  -2.778  -0.015  0.00  0.00    +0.001 A 
ATOM     19  C   UNL     1       0.036  -2.106   1.189  0.00  0.00    +0.012 A 
ATOM     20  C   UNL     1       0.023  -0.710   1.206  0.00  0.00    +0.024 A 
ENDBRANCH   1  20
TORSDOF 1
