REMARK  Name = ZINC22093835
REMARK  7 active torsions:
REMARK  status: ('A' for Active; 'I' for Inactive)
REMARK    1  A    between atoms: C_2  and  C_27
REMARK    2  A    between atoms: C_4  and  O_11
REMARK    3  A    between atoms: C_6  and  C_7
REMARK    4  A    between atoms: O_11  and  C_12
REMARK    5  A    between atoms: C_12  and  C_13
REMARK    6  A    between atoms: N_15  and  C_16
REMARK    7  A    between atoms: C_17  and  C_24
REMARK                            x       y       z     vdW  Elec       q    Type
REMARK                         _______ _______ _______ _____ _____    ______ ____
ROOT
ATOM      1  C   UNL     1       4.841   4.123  -0.022  0.00  0.00    +0.255 C 
ATOM      2  O   UNL     1       5.812   3.397  -0.034  0.00  0.00    -0.272 OA
ATOM      3  N   UNL     1       5.001   5.461  -0.016  0.00  0.00    -0.277 N 
ATOM      4  H   UNL     1       4.120   6.120  -0.005  0.00  0.00    +0.155 HD
ENDROOT
BRANCH   3   5
ATOM      5  C   UNL     1       6.275   6.008  -0.025  0.00  0.00    +0.084 A 
ATOM      6  C   UNL     1       6.639   7.343  -0.027  0.00  0.00    +0.068 A 
ATOM      7  C   UNL     1       8.067   7.656  -0.033  0.00  0.00    -0.023 A 
ATOM      8  C   UNL     1       8.886   6.589  -0.045  0.00  0.00    -0.004 A 
ATOM      9  S   UNL     1       7.798   5.185  -0.043  0.00  0.00    -0.077 S 
ATOM     10  C   UNL     1      10.336   6.990  -0.054  0.00  0.00    +0.043 C 
ATOM     11  C   UNL     1      10.333   8.469   0.392  0.00  0.00    +0.010 C 
ATOM     12  C   UNL     1       8.924   8.923  -0.036  0.00  0.00    +0.037 C 
BRANCH   6  13
ATOM     13  C   UNL     1       5.628   8.406  -0.020  0.00  0.00    +0.244 C 
ATOM     14  O   UNL     1       5.216   8.847   1.037  0.00  0.00    -0.270 OA
ATOM     15  N   UNL     1       5.155   8.894  -1.184  0.00  0.00    -0.325 N 
ATOM     16  H   UNL     1       4.397   9.691  -1.178  0.00  0.00    +0.145 HD
ATOM     17  H   UNL     1       5.527   8.495  -2.139  0.00  0.00    +0.145 HD
ENDBRANCH   6  13
ENDBRANCH   3   5
BRANCH   1  18
ATOM     18  C   UNL     1       3.456   3.530  -0.012  0.00  0.00    +0.324 C 
BRANCH  18  19
ATOM     19  O   UNL     1       3.548   2.104  -0.020  0.00  0.00    -0.483 OA
BRANCH  19  23
ATOM     20  C   UNL     1       0.002  -0.004   0.002  0.00  0.00    +0.025 A 
ATOM     21  C   UNL     1      -0.017   1.378   0.010  0.00  0.00    +0.059 A 
ATOM     22  C   UNL     1       1.169   2.087   0.002  0.00  0.00    +0.058 A 
ATOM     23  C   UNL     1       2.380   1.409  -0.013  0.00  0.00    +0.122 A 
ATOM     24  C   UNL     1       2.396   0.022  -0.020  0.00  0.00    +0.058 A 
ATOM     25  C   UNL     1       1.207  -0.681  -0.013  0.00  0.00    +0.059 A 
BRANCH  25  26
ATOM     26  C   UNL     1       1.224  -2.188  -0.021  0.00  0.00    +0.418 C 
ATOM     27  F   UNL     1       1.217  -2.647  -1.342  0.00  0.00    -0.166 F 
ATOM     28  F   UNL     1       2.378  -2.645   0.625  0.00  0.00    -0.166 F 
ATOM     29  F   UNL     1       0.093  -2.671   0.646  0.00  0.00    -0.166 F 
ENDBRANCH  25  26
BRANCH  21  30
ATOM     30  C   UNL     1      -1.332   2.114   0.020  0.00  0.00    +0.418 C 
ATOM     31  F   UNL     1      -1.733   2.334   1.342  0.00  0.00    -0.166 F 
ATOM     32  F   UNL     1      -1.185   3.342  -0.634  0.00  0.00    -0.166 F 
ATOM     33  F   UNL     1      -2.300   1.347  -0.639  0.00  0.00    -0.166 F 
ENDBRANCH  21  30
ENDBRANCH  19  23
ENDBRANCH  18  19
ENDBRANCH   1  18
TORSDOF 7
