REMARK  Name = ZINC22357233
REMARK  10 active torsions:
REMARK  status: ('A' for Active; 'I' for Inactive)
REMARK    1  A    between atoms: C_1  and  C_2
REMARK    2  A    between atoms: C_3  and  C_29
REMARK    3  A    between atoms: C_7  and  N_18
REMARK    4  A    between atoms: C_9  and  C_11
REMARK    5  A    between atoms: C_11  and  N_12
REMARK    6  A    between atoms: N_18  and  C_19
REMARK    7  A    between atoms: C_21  and  C_27
REMARK    8  A    between atoms: C_21  and  C_28
REMARK    9  A    between atoms: C_23  and  C_25
REMARK   10  A    between atoms: C_23  and  C_26
REMARK                            x       y       z     vdW  Elec       q    Type
REMARK                         _______ _______ _______ _____ _____    ______ ____
ROOT
ATOM      1  C   UNL     1      -1.520  -1.464  -0.249  0.00  0.00    +0.045 C 
ATOM      2  C   UNL     1      -2.679  -0.501  -0.214  0.00  0.00    -0.028 A 
ATOM      3  C   UNL     1      -3.940  -0.956  -0.237  0.00  0.00    -0.008 A 
ATOM      4  S   UNL     1      -4.921   0.532  -0.179  0.00  0.00    -0.074 S 
ATOM      5  C   UNL     1      -3.610   1.725  -0.126  0.00  0.00    +0.114 A 
ATOM      6  C   UNL     1      -2.442   0.931  -0.161  0.00  0.00    +0.051 A 
ATOM      7  C   UNL     1      -1.215   1.649  -0.121  0.00  0.00    +0.131 A 
ATOM      8  N   UNL     1      -1.243   2.971  -0.067  0.00  0.00    -0.216 NA
ATOM      9  C   UNL     1      -2.376   3.651  -0.044  0.00  0.00    +0.146 A 
ATOM     10  N   UNL     1      -3.545   3.041  -0.073  0.00  0.00    -0.223 NA
ATOM     11  C   UNL     1      -4.416  -2.384  -0.296  0.00  0.00    +0.052 C 
ENDROOT
BRANCH   7  12
ATOM     12  N   UNL     1      -0.008   0.975  -0.144  0.00  0.00    -0.326 N 
ATOM     13  H   UNL     1       0.011  -0.115  -0.294  0.00  0.00    +0.148 HD
BRANCH  12  14
ATOM     14  C   UNL     1       1.249   1.714   0.032  0.00  0.00    +0.069 C 
ATOM     15  C   UNL     1       1.704   2.262  -1.320  0.00  0.00    +0.009 C 
ATOM     16  C   UNL     1       3.022   3.018  -1.170  0.00  0.00    -0.072 C 
ATOM     17  N   UNL     1       4.023   2.269  -0.440  0.00  0.00    +0.386 N 
ATOM     18  C   UNL     1       3.650   1.498   0.728  0.00  0.00    -0.072 C 
ATOM     19  C   UNL     1       2.323   0.761   0.557  0.00  0.00    +0.009 C 
ATOM     20  C   UNL     1       3.587   2.382   1.979  0.00  0.00    -0.010 C 
ATOM     21  C   UNL     1       4.743   0.434   0.973  0.00  0.00    -0.010 C 
ATOM     22  C   UNL     1       2.760   4.379  -0.515  0.00  0.00    -0.010 C 
ATOM     23  C   UNL     1       3.565   3.291  -2.590  0.00  0.00    -0.010 C 
ATOM     24  H   UNL     1       4.486   1.528  -1.107  0.00  0.00    -0.084 HD
ATOM     25  H   UNL     1       4.794   2.957  -0.064  0.00  0.00    -0.084 HD
ENDBRANCH  12  14
ENDBRANCH   7  12
BRANCH   9  26
ATOM     26  C   UNL     1      -2.331   5.156   0.018  0.00  0.00    +0.160 C 
BRANCH  26  27
ATOM     27  N   UNL     1      -2.312   5.701  -1.346  0.00  0.00    -0.291 NA
ATOM     28  C   UNL     1      -1.062   5.349  -2.037  0.00  0.00    +0.113 C 
ATOM     29  C   UNL     1      -1.109   5.884  -3.470  0.00  0.00    +0.175 C 
ATOM     30  O   UNL     1      -1.331   7.297  -3.439  0.00  0.00    -0.377 OA
ATOM     31  C   UNL     1      -2.539   7.676  -2.774  0.00  0.00    +0.175 C 
ATOM     32  C   UNL     1      -2.507   7.158  -1.334  0.00  0.00    +0.113 C 
ENDBRANCH  26  27
ENDBRANCH   9  26
TORSDOF 4
