REMARK  Name = ZINC01320691
REMARK  7 active torsions:
REMARK  status: ('A' for Active; 'I' for Inactive)
REMARK    1  A    between atoms: C_4  and  O_27
REMARK    2  A    between atoms: C_5  and  C_7
REMARK    3  A    between atoms: C_7  and  C_9
REMARK    4  A    between atoms: C_9  and  C_10
REMARK    5  A    between atoms: C_10  and  O_26
REMARK    6  A    between atoms: N_17  and  C_20
REMARK    7  A    between atoms: C_20  and  N_52
REMARK                            x       y       z     vdW  Elec       q    Type
REMARK                         _______ _______ _______ _____ _____    ______ ____
ROOT
ATOM      1  C   UNL     1      -2.479   0.934   0.019  0.00  0.00    +0.175 C 
ATOM      2  C   UNL     1      -3.808   1.645  -0.094  0.00  0.00    +0.014 A 
ATOM      3  C   UNL     1      -4.449   2.564   0.705  0.00  0.00    +0.009 A 
ATOM      4  C   UNL     1      -5.691   3.051   0.337  0.00  0.00    +0.000 A 
ATOM      5  C   UNL     1      -6.284   2.612  -0.833  0.00  0.00    +0.002 A 
ATOM      6  C   UNL     1      -5.643   1.691  -1.636  0.00  0.00    +0.024 A 
ATOM      7  C   UNL     1      -4.392   1.196  -1.272  0.00  0.00    +0.041 A 
ATOM      8  N   UNL     1      -3.557   0.274  -1.904  0.00  0.00    -0.285 N 
ATOM      9  C   UNL     1      -2.420   0.064  -1.218  0.00  0.00    +0.255 C 
ATOM     10  O   UNL     1      -1.517  -0.682  -1.532  0.00  0.00    -0.272 OA
ENDROOT
BRANCH   1  11
ATOM     11  O   UNL     1      -2.439   0.132   1.201  0.00  0.00    -0.374 OA
ATOM     12  H   UNL     1      -1.619  -0.369   1.309  0.00  0.00    +0.211 HD
ENDBRANCH   1  11
BRANCH   1  13
ATOM     13  C   UNL     1      -1.330   1.944   0.019  0.00  0.00    +0.129 C 
BRANCH  13  14
ATOM     14  C   UNL     1      -0.014   1.209   0.009  0.00  0.00    +0.170 C 
ATOM     15  O   UNL     1       0.002  -0.004   0.002  0.00  0.00    -0.292 OA
BRANCH  14  20
ATOM     16  C   UNL     1       2.420   4.058  -0.000  0.00  0.00    +0.001 A 
ATOM     17  C   UNL     1       3.630   3.381  -0.015  0.00  0.00    +0.004 A 
ATOM     18  C   UNL     1       3.659   2.001  -0.023  0.00  0.00    +0.046 A 
ATOM     19  C   UNL     1       2.475   1.279  -0.015  0.00  0.00    +0.127 A 
ATOM     20  C   UNL     1       1.247   1.960   0.001  0.00  0.00    +0.059 A 
ATOM     21  C   UNL     1       1.233   3.360   0.003  0.00  0.00    +0.015 A 
BRANCH  19  22
ATOM     22  O   UNL     1       2.503  -0.077  -0.021  0.00  0.00    -0.506 OA
ATOM     23  H   UNL     1       2.502  -0.466  -0.907  0.00  0.00    +0.292 HD
ENDBRANCH  19  22
ENDBRANCH  14  20
ENDBRANCH  13  14
ENDBRANCH   1  13
BRANCH   8  24
ATOM     24  C   UNL     1      -3.881  -0.388  -3.170  0.00  0.00    +0.038 C 
BRANCH  24  30
ATOM     25  C   UNL     1      -4.299   1.525  -4.594  0.00  0.00    -0.077 C 
ATOM     26  C   UNL     1      -3.677   2.428  -5.661  0.00  0.00    -0.019 C 
ATOM     27  C   UNL     1      -3.402   1.604  -6.922  0.00  0.00    -0.004 C 
ATOM     28  C   UNL     1      -2.481   0.434  -6.567  0.00  0.00    -0.019 C 
ATOM     29  C   UNL     1      -3.137  -0.412  -5.473  0.00  0.00    -0.077 C 
ATOM     30  N   UNL     1      -3.353   0.433  -4.279  0.00  0.00    +0.390 N 
ATOM     31  H   UNL     1      -2.456   0.841  -3.994  0.00  0.00    -0.080 HD
ENDBRANCH  24  30
ENDBRANCH   8  24
TORSDOF 7
