REMARK  Name = ZINC12303780
REMARK  7 active torsions:
REMARK  status: ('A' for Active; 'I' for Inactive)
REMARK    1  A    between atoms: C_8  and  N_57
REMARK    2  A    between atoms: C_15  and  C_17
REMARK    3  A    between atoms: C_17  and  C_18
REMARK    4  A    between atoms: N_20  and  C_21
REMARK    5  A    between atoms: C_21  and  C_22
REMARK    6  A    between atoms: C_22  and  C_23
REMARK    7  A    between atoms: C_23  and  C_24
REMARK                            x       y       z     vdW  Elec       q    Type
REMARK                         _______ _______ _______ _____ _____    ______ ____
ROOT
ATOM      1  C   UNL     1      -1.491  -7.755   4.225  0.00  0.00    -0.058 C 
ATOM      2  C   UNL     1      -1.658  -7.986   5.728  0.00  0.00    +0.085 C 
ATOM      3  N   UNL     1      -0.440  -7.594   6.433  0.00  0.00    -0.318 N 
ATOM      4  C   UNL     1       0.489  -6.799   5.891  0.00  0.00    +0.200 C 
ATOM      5  O   UNL     1       1.456  -6.499   6.558  0.00  0.00    -0.278 OA
ATOM      6  C   UNL     1       0.384  -6.263   4.492  0.00  0.00    +0.028 C 
ATOM      7  H   UNL     1      -0.299  -7.926   7.333  0.00  0.00    +0.149 HD
ATOM      8  N   UNL     1      -1.011  -6.373   4.027  0.00  0.00    +0.391 N 
ATOM      9  H   UNL     1      -1.599  -5.732   4.573  0.00  0.00    -0.080 HD
ENDROOT
BRANCH   8  17
ATOM     10  C   UNL     1      -3.941  -4.261  -0.794  0.00  0.00    +0.000 A 
ATOM     11  C   UNL     1      -3.204  -3.119  -0.541  0.00  0.00    +0.000 A 
ATOM     12  C   UNL     1      -2.284  -3.106   0.489  0.00  0.00    +0.004 A 
ATOM     13  C   UNL     1      -2.097  -4.234   1.270  0.00  0.00    -0.046 A 
ATOM     14  C   UNL     1      -2.834  -5.376   1.018  0.00  0.00    -0.046 A 
ATOM     15  C   UNL     1      -3.755  -5.387  -0.016  0.00  0.00    +0.004 A 
ATOM     16  C   UNL     1      -2.449  -6.460   2.001  0.00  0.00    +0.020 C 
ATOM     17  C   UNL     1      -1.099  -6.007   2.595  0.00  0.00    -0.059 C 
ATOM     18  C   UNL     1      -1.162  -4.473   2.441  0.00  0.00    +0.020 C 
ENDBRANCH   8  17
BRANCH   6  19
ATOM     19  C   UNL     1       0.798  -4.790   4.480  0.00  0.00    +0.089 C 
BRANCH  19  20
ATOM     20  C   UNL     1      -0.175  -3.989   5.306  0.00  0.00    +0.212 C 
ATOM     21  O   UNL     1      -1.056  -4.552   5.922  0.00  0.00    -0.276 OA
ATOM     22  N   UNL     1      -0.068  -2.646   5.360  0.00  0.00    -0.315 N 
ATOM     23  H   UNL     1       0.589  -2.190   4.811  0.00  0.00    +0.149 HD
BRANCH  22  24
ATOM     24  C   UNL     1      -0.943  -1.876   6.248  0.00  0.00    +0.104 C 
BRANCH  24  25
ATOM     25  C   UNL     1      -0.535  -0.402   6.213  0.00  0.00    +0.023 C 
BRANCH  25  26
ATOM     26  C   UNL     1      -1.449   0.402   7.140  0.00  0.00    +0.038 C 
BRANCH  26  27
ATOM     27  C   UNL     1      -1.047   1.854   7.106  0.00  0.00    -0.029 A 
ATOM     28  C   UNL     1      -0.108   2.344   8.001  0.00  0.00    +0.006 A 
ATOM     29  C   UNL     1       0.234   3.686   7.929  0.00  0.00    +0.020 A 
ATOM     30  C   UNL     1      -0.375   4.487   6.981  0.00  0.00    +0.111 A 
ATOM     31  N   UNL     1      -1.267   3.987   6.149  0.00  0.00    -0.263 NA
ATOM     32  C   UNL     1      -1.614   2.715   6.185  0.00  0.00    +0.114 A 
ENDBRANCH  26  27
ENDBRANCH  25  26
ENDBRANCH  24  25
ENDBRANCH  22  24
ENDBRANCH  19  20
ENDBRANCH   6  19
TORSDOF 7
