REMARK  Name = ZINC55272499
REMARK  3 active torsions:
REMARK  status: ('A' for Active; 'I' for Inactive)
REMARK    1  A    between atoms: C_1  and  C_2
REMARK    2  A    between atoms: C_15  and  C_17
REMARK    3  A    between atoms: C_17  and  C_18
REMARK                            x       y       z     vdW  Elec       q    Type
REMARK                         _______ _______ _______ _____ _____    ______ ____
ROOT
ATOM      1  C   UNL     1      -0.019   1.526   0.010  0.00  0.00    +0.008 C 
ATOM      2  C   UNL     1       0.002  -0.004   0.002  0.00  0.00    -0.008 C 
ATOM      3  C   UNL     1       0.721  -0.499  -1.256  0.00  0.00    +0.022 C 
ATOM      4  C   UNL     1       0.732  -2.030  -1.277  0.00  0.00    +0.108 C 
ATOM      5  N   UNL     1       1.301  -2.525  -0.014  0.00  0.00    -0.298 N 
ATOM      6  C   UNL     1       0.720  -2.043   1.244  0.00  0.00    +0.079 C 
ATOM      7  C   UNL     1       0.743  -0.511   1.238  0.00  0.00    +0.012 C 
ATOM      8  C   UNL     1       0.081   0.004   2.515  0.00  0.00    +0.005 C 
ATOM      9  C   UNL     1       0.868  -0.504   3.726  0.00  0.00    +0.000 C 
ATOM     10  C   UNL     1       0.884  -2.033   3.730  0.00  0.00    +0.002 C 
ATOM     11  C   UNL     1       1.526  -2.553   2.438  0.00  0.00    +0.023 C 
ATOM     12  C   UNL     1       2.329  -3.397  -0.013  0.00  0.00    +0.222 C 
ATOM     13  O   UNL     1       2.786  -3.794   1.038  0.00  0.00    -0.275 OA
ENDROOT
BRANCH  12  14
ATOM     14  C   UNL     1       2.911  -3.878  -1.317  0.00  0.00    +0.152 C 
BRANCH  14  15
ATOM     15  C   UNL     1       4.039  -4.837  -1.040  0.00  0.00    +0.059 A 
ATOM     16  C   UNL     1       4.055  -6.083  -1.573  0.00  0.00    +0.072 A 
ATOM     17  S   UNL     1       5.587  -6.711  -0.905  0.00  0.00    -0.061 S 
ATOM     18  C   UNL     1       6.039  -5.345  -0.032  0.00  0.00    +0.156 A 
ATOM     19  N   UNL     1       5.060  -4.499  -0.272  0.00  0.00    -0.230 NA
ATOM     20  N   UNL     1       7.170  -5.155   0.746  0.00  0.00    -0.338 N 
ATOM     21  H   UNL     1       7.822  -5.868   0.836  0.00  0.00    +0.144 HD
ATOM     22  H   UNL     1       7.310  -4.310   1.200  0.00  0.00    +0.144 HD
ENDBRANCH  14  15
ENDBRANCH  12  14
TORSDOF 2
