REMARK  Name = ZINC62178608
REMARK  6 active torsions:
REMARK  status: ('A' for Active; 'I' for Inactive)
REMARK    1  A    between atoms: C_1  and  C_2
REMARK    2  A    between atoms: C_5  and  C_9
REMARK    3  A    between atoms: C_7  and  C_8
REMARK    4  A    between atoms: C_9  and  C_11
REMARK    5  A    between atoms: N_16  and  S_17
REMARK    6  A    between atoms: S_17  and  C_20
REMARK                            x       y       z     vdW  Elec       q    Type
REMARK                         _______ _______ _______ _____ _____    ______ ____
ROOT
ATOM      1  C   UNL     1       0.063  -4.992  -1.331  0.00  0.00    +0.151 C 
ATOM      2  C   UNL     1       1.497  -5.051  -1.897  0.00  0.00    +0.030 C 
ATOM      3  C   UNL     1       1.993  -6.449  -1.441  0.00  0.00    +0.019 C 
ATOM      4  C   UNL     1       0.696  -7.289  -1.547  0.00  0.00    +0.110 C 
ATOM      5  N   UNL     1      -0.384  -6.376  -1.118  0.00  0.00    -0.166 NA
ENDROOT
BRANCH   5   6
ATOM      6  S   UNL     1      -1.850  -6.833  -0.499  0.00  0.00    +0.062 S 
ATOM      7  O   UNL     1      -1.673  -8.132   0.049  0.00  0.00    -0.153 OA
ATOM      8  O   UNL     1      -2.324  -5.739   0.273  0.00  0.00    -0.153 OA
BRANCH   6   9
ATOM      9  C   UNL     1      -2.958  -7.008  -1.859  0.00  0.00    +0.108 A 
ATOM     10  C   UNL     1      -3.701  -5.920  -2.287  0.00  0.00    +0.030 A 
ATOM     11  C   UNL     1      -4.571  -6.047  -3.351  0.00  0.00    +0.030 A 
ATOM     12  C   UNL     1      -4.701  -7.268  -3.995  0.00  0.00    +0.067 A 
ATOM     13  C   UNL     1      -3.952  -8.365  -3.563  0.00  0.00    +0.069 A 
ATOM     14  C   UNL     1      -3.076  -8.226  -2.497  0.00  0.00    +0.056 A 
ATOM     15  N   UNL     1      -4.291  -9.434  -4.390  0.00  0.00    -0.306 N 
ATOM     16  H   UNL     1      -3.930 -10.332  -4.332  0.00  0.00    +0.170 HD
ATOM     17  C   UNL     1      -5.204  -9.007  -5.282  0.00  0.00    +0.325 A 
ATOM     18  O   UNL     1      -5.711  -9.694  -6.149  0.00  0.00    -0.247 OA
ATOM     19  N   UNL     1      -5.472  -7.705  -5.069  0.00  0.00    -0.306 N 
ATOM     20  H   UNL     1      -6.096  -7.163  -5.578  0.00  0.00    +0.170 HD
ENDBRANCH   6   9
ENDBRANCH   5   6
BRANCH   1  21
ATOM     21  C   UNL     1       0.059  -4.245  -0.021  0.00  0.00    +0.182 C 
ATOM     22  O   UNL     1       0.072  -4.857   1.025  0.00  0.00    -0.290 OA
BRANCH  21  27
ATOM     23  C   UNL     1      -0.018   1.503   0.010  0.00  0.00    +0.044 C 
ATOM     24  C   UNL     1       0.002  -0.004   0.002  0.00  0.00    -0.047 A 
ATOM     25  C   UNL     1       0.006  -0.686  -1.203  0.00  0.00    +0.004 A 
ATOM     26  C   UNL     1       0.024  -2.064  -1.219  0.00  0.00    +0.012 A 
ATOM     27  C   UNL     1       0.040  -2.774  -0.013  0.00  0.00    +0.019 A 
ATOM     28  C   UNL     1       0.036  -2.078   1.200  0.00  0.00    +0.015 A 
ATOM     29  C   UNL     1       0.023  -0.699   1.199  0.00  0.00    -0.047 A 
ATOM     30  C   UNL     1       0.025   0.054   2.504  0.00  0.00    +0.044 C 
ENDBRANCH  21  27
ENDBRANCH   1  21
TORSDOF 4
