REMARK  Name = ZINC42277200
REMARK  5 active torsions:
REMARK  status: ('A' for Active; 'I' for Inactive)
REMARK    1  A    between atoms: C_1  and  C_2
REMARK    2  A    between atoms: C_9  and  C_11
REMARK    3  A    between atoms: C_17  and  C_19
REMARK    4  A    between atoms: C_19  and  O_21
REMARK    5  A    between atoms: O_21  and  C_22
REMARK                            x       y       z     vdW  Elec       q    Type
REMARK                         _______ _______ _______ _____ _____    ______ ____
ROOT
ATOM      1  C   UNL     1       0.091  -5.622   2.222  0.00  0.00    +0.283 C 
ATOM      2  O   UNL     1       0.099  -5.699   3.436  0.00  0.00    -0.267 OA
ATOM      3  N   UNL     1       0.103  -6.744   1.475  0.00  0.00    -0.282 N 
ATOM      4  C   UNL     1       0.103  -6.796   0.002  0.00  0.00    +0.109 C 
ATOM      5  C   UNL     1      -0.493  -8.183  -0.346  0.00  0.00    +0.021 C 
ATOM      6  C   UNL     1       0.103  -9.070   0.780  0.00  0.00    +0.035 C 
ATOM      7  C   UNL     1       0.126  -8.119   1.996  0.00  0.00    +0.185 C 
ENDROOT
BRANCH   1  16
ATOM      8  C   UNL     1      -0.018   1.503   0.010  0.00  0.00    +0.044 C 
ATOM      9  C   UNL     1       0.002  -0.004   0.002  0.00  0.00    -0.050 A 
ATOM     10  C   UNL     1       0.006  -0.687  -1.207  0.00  0.00    +0.007 A 
ATOM     11  C   UNL     1       0.025  -2.064  -1.238  0.00  0.00    +0.047 A 
ATOM     12  C   UNL     1       0.041  -2.783  -0.048  0.00  0.00    +0.136 A 
ATOM     13  C   UNL     1       0.037  -2.086   1.175  0.00  0.00    +0.021 A 
ATOM     14  C   UNL     1       0.023  -0.689   1.184  0.00  0.00    +0.015 A 
ATOM     15  C   UNL     1       0.056  -3.112   2.216  0.00  0.00    +0.063 A 
ATOM     16  C   UNL     1       0.070  -4.306   1.569  0.00  0.00    +0.191 A 
ATOM     17  O   UNL     1       0.060  -4.100   0.235  0.00  0.00    -0.450 OA
ENDBRANCH   1  16
BRANCH   7  18
ATOM     18  C   UNL     1       1.380  -8.342   2.801  0.00  0.00    +0.328 C 
ATOM     19  O   UNL     1       2.324  -7.600   2.667  0.00  0.00    -0.249 OA
BRANCH  18  20
ATOM     20  O   UNL     1       1.448  -9.366   3.666  0.00  0.00    -0.467 OA
ATOM     21  C   UNL     1       2.667  -9.518   4.396  0.00  0.00    +0.280 C 
ENDBRANCH  18  20
ENDBRANCH   7  18
TORSDOF 3
