REMARK  Name = ZINC20467343
REMARK  3 active torsions:
REMARK  status: ('A' for Active; 'I' for Inactive)
REMARK    1  A    between atoms: C_1  and  C_2
REMARK    2  A    between atoms: C_2  and  C_25
REMARK    3  A    between atoms: C_6  and  C_16
REMARK                            x       y       z     vdW  Elec       q    Type
REMARK                         _______ _______ _______ _____ _____    ______ ____
ROOT
ATOM      1  C   UNL     1      -4.898   2.609   0.596  0.00  0.00    +0.011 C 
ATOM      2  C   UNL     1      -4.026   3.224   1.693  0.00  0.00    -0.023 C 
ATOM      3  C   UNL     1      -2.580   3.325   1.209  0.00  0.00    +0.058 C 
ATOM      4  C   UNL     1      -2.050   1.944   0.867  0.00  0.00    +0.017 C 
ATOM      5  C   UNL     1      -2.473   0.862   1.543  0.00  0.00    +0.036 C 
ATOM      6  C   UNL     1      -2.014  -0.558   1.320  0.00  0.00    +0.137 C 
ATOM      7  N   UNL     1      -1.242  -0.761   0.113  0.00  0.00    -0.317 N 
ATOM      8  C   UNL     1       0.002  -0.167  -0.056  0.00  0.00    +0.141 A 
ATOM      9  C   UNL     1       0.058   1.220  -0.103  0.00  0.00    +0.071 A 
ATOM     10  C   UNL     1       1.286   1.857  -0.160  0.00  0.00    +0.028 A 
ATOM     11  C   UNL     1       2.427   1.062  -0.202  0.00  0.00    +0.022 A 
ATOM     12  C   UNL     1       2.296  -0.312  -0.188  0.00  0.00    +0.113 A 
ATOM     13  N   UNL     1       1.108  -0.888  -0.117  0.00  0.00    -0.239 NA
ATOM     14  N   UNL     1      -1.143   1.915  -0.142  0.00  0.00    -0.315 N 
ATOM     15  C   UNL     1      -3.438   0.999   2.570  0.00  0.00    +0.163 C 
ATOM     16  O   UNL     1      -3.791   0.007   3.177  0.00  0.00    -0.292 OA
ATOM     17  C   UNL     1      -4.040   2.322   2.933  0.00  0.00    +0.086 C 
ATOM     18  C   UNL     1      -4.550   4.614   2.056  0.00  0.00    +0.011 C 
ATOM     19  H   UNL     1      -1.639  -1.395  -0.694  0.00  0.00    +0.148 HD
ATOM     20  H   UNL     1      -1.337   2.468  -1.072  0.00  0.00    +0.152 HD
ENDROOT
BRANCH   6  21
ATOM     21  C   UNL     1      -1.174  -0.979   2.499  0.00  0.00    -0.023 A 
ATOM     22  C   UNL     1       0.045  -0.370   2.732  0.00  0.00    +0.006 A 
ATOM     23  C   UNL     1       0.813  -0.753   3.815  0.00  0.00    +0.000 A 
ATOM     24  C   UNL     1       0.366  -1.752   4.661  0.00  0.00    +0.000 A 
ATOM     25  C   UNL     1      -0.851  -2.364   4.425  0.00  0.00    +0.000 A 
ATOM     26  C   UNL     1      -1.621  -1.978   3.344  0.00  0.00    +0.006 A 
ENDBRANCH   6  21
TORSDOF 1
