REMARK  Name = ZINC32627903
REMARK  6 active torsions:
REMARK  status: ('A' for Active; 'I' for Inactive)
REMARK    1  A    between atoms: C_4  and  S_7
REMARK    2  A    between atoms: S_7  and  N_10
REMARK    3  A    between atoms: N_10  and  C_11
REMARK    4  A    between atoms: N_10  and  S_19
REMARK    5  A    between atoms: C_13  and  N_18
REMARK    6  A    between atoms: S_19  and  C_22
REMARK                            x       y       z     vdW  Elec       q    Type
REMARK                         _______ _______ _______ _____ _____    ______ ____
ROOT
ATOM      1  N   UNL     1       4.538  -1.028  -1.665  0.00  0.00    -0.067 N 
ENDROOT
BRANCH   1   2
ATOM      2  C   UNL     1       5.511  -0.211  -2.250  0.00  0.00    +0.113 A 
ATOM      3  C   UNL     1       6.610  -0.780  -2.877  0.00  0.00    +0.052 A 
ATOM      4  C   UNL     1       7.573   0.034  -3.457  0.00  0.00    +0.027 A 
ATOM      5  C   UNL     1       7.434   1.415  -3.409  0.00  0.00    +0.025 A 
ATOM      6  C   UNL     1       6.338   1.980  -2.784  0.00  0.00    +0.042 A 
ATOM      7  C   UNL     1       5.374   1.172  -2.209  0.00  0.00    +0.148 A 
ATOM      8  F   UNL     1       4.301   1.727  -1.604  0.00  0.00    -0.203 F 
BRANCH   4   9
ATOM      9  N   UNL     1       8.681  -0.536  -4.090  0.00  0.00    -0.358 N 
ATOM     10  H   UNL     1       9.444   0.110  -4.550  0.00  0.00    +0.142 HD
ATOM     11  H   UNL     1       8.791  -1.630  -4.129  0.00  0.00    +0.142 HD
ENDBRANCH   4   9
ENDBRANCH   1   2
BRANCH   1  12
ATOM     12  S   UNL     1       4.138  -0.828  -0.071  0.00  0.00    +0.093 S 
ATOM     13  O   UNL     1       2.775  -1.206   0.056  0.00  0.00    -0.148 OA
ATOM     14  O   UNL     1       4.611   0.458   0.308  0.00  0.00    -0.148 OA
BRANCH  12  18
ATOM     15  C   UNL     1       6.543  -3.841   2.301  0.00  0.00    +0.000 A 
ATOM     16  C   UNL     1       5.249  -4.138   1.918  0.00  0.00    +0.002 A 
ATOM     17  C   UNL     1       4.514  -3.218   1.194  0.00  0.00    +0.029 A 
ATOM     18  C   UNL     1       5.074  -2.001   0.853  0.00  0.00    +0.110 A 
ATOM     19  C   UNL     1       6.369  -1.704   1.236  0.00  0.00    +0.029 A 
ATOM     20  C   UNL     1       7.103  -2.624   1.961  0.00  0.00    +0.002 A 
ENDBRANCH  12  18
ENDBRANCH   1  12
BRANCH   1  21
ATOM     21  S   UNL     1       3.787  -2.196  -2.567  0.00  0.00    +0.093 S 
ATOM     22  O   UNL     1       4.617  -2.437  -3.694  0.00  0.00    -0.148 OA
ATOM     23  O   UNL     1       3.411  -3.227  -1.664  0.00  0.00    -0.148 OA
BRANCH  21  24
ATOM     24  C   UNL     1       2.291  -1.497  -3.183  0.00  0.00    +0.110 A 
ATOM     25  C   UNL     1       1.139  -1.549  -2.422  0.00  0.00    +0.029 A 
ATOM     26  C   UNL     1      -0.033  -0.996  -2.903  0.00  0.00    +0.002 A 
ATOM     27  C   UNL     1      -0.055  -0.400  -4.150  0.00  0.00    +0.000 A 
ATOM     28  C   UNL     1       1.096  -0.353  -4.914  0.00  0.00    +0.002 A 
ATOM     29  C   UNL     1       2.269  -0.901  -4.430  0.00  0.00    +0.029 A 
ENDBRANCH  21  24
ENDBRANCH   1  21
TORSDOF 6
