REMARK  Name = ZINC16514889
REMARK  7 active torsions:
REMARK  status: ('A' for Active; 'I' for Inactive)
REMARK    1  A    between atoms: C_1  and  C_2
REMARK    2  A    between atoms: C_2  and  O_3
REMARK    3  A    between atoms: O_3  and  C_4
REMARK    4  A    between atoms: C_7  and  N_10
REMARK    5  A    between atoms: C_22  and  C_25
REMARK    6  A    between atoms: C_25  and  C_26
REMARK    7  A    between atoms: C_29  and  C_32
REMARK                            x       y       z     vdW  Elec       q    Type
REMARK                         _______ _______ _______ _____ _____    ______ ____
ROOT
ATOM      1  N   UNL     1       2.447  -2.296   0.232  0.00  0.00    -0.269 N 
ATOM      2  C   UNL     1       2.930  -1.140   0.727  0.00  0.00    +0.306 C 
ATOM      3  O   UNL     1       4.123  -0.910   0.683  0.00  0.00    -0.252 OA
ATOM      4  N   UNL     1       2.089  -0.238   1.272  0.00  0.00    -0.284 N 
ATOM      5  C   UNL     1       2.648   1.020   1.807  0.00  0.00    +0.111 C 
ATOM      6  C   UNL     1       1.765   2.224   1.438  0.00  0.00    +0.038 C 
ATOM      7  C   UNL     1       1.267   2.073   0.017  0.00  0.00    +0.108 C 
ATOM      8  N   UNL     1      -0.032   1.402   0.035  0.00  0.00    -0.307 N 
ATOM      9  C   UNL     1      -0.008  -0.012   0.024  0.00  0.00    +0.126 C 
ATOM     10  C   UNL     1       0.673  -0.539   1.311  0.00  0.00    +0.128 C 
ATOM     11  C   UNL     1      -0.856   1.891  -0.963  0.00  0.00    +0.181 A 
ATOM     12  N   UNL     1      -2.137   1.636  -1.193  0.00  0.00    -0.208 NA
ATOM     13  C   UNL     1      -2.721   2.222  -2.212  0.00  0.00    +0.145 A 
ATOM     14  N   UNL     1      -2.036   3.039  -2.974  0.00  0.00    -0.192 NA
ATOM     15  S   UNL     1      -0.490   3.007  -2.240  0.00  0.00    +0.049 S 
ATOM     16  H   UNL     1       1.506  -2.509   0.326  0.00  0.00    +0.156 HD
ENDROOT
BRANCH   1  20
ATOM     17  C   UNL     1       5.003  -4.961  -1.708  0.00  0.00    +0.121 A 
ATOM     18  C   UNL     1       5.463  -4.219  -0.630  0.00  0.00    +0.047 A 
ATOM     19  C   UNL     1       4.617  -3.336   0.012  0.00  0.00    +0.027 A 
ATOM     20  C   UNL     1       3.306  -3.192  -0.420  0.00  0.00    +0.035 A 
ATOM     21  C   UNL     1       2.844  -3.939  -1.496  0.00  0.00    +0.027 A 
ATOM     22  C   UNL     1       3.692  -4.817  -2.141  0.00  0.00    +0.047 A 
BRANCH  17  23
ATOM     23  O   UNL     1       5.836  -5.830  -2.341  0.00  0.00    -0.492 OA
BRANCH  23  25
ATOM     24  C   UNL     1       6.372  -7.480  -4.022  0.00  0.00    +0.048 C 
ATOM     25  C   UNL     1       5.295  -6.561  -3.442  0.00  0.00    +0.225 C 
ENDBRANCH  23  25
ENDBRANCH  17  23
ENDBRANCH   1  20
BRANCH  13  26
ATOM     26  C   UNL     1      -4.176   1.955  -2.504  0.00  0.00    +0.112 C 
BRANCH  26  27
ATOM     27  C   UNL     1      -5.028   2.954  -1.764  0.00  0.00    -0.040 A 
ATOM     28  C   UNL     1      -5.476   2.670  -0.488  0.00  0.00    +0.004 A 
ATOM     29  C   UNL     1      -6.255   3.588   0.192  0.00  0.00    +0.003 A 
ATOM     30  C   UNL     1      -6.591   4.787  -0.408  0.00  0.00    -0.050 A 
ATOM     31  C   UNL     1      -6.147   5.069  -1.686  0.00  0.00    +0.003 A 
ATOM     32  C   UNL     1      -5.366   4.153  -2.365  0.00  0.00    +0.004 A 
ATOM     33  C   UNL     1      -7.443   5.787   0.332  0.00  0.00    +0.044 C 
ENDBRANCH  26  27
ENDBRANCH  13  26
TORSDOF 5
