REMARK  Name = ZINC41851915
REMARK  11 active torsions:
REMARK  status: ('A' for Active; 'I' for Inactive)
REMARK    1  A    between atoms: C_1  and  C_2
REMARK    2  A    between atoms: C_2  and  C_3
REMARK    3  A    between atoms: C_2  and  C_4
REMARK    4  A    between atoms: C_2  and  C_5
REMARK    5  A    between atoms: C_5  and  C_6
REMARK    6  A    between atoms: C_6  and  C_8
REMARK    7  A    between atoms: C_6  and  N_15
REMARK    8  A    between atoms: C_16  and  C_18
REMARK    9  A    between atoms: N_20  and  C_21
REMARK   10  A    between atoms: C_26  and  C_27
REMARK   11  A    between atoms: C_27  and  C_28
REMARK                            x       y       z     vdW  Elec       q    Type
REMARK                         _______ _______ _______ _____ _____    ______ ____
ROOT
ATOM      1  N   UNL     1       2.489   1.515  -1.877  0.00  0.00    -0.301 N 
ATOM      2  C   UNL     1       2.668   2.312  -0.805  0.00  0.00    +0.300 C 
ATOM      3  O   UNL     1       2.669   1.835   0.311  0.00  0.00    -0.265 OA
ATOM      4  H   UNL     1       2.561   1.883  -2.772  0.00  0.00    +0.150 HD
ENDROOT
BRANCH   2   5
ATOM      5  C   UNL     1       2.864   3.781  -0.990  0.00  0.00    +0.303 C 
ATOM      6  O   UNL     1       2.863   4.257  -2.106  0.00  0.00    -0.265 OA
ATOM      7  N   UNL     1       3.043   4.577   0.083  0.00  0.00    -0.277 N 
ATOM      8  H   UNL     1       3.096   4.190   0.971  0.00  0.00    +0.155 HD
BRANCH   7   9
ATOM      9  C   UNL     1       3.151   5.960  -0.084  0.00  0.00    +0.037 A 
ATOM     10  C   UNL     1       3.631   6.481  -1.280  0.00  0.00    +0.023 A 
ATOM     11  C   UNL     1       3.737   7.849  -1.442  0.00  0.00    +0.002 A 
ATOM     12  C   UNL     1       3.367   8.699  -0.415  0.00  0.00    +0.000 A 
ATOM     13  C   UNL     1       2.890   8.183   0.776  0.00  0.00    +0.006 A 
ATOM     14  C   UNL     1       2.775   6.817   0.942  0.00  0.00    -0.017 A 
BRANCH  14  15
ATOM     15  C   UNL     1       2.248   6.256   2.238  0.00  0.00    +0.132 C 
BRANCH  15  16
ATOM     16  C   UNL     1       3.403   5.913   3.143  0.00  0.00    +0.215 C 
ATOM     17  O   UNL     1       4.542   6.105   2.772  0.00  0.00    -0.276 OA
ATOM     18  N   UNL     1       3.170   5.393   4.364  0.00  0.00    -0.329 N 
ATOM     19  H   UNL     1       2.260   5.240   4.661  0.00  0.00    +0.145 HD
ATOM     20  H   UNL     1       3.914   5.172   4.947  0.00  0.00    +0.145 HD
ENDBRANCH  15  16
ENDBRANCH  14  15
ENDBRANCH   7   9
ENDBRANCH   2   5
BRANCH   1  21
ATOM     21  C   UNL     1       2.187   0.094  -1.692  0.00  0.00    +0.104 C 
BRANCH  21  22
ATOM     22  C   UNL     1       2.713  -0.689  -2.867  0.00  0.00    -0.027 A 
ATOM     23  C   UNL     1       2.300  -0.373  -4.148  0.00  0.00    +0.008 A 
ATOM     24  C   UNL     1       2.783  -1.091  -5.227  0.00  0.00    +0.038 A 
ATOM     25  C   UNL     1       3.680  -2.125  -5.024  0.00  0.00    +0.123 A 
ATOM     26  C   UNL     1       4.093  -2.440  -3.740  0.00  0.00    +0.038 A 
ATOM     27  C   UNL     1       3.614  -1.718  -2.664  0.00  0.00    +0.008 A 
ATOM     28  F   UNL     1       4.152  -2.827  -6.077  0.00  0.00    -0.205 F 
ENDBRANCH  21  22
BRANCH  21  29
ATOM     29  C   UNL     1       0.672  -0.096  -1.590  0.00  0.00    +0.033 C 
BRANCH  29  31
ATOM     30  C   UNL     1       1.149  -1.917   0.053  0.00  0.00    +0.010 C 
ATOM     31  C   UNL     1       0.365  -1.545  -1.207  0.00  0.00    -0.036 C 
ATOM     32  C   UNL     1       0.773  -2.473  -2.353  0.00  0.00    +0.010 C 
ATOM     33  C   UNL     1      -1.134  -1.695  -0.938  0.00  0.00    +0.010 C 
ENDBRANCH  29  31
ENDBRANCH  21  29
ENDBRANCH   1  21
TORSDOF 8
