REMARK  Name = ZINC54189067
REMARK  2 active torsions:
REMARK  status: ('A' for Active; 'I' for Inactive)
REMARK    1  A    between atoms: C_3  and  C_9
REMARK    2  A    between atoms: C_9  and  C_11
REMARK                            x       y       z     vdW  Elec       q    Type
REMARK                         _______ _______ _______ _____ _____    ______ ____
ROOT
ATOM      1  C   UNL     1       3.633   3.638   0.097  0.00  0.00    +0.026 A 
ATOM      2  C   UNL     1       2.413   4.312   0.224  0.00  0.00    +0.014 A 
ATOM      3  C   UNL     1       2.389   5.674   0.334  0.00  0.00    +0.030 A 
ATOM      4  C   UNL     1       3.577   6.396   0.320  0.00  0.00    +0.087 A 
ATOM      5  C   UNL     1       4.802   5.735   0.195  0.00  0.00    +0.157 A 
ATOM      6  C   UNL     1       4.831   4.357   0.089  0.00  0.00    +0.060 A 
ATOM      7  O   UNL     1       5.773   6.681   0.212  0.00  0.00    -0.408 OA
ATOM      8  C   UNL     1       5.204   7.890   0.342  0.00  0.00    +0.419 A 
ATOM      9  O   UNL     1       5.805   8.946   0.390  0.00  0.00    -0.223 OA
ATOM     10  N   UNL     1       3.865   7.753   0.411  0.00  0.00    -0.288 N 
ATOM     11  H   UNL     1       3.220   8.471   0.506  0.00  0.00    +0.172 HD
ENDROOT
BRANCH   1  12
ATOM     12  C   UNL     1       3.654   2.168  -0.022  0.00  0.00    +0.196 C 
ATOM     13  O   UNL     1       2.622   1.534   0.084  0.00  0.00    -0.287 OA
BRANCH  12  16
ATOM     14  C   UNL     1       6.755   0.124   0.532  0.00  0.00    +0.004 A 
ATOM     15  C   UNL     1       5.565   0.778   0.768  0.00  0.00    +0.015 A 
ATOM     16  C   UNL     1       4.929   1.466  -0.269  0.00  0.00    +0.060 A 
ATOM     17  C   UNL     1       5.507   1.485  -1.543  0.00  0.00    +0.169 A 
ATOM     18  C   UNL     1       6.703   0.823  -1.766  0.00  0.00    +0.159 A 
ATOM     19  C   UNL     1       7.323   0.145  -0.730  0.00  0.00    +0.041 A 
ATOM     20  F   UNL     1       7.264   0.839  -2.994  0.00  0.00    -0.202 F 
ATOM     21  F   UNL     1       4.900   2.147  -2.553  0.00  0.00    -0.202 F 
ENDBRANCH  12  16
ENDBRANCH   1  12
TORSDOF 2
