REMARK  Name = ZINC39352077
REMARK  6 active torsions:
REMARK  status: ('A' for Active; 'I' for Inactive)
REMARK    1  A    between atoms: C_1  and  C_2
REMARK    2  A    between atoms: C_2  and  O_3
REMARK    3  A    between atoms: O_3  and  C_4
REMARK    4  A    between atoms: C_11  and  C_16
REMARK    5  A    between atoms: N_20  and  C_24
REMARK    6  A    between atoms: C_24  and  C_25
REMARK                            x       y       z     vdW  Elec       q    Type
REMARK                         _______ _______ _______ _____ _____    ______ ____
ROOT
ATOM      1  C   UNL     1      -1.498  -1.849   0.006  0.00  0.00    +0.121 A 
ATOM      2  C   UNL     1      -0.367  -2.674  -0.003  0.00  0.00    +0.047 A 
ATOM      3  C   UNL     1      -0.451  -4.029  -0.009  0.00  0.00    +0.027 A 
ATOM      4  C   UNL     1      -1.704  -4.669  -0.006  0.00  0.00    +0.041 A 
ATOM      5  N   UNL     1      -1.771  -6.000  -0.013  0.00  0.00    -0.284 N 
ATOM      6  C   UNL     1      -2.914  -6.666  -0.011  0.00  0.00    +0.228 C 
ATOM      7  O   UNL     1      -2.912  -7.883  -0.016  0.00  0.00    -0.274 OA
ATOM      8  C   UNL     1      -4.223  -5.910  -0.001  0.00  0.00    +0.122 C 
ATOM      9  C   UNL     1      -4.153  -4.395   0.006  0.00  0.00    -0.001 C 
ATOM     10  C   UNL     1      -2.913  -3.827   0.003  0.00  0.00    -0.003 A 
ATOM     11  C   UNL     1      -2.756  -2.372   0.016  0.00  0.00    +0.055 A 
ATOM     12  H   UNL     1      -0.943  -6.505  -0.019  0.00  0.00    +0.155 HD
ENDROOT
BRANCH   8  13
ATOM     13  C   UNL     1      -5.008  -6.330  -1.217  0.00  0.00    +0.010 C 
ATOM     14  C   UNL     1      -6.211  -6.899  -1.073  0.00  0.00    +0.074 C 
ATOM     15  C   UNL     1      -7.154  -7.395  -2.106  0.00  0.00    +0.258 C 
ATOM     16  O   UNL     1      -6.899  -7.323  -3.293  0.00  0.00    -0.269 OA
ATOM     17  N   UNL     1      -8.286  -7.919  -1.667  0.00  0.00    -0.253 N 
ATOM     18  C   UNL     1      -8.563  -7.997  -0.350  0.00  0.00    +0.121 C 
ATOM     19  S   UNL     1      -9.961  -8.636   0.404  0.00  0.00    -0.027 S 
ATOM     20  S   UNL     1      -7.120  -7.280   0.419  0.00  0.00    -0.061 S 
BRANCH  17  21
ATOM     21  C   UNL     1      -9.261  -8.427  -2.635  0.00  0.00    +0.146 C 
BRANCH  21  22
ATOM     22  C   UNL     1      -8.978  -9.903  -2.918  0.00  0.00    +0.136 C 
ATOM     23  C   UNL     1      -9.978 -10.451  -3.966  0.00  0.00    +0.035 C 
ATOM     24  C   UNL     1      -9.165 -11.635  -4.559  0.00  0.00    +0.031 C 
ATOM     25  C   UNL     1      -7.718 -11.101  -4.499  0.00  0.00    +0.160 C 
ATOM     26  O   UNL     1      -7.682 -10.056  -3.517  0.00  0.00    -0.375 OA
ENDBRANCH  21  22
ENDBRANCH  17  21
ENDBRANCH   8  13
BRANCH   1  27
ATOM     27  O   UNL     1      -1.339  -0.499   0.012  0.00  0.00    -0.492 OA
BRANCH  27  29
ATOM     28  C   UNL     1      -0.019   1.526   0.010  0.00  0.00    +0.048 C 
ATOM     29  C   UNL     1       0.002  -0.004   0.002  0.00  0.00    +0.225 C 
ENDBRANCH  27  29
ENDBRANCH   1  27
TORSDOF 5
