REMARK  Name = ZINC63351913
REMARK  4 active torsions:
REMARK  status: ('A' for Active; 'I' for Inactive)
REMARK    1  A    between atoms: C_1  and  C_2
REMARK    2  A    between atoms: C_8  and  C_10
REMARK    3  A    between atoms: N_18  and  C_19
REMARK    4  A    between atoms: C_21  and  C_22
REMARK                            x       y       z     vdW  Elec       q    Type
REMARK                         _______ _______ _______ _____ _____    ______ ____
ROOT
ATOM      1  C   UNL     1       0.471  -4.260   2.013  0.00  0.00    +0.078 C 
ATOM      2  C   UNL     1      -0.305  -4.658   0.756  0.00  0.00    +0.032 C 
ATOM      3  C   UNL     1      -0.243  -6.178   0.582  0.00  0.00    +0.110 C 
ATOM      4  N   UNL     1      -0.725  -6.816   1.815  0.00  0.00    -0.286 N 
ATOM      5  C   UNL     1      -0.108  -6.437   3.094  0.00  0.00    +0.110 C 
ATOM      6  C   UNL     1      -0.171  -4.913   3.239  0.00  0.00    +0.032 C 
ATOM      7  C   UNL     1      -1.714  -7.730   1.774  0.00  0.00    +0.302 C 
ATOM      8  O   UNL     1      -2.169  -8.180   2.808  0.00  0.00    -0.253 OA
ATOM      9  N   UNL     1      -2.200  -8.145   0.587  0.00  0.00    -0.296 N 
ATOM     10  H   UNL     1      -1.888  -7.734  -0.235  0.00  0.00    +0.151 HD
ENDROOT
BRANCH   1  18
ATOM     11  C   UNL     1       4.066  -2.479  -0.993  0.00  0.00    +0.009 C 
ATOM     12  C   UNL     1       3.273  -1.975   0.214  0.00  0.00    +0.003 C 
ATOM     13  C   UNL     1       3.178  -0.448   0.161  0.00  0.00    +0.006 C 
ATOM     14  C   UNL     1       2.413   0.059   1.386  0.00  0.00    +0.019 C 
ATOM     15  C   UNL     1       0.993  -0.514   1.370  0.00  0.00    +0.108 C 
ATOM     16  N   UNL     1       1.075  -1.978   1.274  0.00  0.00    -0.301 N 
ATOM     17  C   UNL     1       1.863  -2.572   0.185  0.00  0.00    +0.111 C 
ATOM     18  C   UNL     1       0.441  -2.761   2.169  0.00  0.00    +0.219 C 
ATOM     19  O   UNL     1      -0.154  -2.260   3.100  0.00  0.00    -0.275 OA
ENDBRANCH   1  18
BRANCH   9  20
ATOM     20  C   UNL     1      -3.197  -9.216   0.538  0.00  0.00    +0.082 C 
ATOM     21  C   UNL     1      -4.386  -9.032  -0.407  0.00  0.00    +0.033 C 
ATOM     22  C   UNL     1      -3.287 -10.040  -0.748  0.00  0.00    +0.041 C 
BRANCH  22  23
ATOM     23  C   UNL     1      -2.342  -9.687  -1.867  0.00  0.00    -0.040 A 
ATOM     24  C   UNL     1      -2.367  -8.420  -2.420  0.00  0.00    +0.004 A 
ATOM     25  C   UNL     1      -1.501  -8.095  -3.447  0.00  0.00    +0.003 A 
ATOM     26  C   UNL     1      -0.608  -9.036  -3.923  0.00  0.00    +0.038 A 
ATOM     27  C   UNL     1      -0.582 -10.306  -3.370  0.00  0.00    +0.124 A 
ATOM     28  C   UNL     1      -1.446 -10.628  -2.337  0.00  0.00    +0.042 A 
ATOM     29  F   UNL     1       0.290 -11.227  -3.835  0.00  0.00    -0.205 F 
ENDBRANCH  22  23
ENDBRANCH   9  20
TORSDOF 3
