REMARK  Name = ZINC63919819
REMARK  7 active torsions:
REMARK  status: ('A' for Active; 'I' for Inactive)
REMARK    1  A    between atoms: C_1  and  C_2
REMARK    2  A    between atoms: C_4  and  C_28
REMARK    3  A    between atoms: C_8  and  C_10
REMARK    4  A    between atoms: C_10  and  C_11
REMARK    5  A    between atoms: N_13  and  C_14
REMARK    6  A    between atoms: C_14  and  C_16
REMARK    7  A    between atoms: C_14  and  C_17
REMARK                            x       y       z     vdW  Elec       q    Type
REMARK                         _______ _______ _______ _____ _____    ______ ____
ROOT
ATOM      1  C   UNL     1       1.190  -0.966   3.477  0.00  0.00    +0.215 C 
ATOM      2  O   UNL     1       0.287  -1.721   3.771  0.00  0.00    -0.276 OA
ATOM      3  N   UNL     1       2.127  -0.650   4.393  0.00  0.00    -0.309 N 
ATOM      4  H   UNL     1       2.850  -0.046   4.158  0.00  0.00    +0.149 HD
ENDROOT
BRANCH   3   5
ATOM      5  C   UNL     1       2.055  -1.217   5.742  0.00  0.00    +0.100 C 
ATOM      6  C   UNL     1       2.720  -2.594   5.752  0.00  0.00    +0.033 C 
BRANCH   5   7
ATOM      7  C   UNL     1       2.769  -0.307   6.708  0.00  0.00    -0.026 A 
ATOM      8  C   UNL     1       3.951   0.305   6.334  0.00  0.00    +0.009 A 
ATOM      9  C   UNL     1       4.612   1.142   7.214  0.00  0.00    +0.048 A 
ATOM     10  C   UNL     1       4.088   1.369   8.475  0.00  0.00    +0.142 A 
ATOM     11  C   UNL     1       2.896   0.752   8.852  0.00  0.00    +0.076 A 
ATOM     12  C   UNL     1       2.236  -0.081   7.964  0.00  0.00    +0.032 A 
ATOM     13  N   UNL     1       2.377   0.988  10.133  0.00  0.00    -0.280 N 
ATOM     14  C   UNL     1       2.853   2.030  10.850  0.00  0.00    +0.255 C 
ATOM     15  O   UNL     1       2.441   2.235  11.972  0.00  0.00    -0.272 OA
ATOM     16  C   UNL     1       3.896   2.937  10.249  0.00  0.00    +0.325 C 
ATOM     17  O   UNL     1       4.723   2.190   9.353  0.00  0.00    -0.481 OA
ATOM     18  H   UNL     1       1.688   0.412  10.499  0.00  0.00    +0.155 HD
ENDBRANCH   5   7
ENDBRANCH   3   5
BRANCH   1  19
ATOM     19  C   UNL     1       1.264  -0.383   2.090  0.00  0.00    +0.114 C 
BRANCH  19  27
ATOM     20  C   UNL     1       1.186  -2.983   0.428  0.00  0.00    +0.061 C 
ATOM     21  C   UNL     1       0.038  -2.293   1.118  0.00  0.00    +0.030 C 
ATOM     22  N   UNL     1      -0.972  -2.967   1.587  0.00  0.00    -0.243 NA
ATOM     23  C   UNL     1      -2.002  -2.384   2.202  0.00  0.00    +0.119 C 
ATOM     24  N   UNL     1      -2.132  -1.103   2.410  0.00  0.00    -0.165 NA
ATOM     25  C   UNL     1      -1.201  -0.222   2.007  0.00  0.00    +0.247 C 
ATOM     26  O   UNL     1      -1.327   0.970   2.203  0.00  0.00    -0.273 OA
ATOM     27  C   UNL     1       0.018  -0.787   1.300  0.00  0.00    +0.130 C 
ATOM     28  C   UNL     1      -3.108  -3.280   2.697  0.00  0.00    +0.085 C 
ENDBRANCH  19  27
ENDBRANCH   1  19
TORSDOF 4
