REMARK  Name = ZINC20100665
REMARK  6 active torsions:
REMARK  status: ('A' for Active; 'I' for Inactive)
REMARK    1  A    between atoms: C_4  and  C_7
REMARK    2  A    between atoms: C_13  and  C_15
REMARK    3  A    between atoms: C_15  and  N_16
REMARK    4  A    between atoms: N_19  and  C_22
REMARK    5  A    between atoms: C_22  and  C_23
REMARK    6  A    between atoms: C_22  and  C_30
REMARK                            x       y       z     vdW  Elec       q    Type
REMARK                         _______ _______ _______ _____ _____    ______ ____
ROOT
ATOM      1  N   UNL     1      -3.826   5.372  -0.318  0.00  0.00    +0.387 N 
ATOM      2  C   UNL     1      -3.580   6.163   0.896  0.00  0.00    -0.063 C 
ATOM      3  C   UNL     1      -4.565   7.334   0.947  0.00  0.00    +0.067 C 
ATOM      4  N   UNL     1      -5.940   6.816   0.929  0.00  0.00    -0.295 NA
ATOM      5  C   UNL     1      -6.186   6.024  -0.285  0.00  0.00    +0.067 C 
ATOM      6  C   UNL     1      -5.201   4.854  -0.335  0.00  0.00    -0.063 C 
ATOM      7  H   UNL     1      -3.702   6.035  -1.187  0.00  0.00    -0.081 HD
ENDROOT
BRANCH   1   8
ATOM      8  C   UNL     1      -2.851   4.281  -0.441  0.00  0.00    +0.021 C 
BRANCH   8  14
ATOM      9  C   UNL     1       0.975   4.466  -1.033  0.00  0.00    +0.136 C 
ATOM     10  C   UNL     1       1.744   3.133  -1.119  0.00  0.00    +0.078 C 
ATOM     11  C   UNL     1       0.672   2.084  -0.929  0.00  0.00    +0.105 C 
ATOM     12  N   UNL     1      -0.456   2.646  -0.775  0.00  0.00    -0.189 NA
ATOM     13  N   UNL     1      -0.417   4.039  -0.809  0.00  0.00    -0.187 N 
ATOM     14  C   UNL     1      -1.477   4.858  -0.666  0.00  0.00    +0.219 C 
ATOM     15  O   UNL     1      -1.325   6.061  -0.718  0.00  0.00    -0.276 OA
BRANCH   9  19
ATOM     16  C   UNL     1       2.386   6.814   2.245  0.00  0.00    +0.000 A 
ATOM     17  C   UNL     1       2.795   7.108   0.958  0.00  0.00    +0.000 A 
ATOM     18  C   UNL     1       2.338   6.348  -0.103  0.00  0.00    +0.005 A 
ATOM     19  C   UNL     1       1.473   5.294   0.123  0.00  0.00    -0.025 A 
ATOM     20  C   UNL     1       1.060   5.003   1.410  0.00  0.00    +0.005 A 
ATOM     21  C   UNL     1       1.520   5.760   2.471  0.00  0.00    +0.000 A 
ENDBRANCH   9  19
ENDBRANCH   8  14
ENDBRANCH   1   8
BRANCH   4  22
ATOM     22  C   UNL     1      -6.915   7.907   1.052  0.00  0.00    +0.117 C 
BRANCH  22  23
ATOM     23  C   UNL     1      -8.300   7.329   1.196  0.00  0.00    -0.026 A 
ATOM     24  C   UNL     1      -8.515   6.251   2.035  0.00  0.00    +0.008 A 
ATOM     25  C   UNL     1      -9.785   5.724   2.171  0.00  0.00    +0.038 A 
ATOM     26  C   UNL     1     -10.840   6.268   1.459  0.00  0.00    +0.123 A 
ATOM     27  C   UNL     1     -10.623   7.345   0.616  0.00  0.00    +0.038 A 
ATOM     28  C   UNL     1      -9.353   7.874   0.485  0.00  0.00    +0.008 A 
ATOM     29  F   UNL     1     -12.081   5.750   1.588  0.00  0.00    -0.205 F 
ENDBRANCH  22  23
BRANCH  22  30
ATOM     30  C   UNL     1      -6.589   8.738   2.267  0.00  0.00    -0.026 A 
ATOM     31  C   UNL     1      -6.284   8.119   3.465  0.00  0.00    +0.008 A 
ATOM     32  C   UNL     1      -5.980   8.879   4.578  0.00  0.00    +0.038 A 
ATOM     33  C   UNL     1      -5.991  10.261   4.496  0.00  0.00    +0.123 A 
ATOM     34  C   UNL     1      -6.302  10.880   3.297  0.00  0.00    +0.038 A 
ATOM     35  C   UNL     1      -6.601  10.117   2.184  0.00  0.00    +0.008 A 
ATOM     36  F   UNL     1      -5.699  11.006   5.585  0.00  0.00    -0.205 F 
ENDBRANCH  22  30
ENDBRANCH   4  22
TORSDOF 6
