REMARK  Name = ZINC38195453
REMARK  10 active torsions:
REMARK  status: ('A' for Active; 'I' for Inactive)
REMARK    1  A    between atoms: C_1  and  C_2
REMARK    2  A    between atoms: C_2  and  C_4
REMARK    3  A    between atoms: C_2  and  N_24
REMARK    4  A    between atoms: N_14  and  C_15
REMARK    5  A    between atoms: C_18  and  O_21
REMARK    6  A    between atoms: O_21  and  C_22
REMARK    7  A    between atoms: N_24  and  C_25
REMARK    8  A    between atoms: C_25  and  C_26
REMARK    9  A    between atoms: C_26  and  C_27
REMARK   10  A    between atoms: C_26  and  C_28
REMARK                            x       y       z     vdW  Elec       q    Type
REMARK                         _______ _______ _______ _____ _____    ______ ____
ROOT
ATOM      1  C   UNL     1      -1.636  -0.256   0.274  0.00  0.00    +0.103 A 
ATOM      2  N   UNL     1      -1.934  -1.024   1.278  0.00  0.00    -0.235 NA
ATOM      3  C   UNL     1      -2.891  -1.980   1.182  0.00  0.00    +0.079 A 
ATOM      4  C   UNL     1      -3.213  -2.806   2.260  0.00  0.00    +0.048 A 
ATOM      5  C   UNL     1      -4.194  -3.763   2.114  0.00  0.00    +0.043 A 
ATOM      6  C   UNL     1      -4.865  -3.915   0.906  0.00  0.00    +0.021 A 
ATOM      7  C   UNL     1      -4.567  -3.117  -0.164  0.00  0.00    +0.017 A 
ATOM      8  C   UNL     1      -3.580  -2.142  -0.042  0.00  0.00    +0.065 A 
ATOM      9  C   UNL     1      -3.219  -1.257  -1.158  0.00  0.00    +0.266 A 
ATOM     10  O   UNL     1      -3.774  -1.344  -2.238  0.00  0.00    -0.267 OA
ATOM     11  N   UNL     1      -2.250  -0.338  -0.937  0.00  0.00    -0.266 N 
ATOM     12 CL   UNL     1      -4.596  -4.792   3.454  0.00  0.00    -0.083 Cl
ENDROOT
BRANCH  11  13
ATOM     13  C   UNL     1      -1.873   0.534  -1.968  0.00  0.00    +0.051 A 
ATOM     14  C   UNL     1      -0.864   0.172  -2.850  0.00  0.00    +0.030 A 
ATOM     15  C   UNL     1      -0.492   1.031  -3.865  0.00  0.00    +0.047 A 
ATOM     16  C   UNL     1      -1.126   2.257  -4.003  0.00  0.00    +0.120 A 
ATOM     17  C   UNL     1      -2.135   2.620  -3.122  0.00  0.00    +0.047 A 
ATOM     18  C   UNL     1      -2.511   1.759  -2.110  0.00  0.00    +0.030 A 
BRANCH  16  19
ATOM     19  O   UNL     1      -0.759   3.103  -5.001  0.00  0.00    -0.495 OA
ATOM     20  C   UNL     1      -1.455   4.349  -5.084  0.00  0.00    +0.277 C 
ENDBRANCH  16  19
ENDBRANCH  11  13
BRANCH   1  22
ATOM     21  C   UNL     1      -1.168   2.038   1.092  0.00  0.00    -0.006 C 
ATOM     22  C   UNL     1      -0.561   0.783   0.462  0.00  0.00    -0.007 C 
BRANCH  22  23
ATOM     23  N   UNL     1       0.486   0.249   1.343  0.00  0.00    +0.386 N 
ATOM     24  H   UNL     1       0.103   0.092   2.263  0.00  0.00    -0.085 HD
ATOM     25  H   UNL     1       0.830  -0.623   0.968  0.00  0.00    -0.085 HD
BRANCH  23  26
ATOM     26  C   UNL     1       1.591   1.213   1.431  0.00  0.00    -0.079 C 
BRANCH  26  27
ATOM     27  C   UNL     1       2.682   0.658   2.349  0.00  0.00    -0.034 C 
ATOM     28  C   UNL     1       3.885   1.603   2.342  0.00  0.00    +0.005 C 
ATOM     29  C   UNL     1       2.136   0.537   3.773  0.00  0.00    +0.005 C 
ENDBRANCH  26  27
ENDBRANCH  23  26
ENDBRANCH  22  23
ENDBRANCH   1  22
TORSDOF 6
