REMARK  Name = ZINC22194360
REMARK  6 active torsions:
REMARK  status: ('A' for Active; 'I' for Inactive)
REMARK    1  A    between atoms: C_1  and  C_2
REMARK    2  A    between atoms: C_2  and  N_3
REMARK    3  A    between atoms: N_10  and  C_13
REMARK    4  A    between atoms: C_13  and  C_14
REMARK    5  A    between atoms: C_17  and  C_25
REMARK    6  A    between atoms: C_22  and  C_24
REMARK                            x       y       z     vdW  Elec       q    Type
REMARK                         _______ _______ _______ _____ _____    ______ ____
ROOT
ATOM      1  N   UNL     1      -6.874   3.424  -0.790  0.00  0.00    -0.292 N 
ATOM      2  C   UNL     1      -7.109   3.771   0.538  0.00  0.00    +0.070 A 
ATOM      3  C   UNL     1      -7.941   4.699   1.146  0.00  0.00    +0.028 A 
ATOM      4  C   UNL     1      -7.954   4.813   2.522  0.00  0.00    +0.002 A 
ATOM      5  C   UNL     1      -7.140   4.005   3.297  0.00  0.00    +0.002 A 
ATOM      6  C   UNL     1      -6.309   3.077   2.701  0.00  0.00    +0.028 A 
ATOM      7  C   UNL     1      -6.293   2.951   1.320  0.00  0.00    +0.070 A 
ATOM      8  N   UNL     1      -5.580   2.138   0.443  0.00  0.00    -0.283 N 
ATOM      9  C   UNL     1      -5.952   2.442  -0.815  0.00  0.00    +0.331 A 
ATOM     10  O   UNL     1      -5.521   1.911  -1.821  0.00  0.00    -0.246 OA
ENDROOT
BRANCH   1  12
ATOM     11  C   UNL     1      -8.793   3.245  -2.296  0.00  0.00    +0.027 C 
ATOM     12  C   UNL     1      -7.519   4.023  -1.960  0.00  0.00    +0.123 C 
ENDBRANCH   1  12
BRANCH   8  13
ATOM     13  C   UNL     1      -4.597   1.121   0.824  0.00  0.00    +0.222 C 
BRANCH  13  14
ATOM     14  C   UNL     1      -3.226   1.744   0.884  0.00  0.00    +0.236 C 
ATOM     15  O   UNL     1      -3.069   2.898   0.543  0.00  0.00    -0.274 OA
ATOM     16  N   UNL     1      -2.175   1.021   1.317  0.00  0.00    -0.294 N 
ATOM     17  C   UNL     1      -0.855   1.644   1.484  0.00  0.00    +0.073 C 
ATOM     18  C   UNL     1       0.178   0.828   0.701  0.00  0.00    +0.022 C 
ATOM     19  C   UNL     1       0.112  -0.635   1.148  0.00  0.00    +0.004 C 
ATOM     20  C   UNL     1      -1.278  -1.200   0.848  0.00  0.00    +0.022 C 
ATOM     21  C   UNL     1      -2.328  -0.406   1.633  0.00  0.00    +0.073 C 
ATOM     22  C   UNL     1      -2.120  -0.625   3.132  0.00  0.00    +0.028 C 
ATOM     23  C   UNL     1      -0.892   3.076   0.946  0.00  0.00    +0.028 C 
ENDBRANCH  13  14
ENDBRANCH   8  13
TORSDOF 3
