REMARK  Name = ZINC20444276
REMARK  4 active torsions:
REMARK  status: ('A' for Active; 'I' for Inactive)
REMARK    1  A    between atoms: C_4  and  C_7
REMARK    2  A    between atoms: C_12  and  C_14
REMARK    3  A    between atoms: N_19  and  C_20
REMARK    4  A    between atoms: C_20  and  C_21
REMARK                            x       y       z     vdW  Elec       q    Type
REMARK                         _______ _______ _______ _____ _____    ______ ____
ROOT
ATOM      1  C   UNL     1       1.214  -3.973  -4.088  0.00  0.00    +0.281 C 
ATOM      2  O   UNL     1       1.088  -2.765  -4.133  0.00  0.00    -0.265 OA
ATOM      3  N   UNL     1       1.253  -4.602  -2.897  0.00  0.00    -0.162 N 
ATOM      4  C   UNL     1       1.267  -4.019  -1.664  0.00  0.00    +0.222 A 
ATOM      5  N   UNL     1       1.313  -4.975  -0.765  0.00  0.00    -0.190 NA
ATOM      6  C   UNL     1       1.321  -6.172  -1.377  0.00  0.00    +0.219 A 
ATOM      7  N   UNL     1       1.288  -5.989  -2.679  0.00  0.00    -0.137 NA
ATOM      8  N   UNL     1       1.243  -2.663  -1.406  0.00  0.00    -0.309 N 
ATOM      9  H   UNL     1       1.210  -1.946  -2.239  0.00  0.00    +0.149 HD
ENDROOT
BRANCH   1  13
ATOM     10  C   UNL     1       1.531  -6.210  -7.684  0.00  0.00    +0.000 A 
ATOM     11  C   UNL     1       1.512  -4.827  -7.732  0.00  0.00    +0.001 A 
ATOM     12  C   UNL     1       1.409  -4.094  -6.569  0.00  0.00    +0.013 A 
ATOM     13  C   UNL     1       1.324  -4.751  -5.339  0.00  0.00    +0.041 A 
ATOM     14  C   UNL     1       1.349  -6.147  -5.297  0.00  0.00    +0.013 A 
ATOM     15  C   UNL     1       1.447  -6.867  -6.469  0.00  0.00    +0.001 A 
ENDBRANCH   1  13
BRANCH   6  16
ATOM     16  C   UNL     1       1.365  -7.482  -0.696  0.00  0.00    +0.173 A 
ATOM     17  C   UNL     1       1.379  -8.698  -1.305  0.00  0.00    +0.053 A 
ATOM     18  C   UNL     1       1.423  -9.664  -0.281  0.00  0.00    +0.042 A 
ATOM     19  C   UNL     1       1.434  -8.998   0.891  0.00  0.00    +0.196 A 
ATOM     20  O   UNL     1       1.405  -7.680   0.636  0.00  0.00    -0.460 OA
ENDBRANCH   6  16
BRANCH   8  21
ATOM     21  C   UNL     1       1.262  -2.180  -0.023  0.00  0.00    +0.139 C 
BRANCH  21  22
ATOM     22  C   UNL     1       1.230  -0.673  -0.017  0.00  0.00    -0.030 A 
ATOM     23  C   UNL     1       0.018  -0.009   0.011  0.00  0.00    +0.006 A 
ATOM     24  C   UNL     1      -0.012   1.373   0.017  0.00  0.00    +0.020 A 
ATOM     25  C   UNL     1       1.170   2.091  -0.006  0.00  0.00    +0.041 A 
ATOM     26  C   UNL     1       2.382   1.425  -0.035  0.00  0.00    +0.020 A 
ATOM     27  C   UNL     1       2.412   0.043  -0.040  0.00  0.00    +0.006 A 
ATOM     28 CL   UNL     1       1.133   3.827   0.001  0.00  0.00    -0.084 Cl
ENDBRANCH  21  22
ENDBRANCH   8  21
TORSDOF 4
