REMARK  Name = ZINC66512100
REMARK  4 active torsions:
REMARK  status: ('A' for Active; 'I' for Inactive)
REMARK    1  A    between atoms: C_1  and  C_2
REMARK    2  A    between atoms: C_2  and  C_22
REMARK    3  A    between atoms: C_5  and  C_16
REMARK    4  A    between atoms: C_9  and  C_11
REMARK                            x       y       z     vdW  Elec       q    Type
REMARK                         _______ _______ _______ _____ _____    ______ ____
ROOT
ATOM      1  C   UNL     1       0.053   1.515  -0.055  0.00  0.00    +0.034 C 
ATOM      2  C   UNL     1      -0.011  -0.012   0.015  0.00  0.00    +0.055 C 
ATOM      3  C   UNL     1      -1.465  -0.460   0.198  0.00  0.00    +0.186 C 
ATOM      4  O   UNL     1      -1.496  -1.868   0.448  0.00  0.00    -0.368 OA
ATOM      5  C   UNL     1      -0.828  -2.264   1.648  0.00  0.00    +0.166 C 
ATOM      6  C   UNL     1       0.659  -1.908   1.539  0.00  0.00    +0.145 C 
ATOM      7  N   UNL     1       0.770  -0.489   1.167  0.00  0.00    -0.287 N 
ATOM      8  C   UNL     1       1.565   0.350   1.861  0.00  0.00    +0.257 C 
ATOM      9  O   UNL     1       1.547   1.542   1.621  0.00  0.00    -0.269 OA
ATOM     10  C   UNL     1       0.555  -0.611  -1.275  0.00  0.00    +0.034 C 
ENDROOT
BRANCH   5  11
ATOM     11  C   UNL     1      -0.978  -3.751   1.840  0.00  0.00    -0.017 A 
ATOM     12  C   UNL     1      -0.881  -4.601   0.754  0.00  0.00    +0.006 A 
ATOM     13  C   UNL     1      -1.018  -5.966   0.930  0.00  0.00    +0.000 A 
ATOM     14  C   UNL     1      -1.253  -6.479   2.192  0.00  0.00    +0.000 A 
ATOM     15  C   UNL     1      -1.350  -5.629   3.278  0.00  0.00    +0.000 A 
ATOM     16  C   UNL     1      -1.208  -4.265   3.102  0.00  0.00    +0.006 A 
ENDBRANCH   5  11
BRANCH   8  17
ATOM     17  C   UNL     1       2.453  -0.177   2.910  0.00  0.00    +0.114 A 
ATOM     18  C   UNL     1       3.231   0.498   3.843  0.00  0.00    +0.157 A 
ATOM     19  N   UNL     1       3.914  -0.281   4.644  0.00  0.00    -0.149 NA
ATOM     20  N   UNL     1       3.862  -1.563   4.566  0.00  0.00    -0.110 NA
ATOM     21  S   UNL     1       2.832  -1.865   3.350  0.00  0.00    +0.041 S 
ENDBRANCH   8  17
TORSDOF 2
