REMARK  Name = ZINC13125487
REMARK  4 active torsions:
REMARK  status: ('A' for Active; 'I' for Inactive)
REMARK    1  A    between atoms: C_1  and  C_2
REMARK    2  A    between atoms: C_9  and  S_11
REMARK    3  A    between atoms: S_11  and  C_12
REMARK    4  A    between atoms: C_12  and  C_13
REMARK                            x       y       z     vdW  Elec       q    Type
REMARK                         _______ _______ _______ _____ _____    ______ ____
ROOT
ATOM      1  S   UNL     1       0.090  -5.569   2.704  0.00  0.00    -0.078 S 
ENDROOT
BRANCH   1  10
ATOM      2  C   UNL     1      -0.018   1.503   0.010  0.00  0.00    +0.067 C 
ATOM      3  C   UNL     1       0.002  -0.004   0.002  0.00  0.00    +0.055 A 
ATOM      4  C   UNL     1       0.005  -0.676  -1.210  0.00  0.00    +0.041 A 
ATOM      5  C   UNL     1       0.024  -2.062  -1.220  0.00  0.00    +0.048 A 
ATOM      6  C   UNL     1       0.039  -2.727  -0.004  0.00  0.00    +0.112 A 
ATOM      7  C   UNL     1       0.035  -1.985   1.191  0.00  0.00    +0.181 A 
ATOM      8  N   UNL     1       0.022  -0.655   1.146  0.00  0.00    -0.230 NA
ATOM      9  N   UNL     1       0.052  -2.878   2.212  0.00  0.00    -0.201 NA
ATOM     10  C   UNL     1       0.066  -4.099   1.732  0.00  0.00    +0.191 A 
ATOM     11  N   UNL     1       0.059  -4.061   0.367  0.00  0.00    -0.219 NA
ATOM     12 BR   UNL     1      -0.016   0.290  -2.835  0.00  0.00    -0.048 Br
ENDBRANCH   1  10
BRANCH   1  13
ATOM     13  C   UNL     1       0.089  -4.964   4.414  0.00  0.00    +0.151 C 
BRANCH  13  14
ATOM     14  C   UNL     1       0.109  -6.136   5.361  0.00  0.00    +0.118 A 
ATOM     15  N   UNL     1      -0.996  -6.761   5.851  0.00  0.00    -0.341 N 
ATOM     16  H   UNL     1      -1.919  -6.534   5.656  0.00  0.00    +0.167 HD
ATOM     17  C   UNL     1      -0.560  -7.777   6.678  0.00  0.00    +0.066 A 
ATOM     18  C   UNL     1      -1.200  -8.739   7.447  0.00  0.00    +0.028 A 
ATOM     19  C   UNL     1      -0.452  -9.635   8.181  0.00  0.00    +0.002 A 
ATOM     20  C   UNL     1       0.934  -9.580   8.156  0.00  0.00    +0.002 A 
ATOM     21  C   UNL     1       1.581  -8.640   7.405  0.00  0.00    +0.030 A 
ATOM     22  C   UNL     1       0.844  -7.722   6.653  0.00  0.00    +0.089 A 
ATOM     23  N   UNL     1       1.185  -6.701   5.825  0.00  0.00    -0.232 NA
ENDBRANCH  13  14
ENDBRANCH   1  13
TORSDOF 3
