REMARK  Name = ZINC19562107
REMARK  7 active torsions:
REMARK  status: ('A' for Active; 'I' for Inactive)
REMARK    1  A    between atoms: C_1  and  O_2
REMARK    2  A    between atoms: O_2  and  C_3
REMARK    3  A    between atoms: N_16  and  C_26
REMARK    4  A    between atoms: C_18  and  C_20
REMARK    5  A    between atoms: N_22  and  C_23
REMARK    6  A    between atoms: C_23  and  C_24
REMARK    7  A    between atoms: C_26  and  C_27
REMARK                            x       y       z     vdW  Elec       q    Type
REMARK                         _______ _______ _______ _____ _____    ______ ____
ROOT
ATOM      1  C   UNL     1      -2.371  -0.037  -0.052  0.00  0.00    +0.121 A 
ATOM      2  C   UNL     1      -2.378   1.352  -0.041  0.00  0.00    +0.046 A 
ATOM      3  C   UNL     1      -1.188   2.057  -0.026  0.00  0.00    +0.008 A 
ATOM      4  C   UNL     1       0.014   1.382  -0.021  0.00  0.00    -0.035 A 
ATOM      5  C   UNL     1       0.030  -0.015  -0.021  0.00  0.00    +0.043 A 
ATOM      6  C   UNL     1      -1.168  -0.724  -0.043  0.00  0.00    +0.059 A 
ATOM      7  C   UNL     1       1.328  -0.725   0.013  0.00  0.00    +0.245 C 
ATOM      8  O   UNL     1       1.564  -1.631  -0.763  0.00  0.00    -0.270 OA
ATOM      9  N   UNL     1       2.243  -0.341   0.928  0.00  0.00    -0.307 N 
ATOM     10  C   UNL     1       1.886   0.663   1.925  0.00  0.00    +0.030 C 
ATOM     11  C   UNL     1       1.965   2.074   1.362  0.00  0.00    +0.029 C 
ATOM     12  C   UNL     1       1.317   2.138  -0.021  0.00  0.00    +0.038 C 
ATOM     13  C   UNL     1       0.463   0.387   2.450  0.00  0.00    -0.052 C 
ATOM     14  N   UNL     1       0.669  -0.429   3.675  0.00  0.00    +0.384 N 
ATOM     15  C   UNL     1       1.859   0.181   4.324  0.00  0.00    -0.064 C 
ATOM     16  C   UNL     1       2.805   0.531   3.154  0.00  0.00    +0.080 C 
ATOM     17  H   UNL     1       3.252  -0.779   0.925  0.00  0.00    +0.149 HD
ATOM     18  H   UNL     1       0.806  -1.498   3.456  0.00  0.00    -0.081 HD
ENDROOT
BRANCH  16  19
ATOM     19  C   UNL     1       3.511   1.835   3.423  0.00  0.00    +0.217 C 
ATOM     20  O   UNL     1       2.969   2.691   4.090  0.00  0.00    -0.276 OA
ATOM     21  N   UNL     1       4.744   2.049   2.923  0.00  0.00    -0.312 N 
ATOM     22  H   UNL     1       5.235   1.272   2.319  0.00  0.00    +0.149 HD
BRANCH  21  23
ATOM     23  C   UNL     1       5.430   3.317   3.185  0.00  0.00    +0.131 C 
BRANCH  23  24
ATOM     24  C   UNL     1       6.782   3.303   2.520  0.00  0.00    -0.016 C 
ATOM     25  C   UNL     1       7.112   4.258   1.686  0.00  0.00    +0.005 C 
ENDBRANCH  23  24
ENDBRANCH  21  23
ENDBRANCH  16  19
BRANCH   1  27
ATOM     26  C   UNL     1      -4.746   0.051  -0.082  0.00  0.00    +0.277 C 
ATOM     27  O   UNL     1      -3.544  -0.722  -0.073  0.00  0.00    -0.495 OA
ENDBRANCH   1  27
BRANCH  14  28
ATOM     28  C   UNL     1      -0.504  -0.361   4.557  0.00  0.00    -0.043 C 
BRANCH  28  29
ATOM     29  C   UNL     1      -0.959   1.070   4.679  0.00  0.00    -0.064 A 
ATOM     30  C   UNL     1      -0.453   1.873   5.684  0.00  0.00    +0.002 A 
ATOM     31  C   UNL     1      -0.867   3.187   5.793  0.00  0.00    +0.000 A 
ATOM     32  C   UNL     1      -1.795   3.696   4.903  0.00  0.00    +0.000 A 
ATOM     33  C   UNL     1      -2.305   2.891   3.901  0.00  0.00    +0.000 A 
ATOM     34  C   UNL     1      -1.887   1.578   3.789  0.00  0.00    +0.002 A 
ENDBRANCH  28  29
ENDBRANCH  14  28
TORSDOF 6
