REMARK  Name = ZINC01067850
REMARK  4 active torsions:
REMARK  status: ('A' for Active; 'I' for Inactive)
REMARK    1  A    between atoms: C_1  and  C_2
REMARK    2  A    between atoms: C_2  and  C_4
REMARK    3  A    between atoms: C_10  and  S_16
REMARK    4  A    between atoms: S_16  and  N_19
REMARK                            x       y       z     vdW  Elec       q    Type
REMARK                         _______ _______ _______ _____ _____    ______ ____
ROOT
ATOM      1  C   UNL     1       5.295  -2.812  -4.872  0.00  0.00    +0.255 C 
ATOM      2  O   UNL     1       4.534  -3.734  -4.670  0.00  0.00    -0.271 OA
ATOM      3  N   UNL     1       5.559  -1.929  -3.889  0.00  0.00    -0.211 N 
ATOM      4  C   UNL     1       4.953  -1.885  -2.631  0.00  0.00    +0.098 A 
ATOM      5  C   UNL     1       3.974  -2.651  -2.019  0.00  0.00    +0.032 A 
ATOM      6  C   UNL     1       3.578  -2.357  -0.729  0.00  0.00    +0.031 A 
ATOM      7  C   UNL     1       4.148  -1.294  -0.051  0.00  0.00    +0.109 A 
ATOM      8  C   UNL     1       5.125  -0.526  -0.655  0.00  0.00    +0.077 A 
ATOM      9  C   UNL     1       5.533  -0.817  -1.947  0.00  0.00    +0.159 A 
ATOM     10  O   UNL     1       6.446  -0.255  -2.777  0.00  0.00    -0.407 OA
ATOM     11  C   UNL     1       6.458  -0.925  -3.940  0.00  0.00    +0.428 A 
ATOM     12  O   UNL     1       7.168  -0.666  -4.891  0.00  0.00    -0.222 OA
ENDROOT
BRANCH   1  14
ATOM     13  C   UNL     1       4.902  -2.883  -7.320  0.00  0.00    +0.034 C 
ATOM     14  C   UNL     1       5.944  -2.654  -6.223  0.00  0.00    +0.166 C 
ATOM     15 CL   UNL     1       7.274  -3.859  -6.395  0.00  0.00    -0.112 Cl
ENDBRANCH   1  14
BRANCH   7  16
ATOM     16  S   UNL     1       3.631  -0.922   1.592  0.00  0.00    +0.061 S 
ATOM     17  O   UNL     1       4.705  -0.225   2.208  0.00  0.00    -0.153 OA
ATOM     18  O   UNL     1       3.094  -2.123   2.130  0.00  0.00    -0.153 OA
BRANCH  16  19
ATOM     19  N   UNL     1       2.374   0.150   1.479  0.00  0.00    -0.177 NA
ATOM     20  C   UNL     1       0.988  -0.329   1.389  0.00  0.00    +0.109 C 
ATOM     21  C   UNL     1       0.328   0.301   0.158  0.00  0.00    +0.017 C 
ATOM     22  C   UNL     1       0.464   1.823   0.234  0.00  0.00    +0.003 C 
ATOM     23  C   UNL     1       1.946   2.206   0.236  0.00  0.00    +0.017 C 
ATOM     24  C   UNL     1       2.624   1.598   1.468  0.00  0.00    +0.109 C 
ENDBRANCH  16  19
ENDBRANCH   7  16
TORSDOF 3
