REMARK  Name = ZINC07984887
REMARK  0 active torsions:
REMARK  status: ('A' for Active; 'I' for Inactive)
REMARK                            x       y       z     vdW  Elec       q    Type
REMARK                         _______ _______ _______ _____ _____    ______ ____
ROOT
ATOM      1  C   UNL     1       0.050  -4.816  -0.012  0.00  0.00    +0.224 A 
ATOM      2  N   UNL     1       1.289  -4.523  -0.354  0.00  0.00    -0.220 NA
ATOM      3  C   UNL     1       1.750  -3.280  -0.485  0.00  0.00    +0.134 A 
ATOM      4  C   UNL     1       0.810  -2.240  -0.231  0.00  0.00    +0.051 A 
ATOM      5  C   UNL     1       1.047  -0.807  -0.302  0.00  0.00    -0.025 A 
ATOM      6  C   UNL     1      -0.003  -0.004  -0.018  0.00  0.00    -0.004 A 
ATOM      7  S   UNL     1      -1.346  -1.104   0.355  0.00  0.00    -0.073 S 
ATOM      8  C   UNL     1      -0.502  -2.636   0.131  0.00  0.00    +0.114 A 
ATOM      9  N   UNL     1      -0.874  -3.896   0.238  0.00  0.00    -0.228 NA
ATOM     10  C   UNL     1      -0.026   1.493  -0.018  0.00  0.00    +0.043 C 
ATOM     11  C   UNL     1       1.422   2.002  -0.030  0.00  0.00    +0.005 C 
ATOM     12  C   UNL     1       2.199   1.242  -1.110  0.00  0.00    +0.005 C 
ATOM     13  C   UNL     1       2.401  -0.210  -0.677  0.00  0.00    +0.037 C 
ATOM     14  N   UNL     1       3.059  -3.017  -0.846  0.00  0.00    -0.304 N 
ATOM     15  C   UNL     1       3.383  -3.631  -2.143  0.00  0.00    +0.126 C 
ATOM     16  C   UNL     1       4.714  -3.061  -2.638  0.00  0.00    +0.123 C 
ATOM     17  N   UNL     1       5.720  -3.154  -1.583  0.00  0.00    -0.313 N 
ATOM     18  C   UNL     1       5.409  -3.331  -0.295  0.00  0.00    +0.230 C 
ATOM     19  O   UNL     1       6.306  -3.367   0.520  0.00  0.00    -0.274 OA
ATOM     20  C   UNL     1       3.994  -3.488   0.185  0.00  0.00    +0.202 C 
ATOM     21  H   UNL     1       6.656  -3.084  -1.829  0.00  0.00    +0.149 HD
ENDROOT
TORSDOF 0
