REMARK  Name = ZINC04083886
REMARK  3 active torsions:
REMARK  status: ('A' for Active; 'I' for Inactive)
REMARK    1  A    between atoms: C_4  and  C_7
REMARK    2  A    between atoms: C_7  and  C_8
REMARK    3  A    between atoms: N_16  and  C_19
REMARK                            x       y       z     vdW  Elec       q    Type
REMARK                         _______ _______ _______ _____ _____    ______ ____
ROOT
ATOM      1  C   UNL     1      -0.349  -2.172   4.097  0.00  0.00    -0.053 C 
ATOM      2  C   UNL     1      -1.079  -0.976   3.449  0.00  0.00    +0.073 C 
ATOM      3  C   UNL     1      -2.191  -1.615   2.571  0.00  0.00    +0.088 C 
ATOM      4  C   UNL     1      -1.789  -1.227   1.165  0.00  0.00    +0.225 C 
ATOM      5  O   UNL     1      -2.400  -1.512   0.158  0.00  0.00    -0.275 OA
ATOM      6  N   UNL     1      -0.653  -0.521   1.206  0.00  0.00    -0.239 N 
ATOM      7  C   UNL     1      -0.167  -0.322   2.437  0.00  0.00    +0.224 C 
ATOM      8  O   UNL     1       0.848   0.288   2.699  0.00  0.00    -0.275 OA
ATOM      9  C   UNL     1      -2.013  -3.126   2.763  0.00  0.00    +0.050 C 
ATOM     10  C   UNL     1      -2.313  -3.881   1.499  0.00  0.00    -0.028 A 
ATOM     11  C   UNL     1      -1.784  -3.853   0.229  0.00  0.00    +0.004 A 
ATOM     12  C   UNL     1      -2.285  -4.692  -0.750  0.00  0.00    +0.000 A 
ATOM     13  C   UNL     1      -3.318  -5.560  -0.449  0.00  0.00    +0.002 A 
ATOM     14  C   UNL     1      -3.852  -5.593   0.823  0.00  0.00    +0.023 A 
ATOM     15  C   UNL     1      -3.353  -4.752   1.815  0.00  0.00    +0.036 A 
ATOM     16  N   UNL     1      -3.718  -4.602   3.154  0.00  0.00    -0.286 N 
ATOM     17  C   UNL     1      -2.978  -3.667   3.781  0.00  0.00    +0.211 C 
ATOM     18  O   UNL     1      -3.072  -3.329   4.942  0.00  0.00    -0.277 OA
ATOM     19  H   UNL     1      -4.423  -5.112   3.583  0.00  0.00    +0.155 HD
ATOM     20  N   UNL     1      -0.637  -3.292   3.199  0.00  0.00    +0.394 N 
ATOM     21  H   UNL     1      -0.528  -4.183   3.696  0.00  0.00    -0.083 HD
ATOM     22  H   UNL     1      -0.004  -3.271   2.391  0.00  0.00    -0.083 HD
ENDROOT
BRANCH   6  23
ATOM     23  C   UNL     1       0.002  -0.004   0.002  0.00  0.00    +0.084 C 
ATOM     24  C   UNL     1       0.244   1.509   0.142  0.00  0.00    +0.023 C 
ATOM     25  C   UNL     1       1.769   1.722   0.053  0.00  0.00    +0.002 C 
ATOM     26  C   UNL     1       2.368   0.357   0.473  0.00  0.00    +0.002 C 
ATOM     27  C   UNL     1       1.389  -0.658  -0.168  0.00  0.00    +0.023 C 
ENDBRANCH   6  23
BRANCH   1  28
ATOM     28  C   UNL     1       1.154  -1.896   4.181  0.00  0.00    +0.020 C 
BRANCH  28  32
ATOM     29  C   UNL     1       3.070  -5.078   6.291  0.00  0.00    +0.000 A 
ATOM     30  C   UNL     1       2.925  -5.148   4.918  0.00  0.00    +0.000 A 
ATOM     31  C   UNL     1       2.304  -4.118   4.235  0.00  0.00    +0.003 A 
ATOM     32  C   UNL     1       1.830  -3.019   4.925  0.00  0.00    -0.049 A 
ATOM     33  C   UNL     1       1.980  -2.946   6.298  0.00  0.00    +0.003 A 
ATOM     34  C   UNL     1       2.595  -3.978   6.981  0.00  0.00    +0.000 A 
ENDBRANCH  28  32
ENDBRANCH   1  28
TORSDOF 3
