REMARK  Name = ZINC01339689
REMARK  6 active torsions:
REMARK  status: ('A' for Active; 'I' for Inactive)
REMARK    1  A    between atoms: C_1  and  C_2
REMARK    2  A    between atoms: C_14  and  S_21
REMARK    3  A    between atoms: C_16  and  C_18
REMARK    4  A    between atoms: S_21  and  C_22
REMARK    5  A    between atoms: C_22  and  C_23
REMARK    6  A    between atoms: C_22  and  C_24
REMARK                            x       y       z     vdW  Elec       q    Type
REMARK                         _______ _______ _______ _____ _____    ______ ____
ROOT
ATOM      1  C   UNL     1     -10.080  -3.449   0.887  0.00  0.00    +0.008 C 
ATOM      2  C   UNL     1      -8.632  -3.217   0.451  0.00  0.00    -0.009 C 
ATOM      3  C   UNL     1      -8.040  -2.045   1.239  0.00  0.00    +0.008 C 
ATOM      4  C   UNL     1      -6.690  -1.645   0.642  0.00  0.00    +0.037 C 
ATOM      5  C   UNL     1      -5.805  -2.886   0.553  0.00  0.00    -0.024 A 
ATOM      6  C   UNL     1      -6.351  -4.123   0.601  0.00  0.00    -0.004 A 
ATOM      7  S   UNL     1      -4.970  -5.226   0.464  0.00  0.00    -0.073 S 
ATOM      8  C   UNL     1      -3.688  -4.002   0.344  0.00  0.00    +0.114 A 
ATOM      9  C   UNL     1      -4.397  -2.794   0.417  0.00  0.00    +0.056 A 
ATOM     10  C   UNL     1      -3.558  -1.577   0.340  0.00  0.00    +0.173 A 
ATOM     11  N   UNL     1      -3.812  -0.292   0.370  0.00  0.00    -0.128 NA
ATOM     12  N   UNL     1      -2.712   0.369   0.267  0.00  0.00    -0.122 NA
ATOM     13  C   UNL     1      -1.694  -0.454   0.165  0.00  0.00    +0.198 A 
ATOM     14  N   UNL     1      -2.195  -1.726   0.203  0.00  0.00    -0.257 N 
ATOM     15  C   UNL     1      -1.635  -2.969   0.149  0.00  0.00    +0.122 A 
ATOM     16  N   UNL     1      -2.365  -4.046   0.216  0.00  0.00    -0.226 NA
ATOM     17  C   UNL     1      -7.800  -4.474   0.739  0.00  0.00    +0.046 C 
ENDROOT
BRANCH  15  18
ATOM     18  C   UNL     1      -0.141  -3.099   0.004  0.00  0.00    +0.056 C 
ATOM     19  C   UNL     1       0.424  -4.496  -0.261  0.00  0.00    +0.012 C 
ATOM     20  C   UNL     1       0.615  -3.840   1.108  0.00  0.00    +0.012 C 
ENDBRANCH  15  18
BRANCH  13  21
ATOM     21  S   UNL     1       0.002  -0.004   0.002  0.00  0.00    -0.083 S 
BRANCH  21  22
ATOM     22  C   UNL     1      -0.022   1.810   0.012  0.00  0.00    +0.048 C 
ATOM     23  C   UNL     1       1.413   2.339   0.001  0.00  0.00    +0.019 C 
ATOM     24  C   UNL     1      -0.762   2.317  -1.228  0.00  0.00    +0.019 C 
ENDBRANCH  21  22
ENDBRANCH  13  21
TORSDOF 3
