REMARK  Name = ZINC36386809
REMARK  5 active torsions:
REMARK  status: ('A' for Active; 'I' for Inactive)
REMARK    1  A    between atoms: C_3  and  C_6
REMARK    2  A    between atoms: C_9  and  C_29
REMARK    3  A    between atoms: C_12  and  C_14
REMARK    4  A    between atoms: C_14  and  N_15
REMARK    5  A    between atoms: C_21  and  C_23
REMARK                            x       y       z     vdW  Elec       q    Type
REMARK                         _______ _______ _______ _____ _____    ______ ____
ROOT
ATOM      1  C   UNL     1       3.667   0.589  -0.052  0.00  0.00    +0.173 C 
ATOM      2  C   UNL     1       4.194   0.267  -1.464  0.00  0.00    +0.090 C 
ATOM      3  C   UNL     1       4.937  -1.038  -1.288  0.00  0.00    +0.069 C 
ATOM      4  N   UNL     1       4.869  -1.409  -0.056  0.00  0.00    -0.181 NA
ATOM      5  N   UNL     1       4.153  -0.535   0.765  0.00  0.00    -0.181 N 
ATOM      6  C   UNL     1       3.939  -0.693   2.087  0.00  0.00    +0.249 C 
ATOM      7  O   UNL     1       3.298   0.134   2.701  0.00  0.00    -0.272 OA
ENDROOT
BRANCH   3   8
ATOM      8  C   UNL     1       5.631  -1.774  -2.361  0.00  0.00    -0.002 A 
ATOM      9  C   UNL     1       5.641  -1.270  -3.664  0.00  0.00    +0.011 A 
ATOM     10  C   UNL     1       6.293  -1.963  -4.662  0.00  0.00    +0.020 A 
ATOM     11  C   UNL     1       6.936  -3.156  -4.376  0.00  0.00    +0.041 A 
ATOM     12  C   UNL     1       6.929  -3.661  -3.086  0.00  0.00    +0.020 A 
ATOM     13  C   UNL     1       6.286  -2.975  -2.077  0.00  0.00    +0.011 A 
ATOM     14 CL   UNL     1       7.754  -4.022  -5.639  0.00  0.00    -0.084 Cl
ENDBRANCH   3   8
BRANCH   1  17
ATOM     15  C   UNL     1       0.059   1.338  -0.037  0.00  0.00    +0.041 A 
ATOM     16  C   UNL     1       1.410   1.753  -0.043  0.00  0.00    +0.046 A 
ATOM     17  C   UNL     1       2.161   0.637  -0.045  0.00  0.00    +0.128 A 
ATOM     18  O   UNL     1       1.341  -0.426  -0.042  0.00  0.00    -0.466 OA
ATOM     19  C   UNL     1       0.065  -0.007  -0.036  0.00  0.00    +0.195 A 
ENDBRANCH   1  17
BRANCH   6  20
ATOM     20  C   UNL     1       4.497  -1.897   2.801  0.00  0.00    +0.182 C 
BRANCH  20  21
ATOM     21  N   UNL     1       4.128  -1.837   4.222  0.00  0.00    -0.291 NA
ATOM     22  C   UNL     1       4.775  -0.697   4.886  0.00  0.00    +0.104 C 
ATOM     23  C   UNL     1       4.228  -0.563   6.311  0.00  0.00    +0.123 C 
ATOM     24  N   UNL     1       4.388  -1.854   6.997  0.00  0.00    -0.297 N 
ATOM     25  C   UNL     1       3.886  -3.064   6.328  0.00  0.00    +0.123 C 
ATOM     26  C   UNL     1       4.446  -3.100   4.902  0.00  0.00    +0.104 C 
ATOM     27  C   UNL     1       4.978  -1.927   8.206  0.00  0.00    +0.245 C 
ATOM     28  O   UNL     1       5.027  -2.986   8.794  0.00  0.00    -0.273 OA
BRANCH  27  29
ATOM     29  C   UNL     1       5.577  -0.691   8.828  0.00  0.00    +0.204 C 
ATOM     30  C   UNL     1       4.458   0.273   9.293  0.00  0.00    +0.043 C 
ATOM     31  C   UNL     1       5.196   1.066  10.406  0.00  0.00    +0.031 C 
ATOM     32  C   UNL     1       6.133  -0.005  11.005  0.00  0.00    +0.161 C 
ATOM     33  O   UNL     1       6.300  -1.034  10.020  0.00  0.00    -0.367 OA
ENDBRANCH  27  29
ENDBRANCH  20  21
ENDBRANCH   6  20
TORSDOF 5
