REMARK  Name = ZINC46837740
REMARK  6 active torsions:
REMARK  status: ('A' for Active; 'I' for Inactive)
REMARK    1  A    between atoms: C_1  and  C_2
REMARK    2  A    between atoms: N_6  and  C_10
REMARK    3  A    between atoms: C_17  and  C_19
REMARK    4  A    between atoms: C_19  and  C_20
REMARK    5  A    between atoms: C_19  and  C_21
REMARK    6  A    between atoms: C_19  and  C_22
REMARK                            x       y       z     vdW  Elec       q    Type
REMARK                         _______ _______ _______ _____ _____    ______ ____
ROOT
ATOM      1  C   UNL     1      -2.610  -1.957   1.648  0.00  0.00    +0.045 A 
ATOM      2  C   UNL     1      -3.805  -1.840   0.941  0.00  0.00    +0.027 A 
ATOM      3  C   UNL     1      -4.934  -2.508   1.365  0.00  0.00    +0.050 A 
ATOM      4  C   UNL     1      -4.884  -3.301   2.502  0.00  0.00    +0.155 A 
ATOM      5  C   UNL     1      -3.683  -3.424   3.218  0.00  0.00    +0.111 A 
ATOM      6  C   UNL     1      -2.544  -2.748   2.779  0.00  0.00    +0.055 A 
ATOM      7  N   UNL     1      -3.941  -4.254   4.265  0.00  0.00    -0.213 NA
ATOM      8  C   UNL     1      -5.186  -4.620   4.213  0.00  0.00    +0.202 A 
ATOM      9  O   UNL     1      -5.792  -4.061   3.154  0.00  0.00    -0.439 OA
ENDROOT
BRANCH   1  14
ATOM     10  C   UNL     1       0.916   1.057   1.702  0.00  0.00    +0.038 C 
ATOM     11  C   UNL     1       0.045   0.351   0.662  0.00  0.00    +0.156 C 
ATOM     12  C   UNL     1      -1.334   0.069   1.225  0.00  0.00    +0.245 C 
ATOM     13  O   UNL     1      -2.148   0.880   1.611  0.00  0.00    -0.273 OA
ATOM     14  N   UNL     1      -1.468  -1.272   1.206  0.00  0.00    -0.220 N 
ATOM     15  C   UNL     1      -0.377  -1.870   0.714  0.00  0.00    +0.144 C 
ATOM     16  S   UNL     1      -0.213  -3.566   0.550  0.00  0.00    -0.018 S 
ATOM     17  N   UNL     1       0.580  -0.988   0.360  0.00  0.00    -0.315 N 
ATOM     18  H   UNL     1       1.449  -1.193  -0.018  0.00  0.00    +0.148 HD
ENDBRANCH   1  14
BRANCH   8  19
ATOM     19  C   UNL     1      -5.855  -5.540   5.202  0.00  0.00    +0.039 C 
ATOM     20  C   UNL     1      -5.780  -4.927   6.601  0.00  0.00    +0.020 C 
ATOM     21  C   UNL     1      -7.320  -5.733   4.808  0.00  0.00    +0.020 C 
ATOM     22  C   UNL     1      -5.143  -6.894   5.200  0.00  0.00    +0.020 C 
ENDBRANCH   8  19
TORSDOF 2
