REMARK  Name = ZINC54580738
REMARK  7 active torsions:
REMARK  status: ('A' for Active; 'I' for Inactive)
REMARK    1  A    between atoms: C_1  and  C_2
REMARK    2  A    between atoms: C_2  and  C_4
REMARK    3  A    between atoms: C_2  and  N_15
REMARK    4  A    between atoms: C_7  and  S_10
REMARK    5  A    between atoms: S_10  and  N_13
REMARK    6  A    between atoms: N_13  and  C_14
REMARK    7  A    between atoms: C_22  and  C_24
REMARK                            x       y       z     vdW  Elec       q    Type
REMARK                         _______ _______ _______ _____ _____    ______ ____
ROOT
ATOM      1  C   UNL     1      -0.019   1.526   0.010  0.00  0.00    +0.033 C 
ATOM      2  C   UNL     1       0.002  -0.004   0.002  0.00  0.00    +0.102 C 
ENDROOT
BRANCH   2   3
ATOM      3  N   UNL     1       0.711  -0.489   1.189  0.00  0.00    -0.293 N 
ATOM      4  C   UNL     1       2.054  -0.600   1.174  0.00  0.00    +0.303 C 
ATOM      5  O   UNL     1       2.677  -0.297   0.175  0.00  0.00    -0.253 OA
ATOM      6  N   UNL     1       2.706  -1.046   2.266  0.00  0.00    -0.278 N 
ATOM      7  C   UNL     1       2.077  -1.453   3.535  0.00  0.00    +0.110 C 
ATOM      8  C   UNL     1       3.186  -1.276   4.602  0.00  0.00    +0.021 C 
ATOM      9  C   UNL     1       4.448  -1.719   3.816  0.00  0.00    +0.029 C 
ATOM     10  C   UNL     1       4.161  -1.215   2.385  0.00  0.00    +0.114 C 
ATOM     11  H   UNL     1       0.213  -0.731   1.986  0.00  0.00    +0.151 HD
BRANCH  10  12
ATOM     12  C   UNL     1       4.645  -2.224   1.376  0.00  0.00    +0.010 A 
ATOM     13  C   UNL     1       5.785  -2.219   0.643  0.00  0.00    +0.013 A 
ATOM     14  C   UNL     1       6.025  -3.263  -0.231  0.00  0.00    +0.008 A 
ATOM     15  C   UNL     1       5.113  -4.261  -0.328  0.00  0.00    +0.045 A 
ATOM     16  S   UNL     1       3.870  -3.741   0.843  0.00  0.00    -0.100 S 
ENDBRANCH  10  12
ENDBRANCH   2   3
BRANCH   2  17
ATOM     17  C   UNL     1      -1.412  -0.526   0.013  0.00  0.00    -0.027 A 
ATOM     18  C   UNL     1      -2.123  -0.571   1.197  0.00  0.00    +0.007 A 
ATOM     19  C   UNL     1      -3.420  -1.049   1.207  0.00  0.00    +0.029 A 
ATOM     20  C   UNL     1      -4.006  -1.482   0.032  0.00  0.00    +0.105 A 
ATOM     21  C   UNL     1      -3.295  -1.436  -1.153  0.00  0.00    +0.029 A 
ATOM     22  C   UNL     1      -2.000  -0.954  -1.163  0.00  0.00    +0.007 A 
BRANCH  20  23
ATOM     23  S   UNL     1      -5.658  -2.093   0.045  0.00  0.00    +0.058 S 
ATOM     24  O   UNL     1      -5.785  -2.944  -1.086  0.00  0.00    -0.153 OA
ATOM     25  O   UNL     1      -5.915  -2.542   1.369  0.00  0.00    -0.153 OA
BRANCH  23  26
ATOM     26  N   UNL     1      -6.660  -0.801  -0.219  0.00  0.00    -0.193 NA
ATOM     27  C   UNL     1      -6.617  -0.091  -1.500  0.00  0.00    +0.127 C 
ATOM     28  H   UNL     1      -7.275  -0.515   0.474  0.00  0.00    +0.148 HD
ENDBRANCH  23  26
ENDBRANCH  20  23
ENDBRANCH   2  17
TORSDOF 5
