REMARK  Name = ZINC38976676
REMARK  3 active torsions:
REMARK  status: ('A' for Active; 'I' for Inactive)
REMARK    1  A    between atoms: C_6  and  C_7
REMARK    2  A    between atoms: N_8  and  N_9
REMARK    3  A    between atoms: C_10  and  C_16
REMARK                            x       y       z     vdW  Elec       q    Type
REMARK                         _______ _______ _______ _____ _____    ______ ____
ROOT
ATOM      1  N   UNL     1      -2.438  -2.780   0.117  0.00  0.00    -0.175 N 
ATOM      2  C   UNL     1      -2.578  -4.242   0.234  0.00  0.00    +0.230 C 
ATOM      3  N   UNL     1      -4.033  -4.452   0.322  0.00  0.00    -0.242 N 
ATOM      4  N   UNL     1      -4.615  -3.181   0.255  0.00  0.00    -0.160 NA
ATOM      5  C   UNL     1      -3.720  -2.257   0.147  0.00  0.00    +0.206 C 
ATOM      6  S   UNL     1      -4.086  -0.536   0.045  0.00  0.00    -0.011 SA
ATOM      7  H   UNL     1      -4.495  -5.301   0.409  0.00  0.00    +0.170 HD
ENDROOT
BRANCH   2   8
ATOM      8  C   UNL     1      -1.881  -4.748   1.499  0.00  0.00    +0.197 C 
ATOM      9  C   UNL     1      -1.969  -6.257   1.593  0.00  0.00    -0.017 C 
ATOM     10  C   UNL     1      -0.704  -6.673   1.565  0.00  0.00    +0.065 C 
ATOM     11  C   UNL     1      -0.658  -8.188   1.652  0.00  0.00    +0.057 C 
ATOM     12  C   UNL     1      -2.053  -8.604   2.168  0.00  0.00    +0.011 C 
ATOM     13  C   UNL     1      -2.926  -7.416   1.702  0.00  0.00    +0.035 C 
ATOM     14  N   UNL     1       0.133  -5.604   1.469  0.00  0.00    -0.158 NA
ATOM     15  N   UNL     1      -0.430  -4.505   1.429  0.00  0.00    -0.176 NA
ENDBRANCH   2   8
BRANCH   1  17
ATOM     16  C   UNL     1      -1.273  -0.778  -0.204  0.00  0.00    +0.138 C 
ATOM     17  N   UNL     1      -1.242  -2.060   0.003  0.00  0.00    -0.184 NA
BRANCH  16  23
ATOM     18  C   UNL     1      -0.050   1.377  -0.434  0.00  0.00    +0.011 A 
ATOM     19  C   UNL     1       1.127   2.097  -0.440  0.00  0.00    +0.022 A 
ATOM     20  C   UNL     1       2.336   1.458  -0.226  0.00  0.00    +0.059 A 
ATOM     21  C   UNL     1       2.373   0.090  -0.005  0.00  0.00    +0.060 A 
ATOM     22  C   UNL     1       1.204  -0.643   0.003  0.00  0.00    +0.031 A 
ATOM     23  C   UNL     1      -0.019  -0.002  -0.212  0.00  0.00    -0.004 A 
ATOM     24 CL   UNL     1       3.894  -0.703   0.262  0.00  0.00    -0.082 Cl
ATOM     25 CL   UNL     1       3.811   2.373  -0.235  0.00  0.00    -0.082 Cl
ENDBRANCH  16  23
ENDBRANCH   1  17
TORSDOF 3
