REMARK  Name = ZINC25455689
REMARK  8 active torsions:
REMARK  status: ('A' for Active; 'I' for Inactive)
REMARK    1  A    between atoms: C_1  and  C_2
REMARK    2  A    between atoms: C_5  and  N_9
REMARK    3  A    between atoms: C_6  and  C_8
REMARK    4  A    between atoms: C_13  and  C_15
REMARK    5  A    between atoms: C_15  and  C_17
REMARK    6  A    between atoms: C_15  and  S_18
REMARK    7  A    between atoms: S_18  and  C_19
REMARK    8  A    between atoms: N_24  and  C_25
REMARK                            x       y       z     vdW  Elec       q    Type
REMARK                         _______ _______ _______ _____ _____    ______ ____
ROOT
ATOM      1  N   UNL     1       2.756   2.010   4.550  0.00  0.00    -0.269 N 
ATOM      2  C   UNL     1       1.702   1.324   4.067  0.00  0.00    +0.310 C 
ATOM      3  O   UNL     1       1.345   0.296   4.609  0.00  0.00    -0.252 OA
ATOM      4  N   UNL     1       1.042   1.778   2.982  0.00  0.00    -0.239 N 
ATOM      5  C   UNL     1      -0.012   1.091   2.499  0.00  0.00    +0.233 C 
ATOM      6  O   UNL     1      -0.368   0.066   3.040  0.00  0.00    -0.274 OA
ATOM      7  H   UNL     1       3.136   2.889   4.007  0.00  0.00    +0.156 HD
ATOM      8  H   UNL     1       1.365   2.708   2.491  0.00  0.00    +0.159 HD
ENDROOT
BRANCH   1  13
ATOM      9  C   UNL     1       5.235   0.369   9.382  0.00  0.00    +0.044 C 
ATOM     10  C   UNL     1       4.576   0.806   8.099  0.00  0.00    -0.050 A 
ATOM     11  C   UNL     1       3.254   0.481   7.856  0.00  0.00    +0.005 A 
ATOM     12  C   UNL     1       2.648   0.878   6.681  0.00  0.00    +0.024 A 
ATOM     13  C   UNL     1       3.368   1.606   5.742  0.00  0.00    +0.038 A 
ATOM     14  C   UNL     1       4.696   1.926   5.986  0.00  0.00    -0.029 A 
ATOM     15  C   UNL     1       5.295   1.530   7.166  0.00  0.00    +0.008 A 
ATOM     16  C   UNL     1       5.482   2.711   4.967  0.00  0.00    +0.045 C 
ENDBRANCH   1  13
BRANCH   5  17
ATOM     17  C   UNL     1      -0.750   1.598   1.286  0.00  0.00    +0.136 C 
ATOM     18  C   UNL     1      -0.041   1.115   0.020  0.00  0.00    +0.029 C 
BRANCH  17  19
ATOM     19  S   UNL     1      -2.450   0.968   1.306  0.00  0.00    -0.084 S 
BRANCH  19  20
ATOM     20  C   UNL     1      -3.213   1.757  -0.073  0.00  0.00    +0.161 A 
ATOM     21  N   UNL     1      -2.700   2.615  -0.934  0.00  0.00    -0.133 NA
ATOM     22  N   UNL     1      -3.481   3.112  -1.952  0.00  0.00    -0.125 NA
ATOM     23  C   UNL     1      -4.741   2.736  -2.056  0.00  0.00    +0.182 A 
ATOM     24  S   UNL     1      -4.889   1.615  -0.674  0.00  0.00    -0.025 S 
ATOM     25  N   UNL     1      -5.697   3.113  -2.992  0.00  0.00    -0.325 N 
ATOM     26  C   UNL     1      -5.350   4.059  -4.055  0.00  0.00    +0.127 C 
ATOM     27  H   UNL     1      -6.715   2.700  -2.934  0.00  0.00    +0.148 HD
ENDBRANCH  19  20
ENDBRANCH  17  19
ENDBRANCH   5  17
TORSDOF 4
