REMARK  Name = ZINC41249726
REMARK  7 active torsions:
REMARK  status: ('A' for Active; 'I' for Inactive)
REMARK    1  A    between atoms: C_1  and  C_2
REMARK    2  A    between atoms: C_2  and  C_3
REMARK    3  A    between atoms: C_2  and  C_4
REMARK    4  A    between atoms: C_4  and  O_6
REMARK    5  A    between atoms: O_6  and  C_7
REMARK    6  A    between atoms: C_15  and  C_16
REMARK    7  A    between atoms: N_18  and  C_25
REMARK                            x       y       z     vdW  Elec       q    Type
REMARK                         _______ _______ _______ _____ _____    ______ ____
ROOT
ATOM      1  C   UNL     1      -2.956  -2.179  -0.015  0.00  0.00    +0.135 A 
ATOM      2  C   UNL     1      -3.918  -1.175  -0.078  0.00  0.00    +0.047 A 
ATOM      3  C   UNL     1      -5.247  -1.495  -0.102  0.00  0.00    +0.019 A 
ATOM      4  C   UNL     1      -5.639  -2.833  -0.063  0.00  0.00    +0.068 A 
ATOM      5  C   UNL     1      -4.677  -3.854   0.000  0.00  0.00    +0.143 A 
ATOM      6  C   UNL     1      -3.331  -3.512   0.019  0.00  0.00    +0.093 A 
ATOM      7  O   UNL     1      -5.309  -5.046   0.028  0.00  0.00    -0.451 OA
ATOM      8  C   UNL     1      -6.654  -4.895  -0.014  0.00  0.00    +0.176 C 
ATOM      9  C   UNL     1      -7.570  -5.904  -0.002  0.00  0.00    +0.060 C 
ATOM     10  C   UNL     1      -6.950  -3.507  -0.073  0.00  0.00    +0.231 C 
ATOM     11  O   UNL     1      -8.051  -2.985  -0.121  0.00  0.00    -0.283 OA
ENDROOT
BRANCH   9  12
ATOM     12  C   UNL     1      -7.125  -7.294   0.061  0.00  0.00    +0.004 A 
ATOM     13  C   UNL     1      -5.823  -7.744   0.117  0.00  0.00    +0.094 A 
ATOM     14  N   UNL     1      -5.814  -9.099   0.165  0.00  0.00    -0.349 N 
ATOM     15  C   UNL     1      -7.103  -9.593   0.142  0.00  0.00    +0.049 A 
ATOM     16  C   UNL     1      -7.979  -8.497   0.082  0.00  0.00    +0.007 A 
ATOM     17  C   UNL     1      -9.355  -8.704   0.052  0.00  0.00    +0.010 A 
ATOM     18  C   UNL     1      -9.853  -9.989   0.085  0.00  0.00    +0.001 A 
ATOM     19  C   UNL     1      -8.989 -11.072   0.147  0.00  0.00    +0.002 A 
ATOM     20  C   UNL     1      -7.625 -10.882   0.170  0.00  0.00    +0.026 A 
ATOM     21  C   UNL     1      -4.605  -9.923   0.231  0.00  0.00    +0.149 C 
ENDBRANCH   9  12
BRANCH   1  22
ATOM     22  O   UNL     1      -1.639  -1.849   0.008  0.00  0.00    -0.426 OA
BRANCH  22  23
ATOM     23  C   UNL     1      -0.933  -1.992  -1.126  0.00  0.00    +0.315 C 
ATOM     24  O   UNL     1      -1.449  -2.487  -2.100  0.00  0.00    -0.250 OA
BRANCH  23  26
ATOM     25  C   UNL     1       1.069  -1.812  -2.576  0.00  0.00    +0.019 C 
ATOM     26  C   UNL     1       0.502  -1.537  -1.183  0.00  0.00    +0.092 C 
ATOM     27  C   UNL     1       0.572  -0.036  -0.890  0.00  0.00    +0.019 C 
ENDBRANCH  23  26
ENDBRANCH  22  23
ENDBRANCH   1  22
TORSDOF 4
