REMARK  Name = ZINC62558841
REMARK  4 active torsions:
REMARK  status: ('A' for Active; 'I' for Inactive)
REMARK    1  A    between atoms: C_1  and  C_2
REMARK    2  A    between atoms: C_2  and  C_3
REMARK    3  A    between atoms: C_9  and  C_17
REMARK    4  A    between atoms: C_11  and  C_16
REMARK                            x       y       z     vdW  Elec       q    Type
REMARK                         _______ _______ _______ _____ _____    ______ ____
ROOT
ATOM      1  C   UNL     1       0.718  -0.497  -1.257  0.00  0.00    +0.259 C 
ATOM      2  C   UNL     1       0.849  -1.999  -1.204  0.00  0.00    +0.258 C 
ATOM      3  O   UNL     1       1.848  -2.507  -0.742  0.00  0.00    -0.271 OA
ATOM      4  N   UNL     1      -0.152  -2.774  -1.672  0.00  0.00    -0.279 N 
ATOM      5  C   UNL     1      -1.241  -2.171  -2.316  0.00  0.00    +0.080 A 
ATOM      6  C   UNL     1      -2.382  -2.902  -2.604  0.00  0.00    -0.025 A 
ATOM      7  C   UNL     1      -3.454  -2.290  -3.227  0.00  0.00    +0.009 A 
ATOM      8  C   UNL     1      -3.389  -0.950  -3.563  0.00  0.00    -0.033 A 
ATOM      9  C   UNL     1      -2.251  -0.215  -3.283  0.00  0.00    +0.064 A 
ATOM     10  C   UNL     1      -1.172  -0.824  -2.664  0.00  0.00    +0.157 A 
ATOM     11  O   UNL     1      -0.036  -0.121  -2.411  0.00  0.00    -0.477 OA
ATOM     12 BR   UNL     1      -2.169   1.617  -3.744  0.00  0.00    -0.046 Br
ATOM     13  C   UNL     1      -4.564  -0.288  -4.237  0.00  0.00    +0.045 C 
ATOM     14  C   UNL     1      -2.455  -4.363  -2.239  0.00  0.00    +0.046 C 
ATOM     15  H   UNL     1      -0.117  -3.738  -1.565  0.00  0.00    +0.155 HD
ENDROOT
BRANCH   1  17
ATOM     16  C   UNL     1      -0.019   1.526   0.010  0.00  0.00    +0.008 C 
ATOM     17  C   UNL     1       0.002  -0.004   0.002  0.00  0.00    +0.051 C 
ENDBRANCH   1  17
TORSDOF 1
