REMARK  Name = ZINC54910298
REMARK  3 active torsions:
REMARK  status: ('A' for Active; 'I' for Inactive)
REMARK    1  A    between atoms: C_1  and  C_2
REMARK    2  A    between atoms: C_2  and  C_18
REMARK    3  A    between atoms: C_14  and  O_17
REMARK                            x       y       z     vdW  Elec       q    Type
REMARK                         _______ _______ _______ _____ _____    ______ ____
ROOT
ATOM      1  C   UNL     1      -0.019   1.526   0.010  0.00  0.00    +0.011 C 
ATOM      2  C   UNL     1       0.002  -0.004   0.002  0.00  0.00    -0.027 C 
ATOM      3  C   UNL     1       0.704  -0.495  -1.266  0.00  0.00    +0.063 C 
ATOM      4  C   UNL     1       0.880  -2.004  -1.173  0.00  0.00    +0.057 A 
ATOM      5  C   UNL     1       0.794  -2.636   0.024  0.00  0.00    +0.043 A 
ATOM      6  S   UNL     1       1.066  -4.331  -0.413  0.00  0.00    -0.054 S 
ATOM      7  C   UNL     1       1.266  -4.101  -2.071  0.00  0.00    +0.161 A 
ATOM      8  N   UNL     1       1.123  -2.801  -2.211  0.00  0.00    -0.229 NA
ATOM      9  N   UNL     1       1.519  -5.051  -3.048  0.00  0.00    -0.310 N 
ATOM     10  C   UNL     1       1.690  -4.779  -4.483  0.00  0.00    +0.107 C 
ATOM     11  C   UNL     1       1.927  -6.135  -5.181  0.00  0.00    +0.020 C 
ATOM     12  C   UNL     1       1.313  -7.152  -4.182  0.00  0.00    +0.020 C 
ATOM     13  C   UNL     1       1.669  -6.500  -2.820  0.00  0.00    +0.107 C 
ATOM     14  C   UNL     1       0.537  -2.027   1.361  0.00  0.00    +0.153 C 
ATOM     15  C   UNL     1       0.743  -0.509   1.243  0.00  0.00    +0.043 C 
ATOM     16  C   UNL     1      -1.434  -0.531   0.020  0.00  0.00    +0.011 C 
ENDROOT
BRANCH  14  17
ATOM     17  O   UNL     1       1.449  -2.566   2.320  0.00  0.00    -0.387 OA
ATOM     18  H   UNL     1       1.385  -3.524   2.429  0.00  0.00    +0.210 HD
ENDBRANCH  14  17
TORSDOF 1
