REMARK  Name = ZINC00199714
REMARK  5 active torsions:
REMARK  status: ('A' for Active; 'I' for Inactive)
REMARK    1  A    between atoms: C_1  and  C_2
REMARK    2  A    between atoms: C_12  and  C_13
REMARK    3  A    between atoms: C_16  and  N_19
REMARK    4  A    between atoms: N_19  and  C_20
REMARK    5  A    between atoms: N_19  and  C_21
REMARK                            x       y       z     vdW  Elec       q    Type
REMARK                         _______ _______ _______ _____ _____    ______ ____
ROOT
ATOM      1  C   UNL     1       1.625   3.514  -1.597  0.00  0.00    +0.073 C 
ATOM      2  C   UNL     1       1.572   2.011  -1.509  0.00  0.00    +0.125 A 
ATOM      3  C   UNL     1       0.371   1.289  -1.943  0.00  0.00    +0.295 A 
ATOM      4  O   UNL     1      -0.597   1.890  -2.383  0.00  0.00    -0.264 OA
ATOM      5  N   UNL     1       0.364  -0.047  -1.849  0.00  0.00    -0.181 NA
ATOM      6  C   UNL     1       1.407  -0.688  -1.380  0.00  0.00    +0.201 A 
ATOM      7  N   UNL     1       2.555  -0.068  -0.960  0.00  0.00    -0.170 N 
ATOM      8  N   UNL     1       2.588   1.350  -1.049  0.00  0.00    -0.161 NA
ATOM      9  C   UNL     1       3.559  -0.832  -0.500  0.00  0.00    +0.287 A 
ATOM     10  O   UNL     1       4.599  -0.330  -0.114  0.00  0.00    -0.265 OA
ATOM     11  C   UNL     1       3.369  -2.285  -0.473  0.00  0.00    +0.082 A 
ATOM     12  C   UNL     1       4.220  -3.262  -0.058  0.00  0.00    +0.028 C 
ATOM     13  S   UNL     1       1.714  -2.424  -1.131  0.00  0.00    -0.044 S 
ENDROOT
BRANCH  12  14
ATOM     14  C   UNL     1       3.754  -4.649   0.035  0.00  0.00    -0.024 A 
ATOM     15  C   UNL     1       2.381  -4.931   0.045  0.00  0.00    +0.010 A 
ATOM     16  C   UNL     1       1.953  -6.225   0.127  0.00  0.00    +0.023 A 
ATOM     17  C   UNL     1       2.877  -7.263   0.211  0.00  0.00    +0.029 A 
ATOM     18  C   UNL     1       4.242  -6.988   0.208  0.00  0.00    +0.023 A 
ATOM     19  C   UNL     1       4.681  -5.697   0.121  0.00  0.00    +0.010 A 
BRANCH  17  20
ATOM     20  N   UNL     1       2.435  -8.580   0.300  0.00  0.00    -0.336 N 
ATOM     21  C   UNL     1       3.406  -9.673   0.390  0.00  0.00    +0.129 C 
ATOM     22  C   UNL     1       1.000  -8.872   0.304  0.00  0.00    +0.129 C 
ENDBRANCH  17  20
ENDBRANCH  12  14
TORSDOF 2
