REMARK  Name = ZINC12630226
REMARK  8 active torsions:
REMARK  status: ('A' for Active; 'I' for Inactive)
REMARK    1  A    between atoms: C_1  and  C_2
REMARK    2  A    between atoms: C_2  and  C_3
REMARK    3  A    between atoms: C_3  and  C_5
REMARK    4  A    between atoms: C_3  and  S_15
REMARK    5  A    between atoms: S_15  and  C_16
REMARK    6  A    between atoms: N_26  and  C_27
REMARK    7  A    between atoms: C_27  and  C_28
REMARK    8  A    between atoms: C_27  and  C_29
REMARK                            x       y       z     vdW  Elec       q    Type
REMARK                         _______ _______ _______ _____ _____    ______ ____
ROOT
ATOM      1  C   UNL     1       6.431   6.353  -0.806  0.00  0.00    +0.212 A 
ATOM      2  N   UNL     1       6.603   7.634  -1.105  0.00  0.00    -0.201 NA
ATOM      3  C   UNL     1       7.825   8.080  -1.378  0.00  0.00    +0.165 A 
ATOM      4  C   UNL     1       8.896   7.163  -1.338  0.00  0.00    +0.138 A 
ATOM      5  C   UNL     1      10.108   7.928  -1.677  0.00  0.00    +0.029 A 
ATOM      6  C   UNL     1      11.454   7.590  -1.801  0.00  0.00    +0.012 A 
ATOM      7  C   UNL     1      12.375   8.557  -2.139  0.00  0.00    +0.001 A 
ATOM      8  C   UNL     1      11.967   9.864  -2.359  0.00  0.00    +0.002 A 
ATOM      9  C   UNL     1      10.638  10.212  -2.241  0.00  0.00    +0.026 A 
ATOM     10  C   UNL     1       9.693   9.250  -1.899  0.00  0.00    +0.053 A 
ATOM     11  N   UNL     1       8.322   9.315  -1.714  0.00  0.00    -0.321 N 
ATOM     12  N   UNL     1       8.659   5.896  -1.033  0.00  0.00    -0.143 NA
ATOM     13  N   UNL     1       7.457   5.509  -0.770  0.00  0.00    -0.122 NA
ENDROOT
BRANCH  11  14
ATOM     14  C   UNL     1       7.515  10.530  -1.856  0.00  0.00    +0.083 C 
ATOM     15  C   UNL     1       6.465  10.320  -2.949  0.00  0.00    +0.030 C 
ATOM     16  C   UNL     1       6.816  10.837  -0.530  0.00  0.00    +0.030 C 
ENDBRANCH  11  14
BRANCH   1  17
ATOM     17  S   UNL     1       4.812   5.760  -0.444  0.00  0.00    -0.072 S 
BRANCH  17  18
ATOM     18  C   UNL     1       5.195   4.044  -0.012  0.00  0.00    +0.140 C 
BRANCH  18  19
ATOM     19  C   UNL     1       5.643   3.303  -1.245  0.00  0.00    +0.232 C 
ATOM     20  O   UNL     1       5.365   3.732  -2.345  0.00  0.00    -0.274 OA
ATOM     21  N   UNL     1       6.352   2.164  -1.126  0.00  0.00    -0.269 N 
ATOM     22  C   UNL     1       6.856   1.534  -2.264  0.00  0.00    +0.125 A 
ATOM     23  C   UNL     1       7.680   0.423  -2.128  0.00  0.00    +0.045 A 
ATOM     24  C   UNL     1       8.173  -0.194  -3.264  0.00  0.00    +0.025 A 
ATOM     25  C   UNL     1       7.822   0.326  -4.504  0.00  0.00    +0.059 A 
ATOM     26  C   UNL     1       6.998   1.433  -4.565  0.00  0.00    +0.132 A 
ATOM     27  N   UNL     1       6.543   1.999  -3.463  0.00  0.00    -0.239 NA
ATOM     28 CL   UNL     1       8.413  -0.409  -5.962  0.00  0.00    -0.082 Cl
ATOM     29  H   UNL     1       6.513   1.782  -0.249  0.00  0.00    +0.156 HD
ENDBRANCH  18  19
BRANCH  18  31
ATOM     30  C   UNL     1       3.579   4.030   1.894  0.00  0.00    +0.005 C 
ATOM     31  C   UNL     1       3.946   3.372   0.562  0.00  0.00    +0.020 C 
ENDBRANCH  18  31
ENDBRANCH  17  18
ENDBRANCH   1  17
TORSDOF 5
