REMARK  Name = ZINC23962158
REMARK  11 active torsions:
REMARK  status: ('A' for Active; 'I' for Inactive)
REMARK    1  A    between atoms: C_1  and  C_2
REMARK    2  A    between atoms: C_5  and  C_8
REMARK    3  A    between atoms: C_8  and  C_30
REMARK    4  A    between atoms: N_11  and  C_15
REMARK    5  A    between atoms: C_15  and  C_16
REMARK    6  A    between atoms: N_18  and  C_19
REMARK    7  A    between atoms: C_19  and  C_20
REMARK    8  A    between atoms: C_23  and  C_26
REMARK    9  A    between atoms: C_26  and  N_27
REMARK   10  A    between atoms: N_27  and  C_28
REMARK   11  A    between atoms: N_27  and  C_29
REMARK                            x       y       z     vdW  Elec       q    Type
REMARK                         _______ _______ _______ _____ _____    ______ ____
ROOT
ATOM      1  C   UNL     1      -1.239   2.150   0.020  0.00  0.00    +0.213 C 
ENDROOT
BRANCH   1   5
ATOM      2  C   UNL     1       1.467  -0.394  -0.014  0.00  0.00    +0.135 C 
ATOM      3  C   UNL     1       0.002  -0.004   0.002  0.00  0.00    +0.251 C 
ATOM      4  O   UNL     1      -0.954  -0.749   0.008  0.00  0.00    -0.272 OA
ATOM      5  N   UNL     1      -0.016   1.343   0.009  0.00  0.00    -0.215 N 
ATOM      6  C   UNL     1       1.220   1.854   0.000  0.00  0.00    +0.310 C 
ATOM      7  O   UNL     1       1.460   3.045   0.004  0.00  0.00    -0.252 OA
ATOM      8  N   UNL     1       2.170   0.901  -0.014  0.00  0.00    -0.281 N 
ATOM      9  C   UNL     1       1.822  -1.203   1.235  0.00  0.00    +0.047 C 
ATOM     10  H   UNL     1       3.269   0.929  -0.024  0.00  0.00    +0.152 HD
BRANCH   2  15
ATOM     11  C   UNL     1       2.722  -3.388  -4.795  0.00  0.00    +0.044 C 
ATOM     12  C   UNL     1       2.394  -2.608  -3.548  0.00  0.00    -0.050 A 
ATOM     13  C   UNL     1       3.362  -1.822  -2.950  0.00  0.00    +0.004 A 
ATOM     14  C   UNL     1       3.062  -1.106  -1.806  0.00  0.00    +0.006 A 
ATOM     15  C   UNL     1       1.794  -1.175  -1.261  0.00  0.00    -0.015 A 
ATOM     16  C   UNL     1       0.828  -1.964  -1.856  0.00  0.00    +0.006 A 
ATOM     17  C   UNL     1       1.126  -2.677  -3.002  0.00  0.00    +0.004 A 
ENDBRANCH   2  15
ENDBRANCH   1   5
BRANCH   1  18
ATOM     18  C   UNL     1      -1.652   2.419   1.444  0.00  0.00    +0.231 C 
ATOM     19  O   UNL     1      -0.989   1.980   2.360  0.00  0.00    -0.274 OA
ATOM     20  N   UNL     1      -2.757   3.147   1.700  0.00  0.00    -0.310 N 
ATOM     21  H   UNL     1      -3.357   3.545   0.869  0.00  0.00    +0.149 HD
BRANCH  20  22
ATOM     22  C   UNL     1      -3.158   3.408   3.084  0.00  0.00    +0.139 C 
BRANCH  22  23
ATOM     23  C   UNL     1      -4.416   4.238   3.095  0.00  0.00    -0.030 A 
ATOM     24  C   UNL     1      -4.334   5.617   3.108  0.00  0.00    +0.005 A 
ATOM     25  C   UNL     1      -5.488   6.378   3.113  0.00  0.00    +0.002 A 
ATOM     26  C   UNL     1      -6.724   5.759   3.115  0.00  0.00    -0.064 A 
ATOM     27  C   UNL     1      -6.806   4.380   3.108  0.00  0.00    +0.002 A 
ATOM     28  C   UNL     1      -5.652   3.619   3.098  0.00  0.00    +0.005 A 
BRANCH  26  29
ATOM     29  C   UNL     1      -7.982   6.589   3.127  0.00  0.00    -0.044 C 
BRANCH  29  30
ATOM     30  N   UNL     1      -8.383   6.851   4.516  0.00  0.00    +0.379 N 
ATOM     31  C   UNL     1      -7.398   7.700   5.197  0.00  0.00    -0.096 C 
ATOM     32  C   UNL     1      -9.724   7.449   4.572  0.00  0.00    -0.096 C 
ATOM     33  H   UNL     1      -8.421   5.886   5.044  0.00  0.00    -0.082 HD
ENDBRANCH  29  30
ENDBRANCH  26  29
ENDBRANCH  22  23
ENDBRANCH  20  22
ENDBRANCH   1  18
TORSDOF 7
