REMARK  Name = ZINC44177841
REMARK  7 active torsions:
REMARK  status: ('A' for Active; 'I' for Inactive)
REMARK    1  A    between atoms: C_1  and  C_2
REMARK    2  A    between atoms: C_3  and  C_22
REMARK    3  A    between atoms: C_7  and  N_8
REMARK    4  A    between atoms: N_11  and  C_12
REMARK    5  A    between atoms: C_12  and  C_14
REMARK    6  A    between atoms: C_12  and  C_15
REMARK    7  A    between atoms: N_24  and  C_25
REMARK                            x       y       z     vdW  Elec       q    Type
REMARK                         _______ _______ _______ _____ _____    ______ ____
ROOT
ATOM      1  N   UNL     1       0.105   0.113   2.422  0.00  0.00    -0.269 N 
ATOM      2  C   UNL     1       0.303  -0.538   3.585  0.00  0.00    +0.304 C 
ATOM      3  O   UNL     1       0.356  -1.752   3.601  0.00  0.00    -0.252 OA
ATOM      4  N   UNL     1       0.443   0.158   4.731  0.00  0.00    -0.293 N 
ATOM      5  H   UNL     1      -0.007   1.076   2.418  0.00  0.00    +0.156 HD
ATOM      6  H   UNL     1       0.401   1.127   4.719  0.00  0.00    +0.151 HD
ENDROOT
BRANCH   1  13
ATOM      7  C   UNL     1      -1.154   1.331   0.182  0.00  0.00    +0.046 C 
ATOM      8  C   UNL     1      -0.542  -0.044   0.103  0.00  0.00    -0.017 A 
ATOM      9  C   UNL     1      -0.576  -0.758  -1.095  0.00  0.00    +0.041 A 
ATOM     10  C   UNL     1      -0.007  -2.030  -1.161  0.00  0.00    +0.013 A 
ATOM     11  C   UNL     1       0.587  -2.579  -0.042  0.00  0.00    +0.003 A 
ATOM     12  C   UNL     1       0.622  -1.872   1.145  0.00  0.00    +0.023 A 
ATOM     13  C   UNL     1       0.063  -0.602   1.219  0.00  0.00    +0.038 A 
BRANCH   9  14
ATOM     14  C   UNL     1      -1.214  -0.168  -2.291  0.00  0.00    +0.244 C 
ATOM     15  O   UNL     1      -1.591   0.988  -2.272  0.00  0.00    -0.270 OA
ATOM     16  N   UNL     1      -1.379  -0.911  -3.403  0.00  0.00    -0.314 N 
ATOM     17  C   UNL     1      -2.010  -0.327  -4.589  0.00  0.00    +0.128 C 
ATOM     18  H   UNL     1      -1.078  -1.834  -3.419  0.00  0.00    +0.149 HD
ENDBRANCH   9  14
ENDBRANCH   1  13
BRANCH   4  19
ATOM     19  C   UNL     1       0.658  -0.550   5.996  0.00  0.00    +0.102 C 
ATOM     20  C   UNL     1      -0.692  -0.965   6.584  0.00  0.00    +0.033 C 
BRANCH  19  21
ATOM     21  C   UNL     1       1.370   0.359   6.965  0.00  0.00    -0.027 A 
ATOM     22  C   UNL     1       1.025   1.695   7.040  0.00  0.00    +0.006 A 
ATOM     23  C   UNL     1       1.677   2.529   7.929  0.00  0.00    +0.015 A 
ATOM     24  C   UNL     1       2.676   2.026   8.743  0.00  0.00    +0.018 A 
ATOM     25  C   UNL     1       3.021   0.688   8.667  0.00  0.00    +0.015 A 
ATOM     26  C   UNL     1       2.365  -0.146   7.782  0.00  0.00    +0.006 A 
ATOM     27 BR   UNL     1       3.570   3.165   9.959  0.00  0.00    -0.050 Br
ENDBRANCH  19  21
ENDBRANCH   4  19
TORSDOF 4
