REMARK  Name = ZINC16694053
REMARK  5 active torsions:
REMARK  status: ('A' for Active; 'I' for Inactive)
REMARK    1  A    between atoms: C_1  and  C_2
REMARK    2  A    between atoms: C_3  and  C_25
REMARK    3  A    between atoms: C_10  and  N_11
REMARK    4  A    between atoms: N_11  and  N_12
REMARK    5  A    between atoms: C_13  and  C_15
REMARK                            x       y       z     vdW  Elec       q    Type
REMARK                         _______ _______ _______ _____ _____    ______ ____
ROOT
ATOM      1  N   UNL     1      -0.056  -0.761   3.582  0.00  0.00    -0.271 N 
ATOM      2  H   UNL     1      -0.043  -1.730   3.562  0.00  0.00    +0.169 HD
ENDROOT
BRANCH   1  12
ATOM      3  C   UNL     1      -0.215   1.429  -0.025  0.00  0.00    +0.046 C 
ATOM      4  C   UNL     1       0.139  -0.036   0.004  0.00  0.00    -0.015 C 
ATOM      5  C   UNL     1       0.372  -0.730  -1.174  0.00  0.00    +0.117 C 
ATOM      6  C   UNL     1       0.716  -2.152  -1.119  0.00  0.00    +0.261 C 
ATOM      7  O   UNL     1       0.921  -2.761  -2.153  0.00  0.00    -0.269 OA
ATOM      8  N   UNL     1       0.808  -2.793   0.058  0.00  0.00    -0.248 N 
ATOM      9  C   UNL     1       0.590  -2.155   1.222  0.00  0.00    +0.252 C 
ATOM     10  O   UNL     1       0.681  -2.763   2.272  0.00  0.00    -0.270 OA
ATOM     11  C   UNL     1       0.247  -0.727   1.232  0.00  0.00    +0.056 C 
ATOM     12  C   UNL     1       0.025  -0.063   2.435  0.00  0.00    +0.101 C 
ATOM     13  H   UNL     1       1.037  -3.736   0.070  0.00  0.00    +0.158 HD
BRANCH   5  14
ATOM     14  C   UNL     1       0.277  -0.060  -2.436  0.00  0.00    +0.105 C 
ATOM     15  N   UNL     1       0.201   0.472  -3.437  0.00  0.00    -0.191 NA
ENDBRANCH   5  14
ENDBRANCH   1  12
BRANCH   1  16
ATOM     16  N   UNL     1      -0.159  -0.086   4.806  0.00  0.00    -0.237 N 
ATOM     17  C   UNL     1      -0.240  -0.785   5.955  0.00  0.00    +0.235 C 
ATOM     18  O   UNL     1      -0.224  -1.998   5.930  0.00  0.00    -0.274 OA
ATOM     19  H   UNL     1      -0.172   0.883   4.825  0.00  0.00    +0.173 HD
BRANCH  17  20
ATOM     20  C   UNL     1      -0.352  -0.060   7.271  0.00  0.00    +0.049 C 
ATOM     21  C   UNL     1       0.875   0.833   7.468  0.00  0.00    +0.019 C 
ATOM     22  C   UNL     1       0.762   1.569   8.804  0.00  0.00    -0.009 C 
ATOM     23  C   UNL     1       0.685   0.550   9.943  0.00  0.00    +0.007 C 
ATOM     24  C   UNL     1      -0.542  -0.342   9.747  0.00  0.00    -0.009 C 
ATOM     25  C   UNL     1      -0.429  -1.079   8.410  0.00  0.00    +0.019 C 
ATOM     26  C   UNL     1      -1.805   0.520   9.748  0.00  0.00    +0.007 C 
ATOM     27  C   UNL     1      -1.729   1.539   8.610  0.00  0.00    -0.009 C 
ATOM     28  C   UNL     1      -0.501   2.432   8.806  0.00  0.00    +0.007 C 
ATOM     29  C   UNL     1      -1.615   0.803   7.273  0.00  0.00    +0.019 C 
ENDBRANCH  17  20
ENDBRANCH   1  16
TORSDOF 4
