REMARK  Name = ZINC12897454
REMARK  5 active torsions:
REMARK  status: ('A' for Active; 'I' for Inactive)
REMARK    1  A    between atoms: C_1  and  C_2
REMARK    2  A    between atoms: C_2  and  C_4
REMARK    3  A    between atoms: C_2  and  S_12
REMARK    4  A    between atoms: S_12  and  C_13
REMARK    5  A    between atoms: C_15  and  C_19
REMARK                            x       y       z     vdW  Elec       q    Type
REMARK                         _______ _______ _______ _____ _____    ______ ____
ROOT
ATOM      1  S   UNL     1       0.879  -0.605   1.472  0.00  0.00    -0.074 S 
ENDROOT
BRANCH   1   2
ATOM      2  C   UNL     1       2.533  -0.042   1.241  0.00  0.00    +0.185 A 
ATOM      3  N   UNL     1       2.979   0.654   0.216  0.00  0.00    -0.205 NA
ATOM      4  C   UNL     1       4.279   0.904   0.375  0.00  0.00    +0.155 A 
ATOM      5  N   UNL     1       4.683   0.374   1.498  0.00  0.00    -0.157 NA
ATOM      6  H   UNL     1       3.544  -0.719   2.931  0.00  0.00    +0.191 HD
ATOM      7  N   UNL     1       3.567  -0.243   2.086  0.00  0.00    -0.254 N 
BRANCH   4   8
ATOM      8  C   UNL     1       5.145   1.674  -0.589  0.00  0.00    +0.059 C 
ATOM      9  C   UNL     1       5.853   2.846   0.136  0.00  0.00    +0.011 C 
ATOM     10  C   UNL     1       7.085   3.110  -0.764  0.00  0.00    +0.001 C 
ATOM     11  C   UNL     1       7.536   1.704  -1.211  0.00  0.00    +0.001 C 
ATOM     12  C   UNL     1       6.302   0.791  -1.099  0.00  0.00    +0.011 C 
ENDBRANCH   4   8
ENDBRANCH   1   2
BRANCH   1  14
ATOM     13  C   UNL     1      -0.019   1.526   0.010  0.00  0.00    +0.029 C 
ATOM     14  C   UNL     1       0.002  -0.004   0.002  0.00  0.00    +0.137 C 
BRANCH  14  15
ATOM     15  C   UNL     1      -1.412  -0.526   0.013  0.00  0.00    +0.236 C 
ATOM     16  O   UNL     1      -1.939  -0.827   1.062  0.00  0.00    -0.274 OA
ATOM     17  N   UNL     1      -2.090  -0.657  -1.144  0.00  0.00    -0.224 N 
ATOM     18  C   UNL     1      -3.471  -1.146  -1.271  0.00  0.00    +0.136 C 
ATOM     19  C   UNL     1      -3.743  -1.095  -2.787  0.00  0.00    +0.125 C 
ATOM     20  N   UNL     1      -2.487  -0.582  -3.353  0.00  0.00    -0.297 N 
ATOM     21  C   UNL     1      -1.616  -0.358  -2.361  0.00  0.00    +0.309 C 
ATOM     22  O   UNL     1      -0.495   0.074  -2.547  0.00  0.00    -0.252 OA
ATOM     23  H   UNL     1      -2.317  -0.426  -4.296  0.00  0.00    +0.150 HD
ENDBRANCH  14  15
ENDBRANCH   1  14
TORSDOF 4
