REMARK  Name = ZINC56126745
REMARK  3 active torsions:
REMARK  status: ('A' for Active; 'I' for Inactive)
REMARK    1  A    between atoms: C_6  and  C_7
REMARK    2  A    between atoms: N_10  and  S_14
REMARK    3  A    between atoms: S_14  and  N_17
REMARK                            x       y       z     vdW  Elec       q    Type
REMARK                         _______ _______ _______ _____ _____    ______ ____
ROOT
ATOM      1  C   UNL     1      -1.293  -0.775   0.011  0.00  0.00    +0.164 C 
ATOM      2  C   UNL     1      -1.617  -1.247  -1.411  0.00  0.00    +0.147 C 
ATOM      3  N   UNL     1      -2.777  -2.150  -1.347  0.00  0.00    -0.161 NA
ATOM      4  C   UNL     1      -2.740  -3.257  -0.379  0.00  0.00    +0.138 C 
ATOM      5  C   UNL     1      -2.361  -2.687   0.993  0.00  0.00    +0.178 C 
ATOM      6  O   UNL     1      -1.166  -1.912   0.868  0.00  0.00    -0.369 OA
ENDROOT
BRANCH   1  12
ATOM      7  C   UNL     1      -0.017   1.378   0.010  0.00  0.00    +0.007 A 
ATOM      8  C   UNL     1       1.171   2.086   0.002  0.00  0.00    +0.020 A 
ATOM      9  C   UNL     1       2.378   1.410  -0.013  0.00  0.00    +0.041 A 
ATOM     10  C   UNL     1       2.396   0.027  -0.021  0.00  0.00    +0.020 A 
ATOM     11  C   UNL     1       1.208  -0.679  -0.013  0.00  0.00    +0.007 A 
ATOM     12  C   UNL     1       0.002  -0.004   0.002  0.00  0.00    -0.018 A 
ATOM     13 CL   UNL     1       3.870   2.298  -0.023  0.00  0.00    -0.084 Cl
ENDBRANCH   1  12
BRANCH   3  14
ATOM     14  S   UNL     1      -4.087  -1.926  -2.335  0.00  0.00    +0.100 S 
ATOM     15  O   UNL     1      -5.194  -2.539  -1.688  0.00  0.00    -0.141 OA
ATOM     16  O   UNL     1      -4.086  -0.554  -2.707  0.00  0.00    -0.141 OA
BRANCH  14  17
ATOM     17  N   UNL     1      -3.810  -2.791  -3.720  0.00  0.00    -0.162 NA
ATOM     18  C   UNL     1      -3.117  -2.184  -4.867  0.00  0.00    +0.138 C 
ATOM     19  C   UNL     1      -1.984  -3.122  -5.299  0.00  0.00    +0.177 C 
ATOM     20  O   UNL     1      -2.511  -4.436  -5.499  0.00  0.00    -0.377 OA
ATOM     21  C   UNL     1      -3.061  -5.031  -4.321  0.00  0.00    +0.177 C 
ATOM     22  C   UNL     1      -4.244  -4.192  -3.837  0.00  0.00    +0.138 C 
ENDBRANCH  14  17
ENDBRANCH   3  14
TORSDOF 3
