REMARK  Name = ZINC35464823
REMARK  8 active torsions:
REMARK  status: ('A' for Active; 'I' for Inactive)
REMARK    1  A    between atoms: C_1  and  C_2
REMARK    2  A    between atoms: C_7  and  C_25
REMARK    3  A    between atoms: C_8  and  O_23
REMARK    4  A    between atoms: C_12  and  C_21
REMARK    5  A    between atoms: C_12  and  O_22
REMARK    6  A    between atoms: C_18  and  C_20
REMARK    7  A    between atoms: O_23  and  C_24
REMARK    8  A    between atoms: C_25  and  O_26
REMARK                            x       y       z     vdW  Elec       q    Type
REMARK                         _______ _______ _______ _____ _____    ______ ____
ROOT
ATOM      1  C   UNL     1       0.051   1.561  -0.109  0.00  0.00    +0.011 C 
ATOM      2  C   UNL     1       0.082   0.029  -0.108  0.00  0.00    +0.027 C 
ATOM      3  C   UNL     1       0.754  -0.455  -1.396  0.00  0.00    +0.011 C 
ATOM      4  C   UNL     1      -0.098  -1.551  -2.045  0.00  0.00    +0.028 C 
ATOM      5  C   UNL     1      -1.516  -1.070  -2.183  0.00  0.00    -0.023 C 
ATOM      6  C   UNL     1      -2.494  -1.889  -2.469  0.00  0.00    -0.016 C 
ATOM      7  C   UNL     1      -3.904  -1.356  -2.559  0.00  0.00    +0.169 C 
ATOM      8  C   UNL     1      -4.527  -1.397  -1.187  0.00  0.00    +0.007 C 
ATOM      9  C   UNL     1      -4.079  -0.601  -0.247  0.00  0.00    +0.005 C 
ATOM     10  C   UNL     1      -4.679  -0.630   1.133  0.00  0.00    +0.082 C 
ATOM     11  C   UNL     1      -3.612  -0.227   2.156  0.00  0.00    +0.050 C 
ATOM     12  C   UNL     1      -2.438  -1.205   2.084  0.00  0.00    +0.124 C 
ATOM     13  C   UNL     1      -1.149  -0.471   2.374  0.00  0.00    +0.307 C 
ATOM     14  O   UNL     1      -1.189   0.619   2.886  0.00  0.00    -0.251 OA
ATOM     15  O   UNL     1       0.021  -1.049   2.074  0.00  0.00    -0.461 OA
ATOM     16  C   UNL     1       0.879  -0.463   1.102  0.00  0.00    +0.176 C 
ATOM     17  C   UNL     1       1.648   0.709   1.716  0.00  0.00    +0.052 C 
ATOM     18  C   UNL     1      -5.848   0.355   1.209  0.00  0.00    +0.046 C 
ENDROOT
BRANCH  10  19
ATOM     19  O   UNL     1      -5.145  -1.947   1.430  0.00  0.00    -0.385 OA
ATOM     20  H   UNL     1      -5.823  -2.271   0.821  0.00  0.00    +0.211 HD
ENDBRANCH  10  19
BRANCH   7  21
ATOM     21  O   UNL     1      -4.662  -2.170  -3.454  0.00  0.00    -0.371 OA
ATOM     22  C   UNL     1      -5.702  -1.468  -4.138  0.00  0.00    +0.195 C 
ENDBRANCH   7  21
BRANCH   6  23
ATOM     23  C   UNL     1      -2.233  -3.351  -2.716  0.00  0.00    +0.189 C 
BRANCH  23  24
ATOM     24  O   UNL     1      -2.998  -4.134  -1.798  0.00  0.00    -0.391 OA
ATOM     25  H   UNL     1      -2.879  -5.088  -1.900  0.00  0.00    +0.210 HD
ENDBRANCH  23  24
ENDBRANCH   6  23
TORSDOF 4
