REMARK  Name = ZINC42104507
REMARK  4 active torsions:
REMARK  status: ('A' for Active; 'I' for Inactive)
REMARK    1  A    between atoms: C_1  and  C_2
REMARK    2  A    between atoms: C_2  and  C_3
REMARK    3  A    between atoms: C_9  and  N_14
REMARK    4  A    between atoms: N_14  and  C_15
REMARK                            x       y       z     vdW  Elec       q    Type
REMARK                         _______ _______ _______ _____ _____    ______ ____
ROOT
ATOM      1  C   UNL     1      -1.339  -0.343  -0.064  0.00  0.00    -0.047 A 
ATOM      2  C   UNL     1      -1.929  -0.664   1.145  0.00  0.00    +0.005 A 
ATOM      3  C   UNL     1      -3.181  -1.243   1.178  0.00  0.00    +0.024 A 
ATOM      4  C   UNL     1      -3.860  -1.509  -0.009  0.00  0.00    +0.039 A 
ATOM      5  C   UNL     1      -3.257  -1.183  -1.217  0.00  0.00    -0.000 A 
ATOM      6  C   UNL     1      -2.010  -0.600  -1.247  0.00  0.00    +0.011 A 
ATOM      7  C   UNL     1      -4.228  -1.588  -2.301  0.00  0.00    +0.174 C 
ATOM      8  C   UNL     1      -5.406  -2.162  -1.544  0.00  0.00    +0.239 C 
ATOM      9  O   UNL     1      -6.424  -2.612  -2.027  0.00  0.00    -0.273 OA
ATOM     10  N   UNL     1      -5.114  -2.079  -0.235  0.00  0.00    -0.284 N 
ATOM     11  H   UNL     1      -5.706  -2.381   0.472  0.00  0.00    +0.155 HD
ENDROOT
BRANCH   1  13
ATOM     12  C   UNL     1      -0.113   1.812  -0.044  0.00  0.00    +0.009 C 
ATOM     13  C   UNL     1       0.029   0.289  -0.092  0.00  0.00    +0.032 C 
ENDBRANCH   1  13
BRANCH   7  14
ATOM     14  N   UNL     1      -4.639  -0.418  -3.088  0.00  0.00    -0.291 NA
ATOM     15  H   UNL     1      -5.366   0.099  -2.615  0.00  0.00    +0.124 HD
BRANCH  14  16
ATOM     16  C   UNL     1      -5.067  -0.813  -4.436  0.00  0.00    +0.141 C 
ATOM     17  C   UNL     1      -3.848  -0.896  -5.359  0.00  0.00    +0.028 C 
ATOM     18  C   UNL     1      -2.825   0.165  -4.995  0.00  0.00    +0.003 C 
ATOM     19  C   UNL     1      -3.296   1.584  -5.256  0.00  0.00    +0.019 C 
ATOM     20  C   UNL     1      -4.447   1.958  -4.320  0.00  0.00    +0.104 C 
ATOM     21  N   UNL     1      -5.712   1.519  -4.932  0.00  0.00    -0.314 N 
ATOM     22  C   UNL     1      -6.024   0.221  -4.991  0.00  0.00    +0.230 C 
ATOM     23  O   UNL     1      -7.071  -0.132  -5.492  0.00  0.00    -0.274 OA
ATOM     24  H   UNL     1      -6.326   2.178  -5.294  0.00  0.00    +0.149 HD
ENDBRANCH  14  16
ENDBRANCH   7  14
TORSDOF 3
