REMARK  Name = ZINC41333004
REMARK  9 active torsions:
REMARK  status: ('A' for Active; 'I' for Inactive)
REMARK    1  A    between atoms: C_1  and  O_2
REMARK    2  A    between atoms: O_2  and  C_3
REMARK    3  A    between atoms: C_6  and  C_11
REMARK    4  A    between atoms: C_8  and  O_9
REMARK    5  A    between atoms: O_9  and  C_10
REMARK    6  A    between atoms: C_11  and  C_13
REMARK    7  A    between atoms: C_11  and  N_27
REMARK    8  A    between atoms: C_13  and  N_14
REMARK    9  A    between atoms: C_15  and  C_17
REMARK                            x       y       z     vdW  Elec       q    Type
REMARK                         _______ _______ _______ _____ _____    ______ ____
ROOT
ATOM      1  C   UNL     1       2.384  -2.317  -4.248  0.00  0.00    -0.020 C 
ENDROOT
BRANCH   1   2
ATOM      2  N   UNL     1       3.532  -1.445  -4.531  0.00  0.00    +0.385 N 
ATOM      3  C   UNL     1       4.312  -2.009  -5.639  0.00  0.00    -0.078 C 
ATOM      4  C   UNL     1       5.462  -1.064  -5.992  0.00  0.00    -0.019 C 
ATOM      5  C   UNL     1       6.366  -0.889  -4.768  0.00  0.00    -0.004 C 
ATOM      6  C   UNL     1       5.526  -0.370  -3.597  0.00  0.00    -0.019 C 
ATOM      7  C   UNL     1       4.373  -1.341  -3.333  0.00  0.00    -0.078 C 
ATOM      8  H   UNL     1       3.201  -0.527  -4.789  0.00  0.00    -0.081 HD
ENDBRANCH   1   2
BRANCH   1  12
ATOM      9  C   UNL     1       0.190  -0.744  -0.932  0.00  0.00    +0.161 A 
ATOM     10  C   UNL     1       0.708   0.111  -1.891  0.00  0.00    +0.049 A 
ATOM     11  C   UNL     1       1.417  -0.400  -2.962  0.00  0.00    +0.006 A 
ATOM     12  C   UNL     1       1.611  -1.764  -3.079  0.00  0.00    -0.056 A 
ATOM     13  C   UNL     1       1.096  -2.623  -2.125  0.00  0.00    +0.051 A 
ATOM     14  C   UNL     1       0.389  -2.116  -1.046  0.00  0.00    +0.162 A 
BRANCH   9  16
ATOM     15  C   UNL     1      -0.674   1.176   0.175  0.00  0.00    +0.277 C 
ATOM     16  O   UNL     1      -0.508  -0.242   0.122  0.00  0.00    -0.491 OA
ENDBRANCH   9  16
BRANCH  14  17
ATOM     17  O   UNL     1      -0.112  -2.959  -0.104  0.00  0.00    -0.491 OA
ATOM     18  C   UNL     1       0.132  -4.355  -0.286  0.00  0.00    +0.277 C 
ENDBRANCH  14  17
ENDBRANCH   1  12
BRANCH   1  19
ATOM     19  C   UNL     1       1.475  -2.378  -5.477  0.00  0.00    +0.094 C 
BRANCH  19  20
ATOM     20  N   UNL     1       0.373  -3.309  -5.223  0.00  0.00    -0.310 N 
ATOM     21  C   UNL     1      -0.616  -3.446  -6.128  0.00  0.00    +0.279 C 
ATOM     22  O   UNL     1      -0.594  -2.796  -7.157  0.00  0.00    -0.267 OA
ATOM     23  H   UNL     1       0.355  -3.827  -4.403  0.00  0.00    +0.149 HD
BRANCH  21  24
ATOM     24  C   UNL     1      -1.722  -4.380  -5.873  0.00  0.00    +0.191 A 
ATOM     25  C   UNL     1      -2.766  -4.603  -6.713  0.00  0.00    +0.063 A 
ATOM     26  C   UNL     1      -3.610  -5.598  -6.054  0.00  0.00    +0.024 A 
ATOM     27  C   UNL     1      -4.808  -6.236  -6.390  0.00  0.00    +0.012 A 
ATOM     28  C   UNL     1      -5.356  -7.145  -5.531  0.00  0.00    +0.004 A 
ATOM     29  C   UNL     1      -4.732  -7.441  -4.326  0.00  0.00    +0.042 A 
ATOM     30  C   UNL     1      -3.550  -6.823  -3.975  0.00  0.00    +0.166 A 
ATOM     31  C   UNL     1      -2.973  -5.893  -4.835  0.00  0.00    +0.171 A 
ATOM     32  O   UNL     1      -1.850  -5.149  -4.772  0.00  0.00    -0.447 OA
ATOM     33  F   UNL     1      -2.954  -7.120  -2.800  0.00  0.00    -0.202 F 
ENDBRANCH  21  24
ENDBRANCH  19  20
ENDBRANCH   1  19
TORSDOF 7
