REMARK  Name = ZINC36879691
REMARK  6 active torsions:
REMARK  status: ('A' for Active; 'I' for Inactive)
REMARK    1  A    between atoms: C_1  and  C_2
REMARK    2  A    between atoms: C_2  and  C_20
REMARK    3  A    between atoms: N_5  and  C_9
REMARK    4  A    between atoms: C_9  and  C_10
REMARK    5  A    between atoms: N_12  and  C_13
REMARK    6  A    between atoms: C_14  and  C_18
REMARK                            x       y       z     vdW  Elec       q    Type
REMARK                         _______ _______ _______ _____ _____    ______ ____
ROOT
ATOM      1  C   UNL     1      -0.019   1.526   0.010  0.00  0.00    +0.047 C 
ATOM      2  C   UNL     1       0.002  -0.004   0.002  0.00  0.00    +0.136 C 
ATOM      3  C   UNL     1      -1.403  -0.557   0.139  0.00  0.00    +0.251 C 
ATOM      4  O   UNL     1      -2.332  -0.392  -0.621  0.00  0.00    -0.272 OA
ATOM      5  N   UNL     1      -1.403  -1.272   1.282  0.00  0.00    -0.215 N 
ATOM      6  C   UNL     1      -0.206  -1.247   1.879  0.00  0.00    +0.310 C 
ATOM      7  O   UNL     1       0.040  -1.819   2.924  0.00  0.00    -0.252 OA
ATOM      8  N   UNL     1       0.695  -0.520   1.195  0.00  0.00    -0.281 N 
ATOM      9  H   UNL     1       1.621  -0.365   1.440  0.00  0.00    +0.152 HD
ENDROOT
BRANCH   2  10
ATOM     10  C   UNL     1       0.657  -0.517  -1.255  0.00  0.00    +0.003 A 
ATOM     11  C   UNL     1       1.795  -1.298  -1.172  0.00  0.00    +0.009 A 
ATOM     12  C   UNL     1       2.396  -1.769  -2.324  0.00  0.00    +0.020 A 
ATOM     13  C   UNL     1       1.859  -1.459  -3.561  0.00  0.00    +0.042 A 
ATOM     14  C   UNL     1       0.720  -0.678  -3.644  0.00  0.00    +0.040 A 
ATOM     15  C   UNL     1       0.116  -0.211  -2.491  0.00  0.00    +0.048 A 
ATOM     16 CL   UNL     1      -1.316   0.764  -2.594  0.00  0.00    -0.083 Cl
ATOM     17 CL   UNL     1       2.615  -2.050  -5.008  0.00  0.00    -0.083 Cl
ENDBRANCH   2  10
BRANCH   5  18
ATOM     18  C   UNL     1      -2.569  -1.986   1.805  0.00  0.00    +0.214 C 
BRANCH  18  19
ATOM     19  C   UNL     1      -2.585  -3.391   1.260  0.00  0.00    +0.236 C 
ATOM     20  O   UNL     1      -1.707  -3.759   0.508  0.00  0.00    -0.274 OA
ATOM     21  N   UNL     1      -3.573  -4.239   1.608  0.00  0.00    -0.278 N 
ATOM     22  H   UNL     1      -4.275  -3.944   2.209  0.00  0.00    +0.155 HD
BRANCH  21  23
ATOM     23  C   UNL     1      -3.587  -5.532   1.105  0.00  0.00    +0.089 A 
ATOM     24  C   UNL     1      -4.519  -6.530   1.347  0.00  0.00    +0.080 A 
ATOM     25  C   UNL     1      -4.294  -7.798   0.691  0.00  0.00    +0.028 A 
ATOM     26  C   UNL     1      -3.197  -7.869  -0.087  0.00  0.00    +0.048 A 
ATOM     27  S   UNL     1      -2.485  -6.245   0.060  0.00  0.00    -0.081 S 
BRANCH  24  28
ATOM     28  C   UNL     1      -5.646  -6.316   2.203  0.00  0.00    +0.102 C 
ATOM     29  N   UNL     1      -6.540  -6.146   2.883  0.00  0.00    -0.191 NA
ENDBRANCH  24  28
ENDBRANCH  21  23
ENDBRANCH  18  19
ENDBRANCH   5  18
TORSDOF 5
