REMARK  Name = ZINC38799078
REMARK  4 active torsions:
REMARK  status: ('A' for Active; 'I' for Inactive)
REMARK    1  A    between atoms: C_4  and  C_7
REMARK    2  A    between atoms: C_17  and  C_19
REMARK    3  A    between atoms: C_22  and  C_25
REMARK    4  A    between atoms: C_31  and  C_33
REMARK                            x       y       z     vdW  Elec       q    Type
REMARK                         _______ _______ _______ _____ _____    ______ ____
ROOT
ATOM      1  C   UNL     1       3.555  -0.448   0.131  0.00  0.00    -0.014 C 
ATOM      2  C   UNL     1       4.730   0.307   0.084  0.00  0.00    +0.002 A 
ATOM      3  C   UNL     1       4.681   1.716   0.043  0.00  0.00    +0.030 A 
ATOM      4  C   UNL     1       5.842   2.426  -0.002  0.00  0.00    +0.042 A 
ATOM      5  C   UNL     1       7.081   1.789  -0.008  0.00  0.00    +0.022 A 
ATOM      6  C   UNL     1       7.192   0.432   0.030  0.00  0.00    +0.025 A 
ATOM      7  C   UNL     1       6.035  -0.365   0.078  0.00  0.00    +0.041 A 
ATOM      8  N   UNL     1       6.145  -1.698   0.116  0.00  0.00    -0.284 N 
ATOM      9  C   UNL     1       5.111  -2.514   0.161  0.00  0.00    +0.230 C 
ATOM     10  O   UNL     1       5.287  -3.717   0.194  0.00  0.00    -0.274 OA
ATOM     11  C   UNL     1       3.706  -1.956   0.180  0.00  0.00    +0.152 C 
ATOM     12 CL   UNL     1       5.776   4.160  -0.053  0.00  0.00    -0.084 Cl
ATOM     13  H   UNL     1       7.035  -2.084   0.110  0.00  0.00    +0.155 HD
ENDROOT
BRANCH  11  14
ATOM     14  C   UNL     1       3.023  -2.449   1.430  0.00  0.00    +0.055 C 
ATOM     15  N   UNL     1       2.506  -1.706   2.321  0.00  0.00    -0.185 NA
ATOM     16  N   UNL     1       1.931  -2.397   3.386  0.00  0.00    -0.185 N 
ATOM     17  C   UNL     1       2.099  -3.842   3.157  0.00  0.00    +0.147 C 
ATOM     18  C   UNL     1       2.846  -3.902   1.809  0.00  0.00    +0.082 C 
ATOM     19  C   UNL     1       1.323  -1.835   4.449  0.00  0.00    +0.250 C 
ATOM     20  O   UNL     1       0.934  -2.532   5.363  0.00  0.00    -0.273 OA
BRANCH  17  21
ATOM     21  C   UNL     1       2.933  -4.472   4.274  0.00  0.00    +0.199 C 
ATOM     22  C   UNL     1       4.355  -3.859   4.318  0.00  0.00    +0.076 C 
ATOM     23  C   UNL     1       5.204  -5.075   4.647  0.00  0.00    +0.014 C 
ATOM     24  C   UNL     1       4.463  -6.141   4.431  0.00  0.00    +0.183 C 
ATOM     25  O   UNL     1       3.217  -5.855   3.988  0.00  0.00    -0.494 OA
ENDBRANCH  17  21
BRANCH  19  26
ATOM     26  C   UNL     1       1.125  -0.342   4.503  0.00  0.00    +0.206 C 
ATOM     27 CL   UNL     1       0.288   0.098   6.038  0.00  0.00    -0.116 Cl
ENDBRANCH  19  26
ENDBRANCH  11  14
BRANCH   1  31
ATOM     28  C   UNL     1      -0.217   1.375   0.153  0.00  0.00    +0.000 A 
ATOM     29  C   UNL     1       0.135   0.537  -0.892  0.00  0.00    +0.001 A 
ATOM     30  C   UNL     1       1.373  -0.067  -0.909  0.00  0.00    +0.008 A 
ATOM     31  C   UNL     1       2.278   0.170   0.138  0.00  0.00    -0.020 A 
ATOM     32  C   UNL     1       1.911   1.022   1.192  0.00  0.00    +0.008 A 
ATOM     33  C   UNL     1       0.669   1.616   1.190  0.00  0.00    +0.001 A 
ENDBRANCH   1  31
TORSDOF 4
