REMARK  Name = ZINC36020316
REMARK  8 active torsions:
REMARK  status: ('A' for Active; 'I' for Inactive)
REMARK    1  A    between atoms: C_1  and  C_2
REMARK    2  A    between atoms: C_21  and  C_31
REMARK    3  A    between atoms: C_24  and  O_27
REMARK    4  A    between atoms: O_27  and  C_28
REMARK    5  A    between atoms: C_28  and  C_30
REMARK    6  A    between atoms: C_32  and  O_35
REMARK    7  A    between atoms: O_35  and  C_36
REMARK    8  A    between atoms: C_36  and  C_38
REMARK                            x       y       z     vdW  Elec       q    Type
REMARK                         _______ _______ _______ _____ _____    ______ ____
ROOT
ATOM      1  C   UNL     1      -0.019   1.526   0.010  0.00  0.00    +0.041 C 
ATOM      2  C   UNL     1       0.002  -0.004   0.002  0.00  0.00    +0.154 C 
ATOM      3  C   UNL     1       0.758  -0.526  -1.233  0.00  0.00    +0.133 C 
ATOM      4  C   UNL     1       2.050   0.191  -1.735  0.00  0.00    +0.155 C 
ATOM      5  O   UNL     1       0.892  -0.005  -2.522  0.00  0.00    -0.361 OA
ATOM      6  C   UNL     1       3.184  -0.845  -1.617  0.00  0.00    +0.039 C 
ATOM      7  C   UNL     1       2.471  -2.194  -1.610  0.00  0.00    +0.010 C 
ATOM      8  C   UNL     1       1.217  -1.910  -0.759  0.00  0.00    +0.070 C 
ATOM      9  C   UNL     1       0.256  -3.064  -0.932  0.00  0.00    +0.016 C 
ATOM     10  C   UNL     1       0.944  -4.312  -0.353  0.00  0.00    +0.005 C 
ATOM     11  C   UNL     1       2.292  -4.576  -1.016  0.00  0.00    +0.003 C 
ATOM     12  C   UNL     1       3.205  -3.357  -0.968  0.00  0.00    +0.001 C 
ATOM     13  C   UNL     1       4.473  -3.668  -1.771  0.00  0.00    +0.031 C 
ATOM     14  C   UNL     1       5.097  -4.926  -1.242  0.00  0.00    -0.027 C 
ATOM     15  C   UNL     1       4.415  -5.858  -0.644  0.00  0.00    -0.064 C 
ATOM     16  C   UNL     1       2.956  -5.781  -0.372  0.00  0.00    -0.008 C 
ATOM     17  C   UNL     1       2.299  -7.070  -0.871  0.00  0.00    +0.015 C 
ATOM     18  C   UNL     1       2.988  -8.274  -0.227  0.00  0.00    +0.046 C 
ATOM     19  C   UNL     1       4.455  -8.322  -0.657  0.00  0.00    +0.180 C 
ATOM     20  C   UNL     1       5.157  -7.093  -0.159  0.00  0.00    +0.075 C 
ATOM     21  C   UNL     1       2.728  -5.701   1.139  0.00  0.00    +0.016 C 
ATOM     22  C   UNL     1       1.523  -1.661   0.723  0.00  0.00    +0.320 C 
ATOM     23  O   UNL     1       0.761  -0.505   1.123  0.00  0.00    -0.335 OA
ENDROOT
BRANCH  19  24
ATOM     24  O   UNL     1       5.071  -9.495  -0.122  0.00  0.00    -0.461 OA
BRANCH  24  25
ATOM     25  C   UNL     1       6.076 -10.033  -0.831  0.00  0.00    +0.304 C 
ATOM     26  O   UNL     1       6.421  -9.524  -1.871  0.00  0.00    -0.251 OA
ATOM     27  C   UNL     1       6.774 -11.270  -0.329  0.00  0.00    +0.136 C 
ENDBRANCH  24  25
ENDBRANCH  19  24
BRANCH  22  28
ATOM     28  O   UNL     1       1.132  -2.796   1.498  0.00  0.00    -0.435 OA
BRANCH  28  29
ATOM     29  C   UNL     1       1.431  -2.773   2.806  0.00  0.00    +0.306 C 
ATOM     30  O   UNL     1       2.005  -1.820   3.278  0.00  0.00    -0.251 OA
ATOM     31  C   UNL     1       1.050  -3.935   3.687  0.00  0.00    +0.136 C 
ENDBRANCH  28  29
ENDBRANCH  22  28
TORSDOF 4
