REMARK  Name = ZINC61775922
REMARK  3 active torsions:
REMARK  status: ('A' for Active; 'I' for Inactive)
REMARK    1  A    between atoms: C_3  and  N_13
REMARK    2  A    between atoms: N_19  and  C_22
REMARK    3  A    between atoms: C_22  and  C_23
REMARK                            x       y       z     vdW  Elec       q    Type
REMARK                         _______ _______ _______ _____ _____    ______ ____
ROOT
ATOM      1  N   UNL     1       3.321   2.331  -0.396  0.00  0.00    -0.266 N 
ATOM      2  C   UNL     1       3.615   3.562  -0.857  0.00  0.00    +0.307 C 
ATOM      3  O   UNL     1       2.729   4.282  -1.277  0.00  0.00    -0.252 OA
ATOM      4  N   UNL     1       4.891   3.997  -0.852  0.00  0.00    -0.283 N 
ATOM      5  C   UNL     1       5.962   3.185  -0.254  0.00  0.00    +0.124 C 
ATOM      6  C   UNL     1       7.100   3.055  -1.273  0.00  0.00    +0.103 C 
ATOM      7  N   UNL     1       7.510   4.393  -1.718  0.00  0.00    -0.294 NA
ATOM      8  C   UNL     1       6.415   5.081  -2.416  0.00  0.00    +0.103 C 
ATOM      9  C   UNL     1       5.250   5.292  -1.450  0.00  0.00    +0.124 C 
ATOM     10  H   UNL     1       4.014   1.784   0.006  0.00  0.00    +0.156 HD
ENDROOT
BRANCH   1  13
ATOM     11  C   UNL     1      -0.350   2.171  -0.547  0.00  0.00    +0.019 A 
ATOM     12  C   UNL     1       0.927   2.705  -0.443  0.00  0.00    +0.028 A 
ATOM     13  C   UNL     1       2.011   1.839  -0.496  0.00  0.00    +0.073 A 
ATOM     14  C   UNL     1       1.778   0.470  -0.652  0.00  0.00    +0.121 A 
ATOM     15  N   UNL     1       0.543   0.007  -0.748  0.00  0.00    -0.348 N 
ATOM     16  C   UNL     1      -0.505   0.809  -0.699  0.00  0.00    +0.084 A 
ATOM     17  N   UNL     1       2.853  -0.412  -0.708  0.00  0.00    -0.315 N 
ATOM     18  C   UNL     1       3.314  -1.107   0.501  0.00  0.00    +0.106 C 
ATOM     19  C   UNL     1       3.348  -2.613   0.222  0.00  0.00    +0.019 C 
ATOM     20  C   UNL     1       4.202  -2.878  -1.020  0.00  0.00    +0.003 C 
ATOM     21  C   UNL     1       3.579  -2.176  -2.229  0.00  0.00    +0.019 C 
ATOM     22  C   UNL     1       3.544  -0.670  -1.979  0.00  0.00    +0.106 C 
ATOM     23  H   UNL     1       0.403  -0.947  -0.857  0.00  0.00    +0.167 HD
ENDBRANCH   1  13
BRANCH   7  24
ATOM     24  C   UNL     1       8.709   4.323  -2.563  0.00  0.00    +0.156 C 
BRANCH  24  25
ATOM     25  C   UNL     1       9.942   4.114  -1.681  0.00  0.00    +0.355 C 
ATOM     26  F   UNL     1       9.991   5.113  -0.703  0.00  0.00    -0.208 F 
ATOM     27  F   UNL     1       9.867   2.860  -1.063  0.00  0.00    -0.208 F 
ENDBRANCH  24  25
ENDBRANCH   7  24
TORSDOF 3
