REMARK  Name = ZINC44890281
REMARK  4 active torsions:
REMARK  status: ('A' for Active; 'I' for Inactive)
REMARK    1  A    between atoms: C_6  and  S_7
REMARK    2  A    between atoms: S_7  and  N_10
REMARK    3  A    between atoms: N_10  and  C_11
REMARK    4  A    between atoms: C_18  and  C_20
REMARK                            x       y       z     vdW  Elec       q    Type
REMARK                         _______ _______ _______ _____ _____    ______ ____
ROOT
ATOM      1  C   UNL     1      -3.123  -1.843  -1.869  0.00  0.00    +0.076 A 
ATOM      2  C   UNL     1      -3.927  -2.327  -0.838  0.00  0.00    +0.029 A 
ATOM      3  C   UNL     1      -5.077  -3.009  -1.116  0.00  0.00    +0.032 A 
ATOM      4  C   UNL     1      -5.457  -3.226  -2.443  0.00  0.00    +0.089 A 
ATOM      5  C   UNL     1      -4.649  -2.740  -3.485  0.00  0.00    +0.068 A 
ATOM      6  C   UNL     1      -3.485  -2.044  -3.190  0.00  0.00    +0.054 A 
ATOM      7  N   UNL     1      -5.278  -3.106  -4.658  0.00  0.00    -0.340 N 
ATOM      8  C   UNL     1      -6.410  -3.781  -4.317  0.00  0.00    +0.137 A 
ATOM      9  N   UNL     1      -6.515  -3.852  -3.022  0.00  0.00    -0.230 NA
ATOM     10  H   UNL     1      -4.970  -2.917  -5.559  0.00  0.00    +0.167 HD
ENDROOT
BRANCH   8  11
ATOM     11  C   UNL     1      -7.398  -4.362  -5.296  0.00  0.00    +0.184 C 
ATOM     12  C   UNL     1      -7.633  -5.863  -4.997  0.00  0.00    +0.042 C 
ATOM     13  C   UNL     1      -9.045  -6.069  -5.608  0.00  0.00    +0.031 C 
ATOM     14  C   UNL     1      -9.721  -4.708  -5.335  0.00  0.00    +0.161 C 
ATOM     15  O   UNL     1      -8.683  -3.740  -5.136  0.00  0.00    -0.369 OA
ENDBRANCH   8  11
BRANCH   1  16
ATOM     16  N   UNL     1      -1.948  -1.147  -1.567  0.00  0.00    -0.098 NA
BRANCH  16  17
ATOM     17  S   UNL     1      -1.512  -0.905   0.012  0.00  0.00    +0.092 S 
ATOM     18  O   UNL     1      -1.218  -2.186   0.553  0.00  0.00    -0.148 OA
ATOM     19  O   UNL     1      -2.492  -0.046   0.577  0.00  0.00    -0.148 OA
BRANCH  17  25
ATOM     20  C   UNL     1      -0.017   1.378   0.010  0.00  0.00    +0.030 A 
ATOM     21  C   UNL     1       1.171   2.086   0.002  0.00  0.00    +0.022 A 
ATOM     22  C   UNL     1       2.378   1.410  -0.013  0.00  0.00    +0.041 A 
ATOM     23  C   UNL     1       2.396   0.027  -0.021  0.00  0.00    +0.022 A 
ATOM     24  C   UNL     1       1.208  -0.679  -0.013  0.00  0.00    +0.030 A 
ATOM     25  C   UNL     1       0.002  -0.004   0.002  0.00  0.00    +0.110 A 
ATOM     26 CL   UNL     1       3.870   2.298  -0.023  0.00  0.00    -0.084 Cl
ENDBRANCH  17  25
ENDBRANCH  16  17
ENDBRANCH   1  16
TORSDOF 4
