REMARK  Name = ZINC09594338
REMARK  8 active torsions:
REMARK  status: ('A' for Active; 'I' for Inactive)
REMARK    1  A    between atoms: C_1  and  O_2
REMARK    2  A    between atoms: O_2  and  C_3
REMARK    3  A    between atoms: C_6  and  C_9
REMARK    4  A    between atoms: C_9  and  C_11
REMARK    5  A    between atoms: C_9  and  N_58
REMARK    6  A    between atoms: C_11  and  N_12
REMARK    7  A    between atoms: C_13  and  C_15
REMARK    8  A    between atoms: C_15  and  C_16
REMARK                            x       y       z     vdW  Elec       q    Type
REMARK                         _______ _______ _______ _____ _____    ______ ____
ROOT
ATOM      1  C   UNL     1       2.495   1.093   0.053  0.00  0.00    +0.093 C 
ENDROOT
BRANCH   1   2
ATOM      2  N   UNL     1       2.526   0.311  -1.186  0.00  0.00    -0.316 N 
ATOM      3  C   UNL     1       1.678  -0.725  -1.350  0.00  0.00    +0.215 C 
ATOM      4  O   UNL     1       0.891  -1.009  -0.473  0.00  0.00    -0.276 OA
ATOM      5  H   UNL     1       3.156   0.538  -1.887  0.00  0.00    +0.149 HD
BRANCH   3   6
ATOM      6  C   UNL     1       1.714  -1.533  -2.621  0.00  0.00    +0.119 C 
BRANCH   6   7
ATOM      7  C   UNL     1       0.664  -2.643  -2.549  0.00  0.00    +0.146 C 
ATOM      8  C   UNL     1       0.778  -3.529  -3.763  0.00  0.00    +0.231 C 
ATOM      9  O   UNL     1       1.392  -4.570  -3.662  0.00  0.00    -0.274 OA
ATOM     10  N   UNL     1       0.239  -3.224  -4.939  0.00  0.00    -0.284 N 
ATOM     11  C   UNL     1      -0.587  -2.140  -5.219  0.00  0.00    +0.047 A 
ATOM     12  C   UNL     1      -0.806  -1.774  -6.543  0.00  0.00    +0.024 A 
ATOM     13  C   UNL     1      -1.617  -0.699  -6.845  0.00  0.00    +0.002 A 
ATOM     14  C   UNL     1      -2.229   0.022  -5.835  0.00  0.00    +0.001 A 
ATOM     15  C   UNL     1      -2.036  -0.341  -4.515  0.00  0.00    +0.016 A 
ATOM     16  C   UNL     1      -1.226  -1.422  -4.208  0.00  0.00    +0.030 A 
ATOM     17  S   UNL     1      -1.001  -1.911  -2.526  0.00  0.00    -0.110 S 
ATOM     18  H   UNL     1       0.442  -3.820  -5.677  0.00  0.00    +0.155 HD
ENDBRANCH   6   7
ENDBRANCH   3   6
ENDBRANCH   1   2
BRANCH   1  19
ATOM     19  C   UNL     1       3.639   2.108   0.043  0.00  0.00    -0.020 C 
BRANCH  19  25
ATOM     20  C   UNL     1       2.255   3.613   1.342  0.00  0.00    -0.049 C 
ATOM     21  C   UNL     1       2.195   4.425   2.639  0.00  0.00    +0.141 C 
ATOM     22  O   UNL     1       3.281   5.355   2.663  0.00  0.00    -0.383 OA
ATOM     23  C   UNL     1       4.569   4.739   2.574  0.00  0.00    +0.141 C 
ATOM     24  C   UNL     1       4.653   3.930   1.277  0.00  0.00    -0.049 C 
ATOM     25  N   UNL     1       3.564   2.930   1.270  0.00  0.00    +0.388 N 
ATOM     26  H   UNL     1       3.667   2.318   2.088  0.00  0.00    -0.081 HD
ENDBRANCH  19  25
BRANCH  19  30
ATOM     27  C   UNL     1       7.378   0.040  -0.016  0.00  0.00    +0.120 A 
ATOM     28  C   UNL     1       6.856   0.565  -1.189  0.00  0.00    +0.046 A 
ATOM     29  C   UNL     1       5.647   1.233  -1.167  0.00  0.00    +0.005 A 
ATOM     30  C   UNL     1       4.958   1.379   0.022  0.00  0.00    -0.059 A 
ATOM     31  C   UNL     1       5.479   0.862   1.194  0.00  0.00    +0.005 A 
ATOM     32  C   UNL     1       6.685   0.188   1.177  0.00  0.00    +0.046 A 
BRANCH  27  34
ATOM     33  C   UNL     1       9.044  -1.132   1.211  0.00  0.00    +0.277 C 
ATOM     34  O   UNL     1       8.567  -0.618  -0.034  0.00  0.00    -0.495 OA
ENDBRANCH  27  34
ENDBRANCH  19  30
ENDBRANCH   1  19
TORSDOF 7
