REMARK  Name = ZINC06643686
REMARK  6 active torsions:
REMARK  status: ('A' for Active; 'I' for Inactive)
REMARK    1  A    between atoms: C_3  and  O_23
REMARK    2  A    between atoms: C_4  and  C_8
REMARK    3  A    between atoms: C_8  and  O_10
REMARK    4  A    between atoms: O_10  and  C_11
REMARK    5  A    between atoms: C_11  and  C_12
REMARK    6  A    between atoms: N_17  and  C_18
REMARK                            x       y       z     vdW  Elec       q    Type
REMARK                         _______ _______ _______ _____ _____    ______ ____
ROOT
ATOM      1  C   UNL     1       3.666   5.984   0.000  0.00  0.00    +0.328 C 
ENDROOT
BRANCH   1   2
ATOM      2  C   UNL     1       3.437   7.473   0.010  0.00  0.00    +0.258 C 
ATOM      3  O   UNL     1       2.308   7.913   0.023  0.00  0.00    -0.272 OA
ATOM      4  N   UNL     1       4.489   8.316   0.005  0.00  0.00    -0.237 N 
ATOM      5  C   UNL     1       4.284   9.649   0.014  0.00  0.00    +0.306 C 
ATOM      6  O   UNL     1       3.151  10.089   0.027  0.00  0.00    -0.252 OA
ATOM      7  N   UNL     1       5.335  10.492   0.009  0.00  0.00    -0.296 N 
ATOM      8  H   UNL     1       5.393   7.965  -0.005  0.00  0.00    +0.159 HD
ATOM      9  H   UNL     1       6.239  10.140  -0.001  0.00  0.00    +0.151 HD
BRANCH   7  10
ATOM     10  C   UNL     1       5.113  11.940   0.019  0.00  0.00    +0.074 C 
ATOM     11  C   UNL     1       4.965  12.462  -1.425  0.00  0.00    +0.022 C 
ATOM     12  C   UNL     1       5.671  13.840  -1.405  0.00  0.00    +0.002 C 
ATOM     13  C   UNL     1       6.885  13.589  -0.476  0.00  0.00    +0.002 C 
ATOM     14  C   UNL     1       6.333  12.657   0.623  0.00  0.00    +0.022 C 
ENDBRANCH   7  10
ENDBRANCH   1   2
BRANCH   1  15
ATOM     15  O   UNL     1       2.387   5.297   0.008  0.00  0.00    -0.452 OA
BRANCH  15  16
ATOM     16  C   UNL     1       2.415   3.950   0.001  0.00  0.00    +0.343 C 
ATOM     17  O   UNL     1       3.480   3.365  -0.012  0.00  0.00    -0.245 OA
BRANCH  16  21
ATOM     18  C   UNL     1      -1.218   1.749   0.017  0.00  0.00    +0.019 A 
ATOM     19  C   UNL     1      -0.013   1.076   0.008  0.00  0.00    +0.047 A 
ATOM     20  C   UNL     1       1.179   1.784   0.000  0.00  0.00    +0.131 A 
ATOM     21  C   UNL     1       1.155   3.186   0.008  0.00  0.00    +0.101 A 
ATOM     22  C   UNL     1      -0.072   3.855   0.024  0.00  0.00    +0.034 A 
ATOM     23  C   UNL     1      -1.248   3.135   0.031  0.00  0.00    +0.019 A 
ATOM     24 BR   UNL     1      -2.907   4.041   0.051  0.00  0.00    -0.050 Br
BRANCH  20  25
ATOM     25  O   UNL     1       2.364   1.124  -0.015  0.00  0.00    -0.506 OA
ATOM     26  H   UNL     1       2.699   0.938  -0.903  0.00  0.00    +0.292 HD
ENDBRANCH  20  25
ENDBRANCH  16  21
ENDBRANCH  15  16
ENDBRANCH   1  15
TORSDOF 6
