REMARK  Name = ZINC09528616
REMARK  5 active torsions:
REMARK  status: ('A' for Active; 'I' for Inactive)
REMARK    1  A    between atoms: C_1  and  N_2
REMARK    2  A    between atoms: C_9  and  S_11
REMARK    3  A    between atoms: S_11  and  N_14
REMARK    4  A    between atoms: C_17  and  C_20
REMARK    5  A    between atoms: N_22  and  C_23
REMARK                            x       y       z     vdW  Elec       q    Type
REMARK                         _______ _______ _______ _____ _____    ______ ____
ROOT
ATOM      1  N   UNL     1      -1.952  -1.139  -1.568  0.00  0.00    -0.177 NA
ATOM      2  C   UNL     1      -2.796  -0.161  -2.269  0.00  0.00    +0.110 C 
ATOM      3  C   UNL     1      -4.003  -0.883  -2.865  0.00  0.00    +0.030 C 
ATOM      4  C   UNL     1      -3.521  -2.040  -3.742  0.00  0.00    +0.077 C 
ATOM      5  C   UNL     1      -2.734  -3.037  -2.888  0.00  0.00    +0.030 C 
ATOM      6  C   UNL     1      -1.508  -2.337  -2.294  0.00  0.00    +0.110 C 
ENDROOT
BRANCH   4   7
ATOM      7  C   UNL     1      -4.710  -2.734  -4.356  0.00  0.00    +0.216 C 
ATOM      8  O   UNL     1      -4.908  -3.910  -4.132  0.00  0.00    -0.276 OA
ATOM      9  N   UNL     1      -5.553  -2.049  -5.153  0.00  0.00    -0.312 N 
ATOM     10  H   UNL     1      -5.394  -1.109  -5.332  0.00  0.00    +0.149 HD
BRANCH   9  11
ATOM     11  C   UNL     1      -6.708  -2.724  -5.750  0.00  0.00    +0.073 C 
ATOM     12  C   UNL     1      -6.304  -3.384  -7.084  0.00  0.00    +0.022 C 
ATOM     13  C   UNL     1      -7.541  -3.185  -7.995  0.00  0.00    +0.002 C 
ATOM     14  C   UNL     1      -8.030  -1.768  -7.605  0.00  0.00    +0.002 C 
ATOM     15  C   UNL     1      -7.805  -1.697  -6.081  0.00  0.00    +0.022 C 
ENDBRANCH   9  11
ENDBRANCH   4   7
BRANCH   1  16
ATOM     16  S   UNL     1      -1.516  -0.899   0.011  0.00  0.00    +0.061 S 
ATOM     17  O   UNL     1      -1.228  -2.181   0.552  0.00  0.00    -0.153 OA
ATOM     18  O   UNL     1      -2.493  -0.035   0.576  0.00  0.00    -0.153 OA
BRANCH  16  27
ATOM     19  C   UNL     1       4.847   2.028  -0.032  0.00  0.00    +0.149 C 
ATOM     20  N   UNL     1       3.412   2.323  -0.017  0.00  0.00    -0.350 N 
ATOM     21  C   UNL     1       2.867   3.579  -0.005  0.00  0.00    +0.086 A 
ATOM     22  C   UNL     1       1.528   3.496   0.006  0.00  0.00    +0.027 A 
ATOM     23  C   UNL     1       1.186   2.072   0.002  0.00  0.00    +0.002 A 
ATOM     24  C   UNL     1       2.410   1.378  -0.013  0.00  0.00    +0.049 A 
ATOM     25  C   UNL     1       2.405  -0.012  -0.021  0.00  0.00    +0.028 A 
ATOM     26  C   UNL     1       1.207  -0.693  -0.013  0.00  0.00    +0.030 A 
ATOM     27  C   UNL     1       0.002  -0.004   0.002  0.00  0.00    +0.106 A 
ATOM     28  C   UNL     1      -0.017   1.362   0.009  0.00  0.00    +0.038 A 
ENDBRANCH  16  27
ENDBRANCH   1  16
TORSDOF 4
