REMARK  Name = ZINC12004701
REMARK  6 active torsions:
REMARK  status: ('A' for Active; 'I' for Inactive)
REMARK    1  A    between atoms: C_1  and  O_2
REMARK    2  A    between atoms: O_2  and  C_3
REMARK    3  A    between atoms: C_6  and  N_21
REMARK    4  A    between atoms: C_8  and  S_9
REMARK    5  A    between atoms: S_9  and  N_12
REMARK    6  A    between atoms: N_12  and  C_13
REMARK                            x       y       z     vdW  Elec       q    Type
REMARK                         _______ _______ _______ _____ _____    ______ ____
ROOT
ATOM      1  C   UNL     1       2.587   1.456   0.826  0.00  0.00    +0.146 A 
ATOM      2  C   UNL     1       3.940   1.748   0.734  0.00  0.00    +0.049 A 
ATOM      3  C   UNL     1       4.425   2.439  -0.359  0.00  0.00    +0.028 A 
ATOM      4  C   UNL     1       3.558   2.842  -1.366  0.00  0.00    +0.053 A 
ATOM      5  C   UNL     1       2.205   2.544  -1.276  0.00  0.00    +0.057 A 
ATOM      6  C   UNL     1       1.721   1.857  -0.180  0.00  0.00    +0.148 A 
ENDROOT
BRANCH   4   7
ATOM      7  N   UNL     1       4.048   3.542  -2.474  0.00  0.00    -0.207 N 
ATOM      8  C   UNL     1       4.769   4.813  -2.309  0.00  0.00    +0.131 C 
ATOM      9  C   UNL     1       6.154   4.699  -2.943  0.00  0.00    +0.022 C 
ATOM     10  C   UNL     1       6.042   4.499  -4.452  0.00  0.00    +0.026 C 
ATOM     11  C   UNL     1       5.496   3.097  -4.750  0.00  0.00    +0.189 C 
ATOM     12  S   UNL     1       3.840   2.960  -4.019  0.00  0.00    +0.045 S 
ATOM     13  O   UNL     1       3.485   1.594  -3.854  0.00  0.00    -0.155 OA
ATOM     14  O   UNL     1       2.950   3.876  -4.642  0.00  0.00    -0.155 OA
ENDBRANCH   4   7
BRANCH   6  15
ATOM     15  S   UNL     1       0.003   1.485  -0.062  0.00  0.00    +0.062 S 
ATOM     16  O   UNL     1      -0.605   1.995  -1.241  0.00  0.00    -0.153 OA
ATOM     17  O   UNL     1      -0.410   1.878   1.239  0.00  0.00    -0.153 OA
BRANCH  15  18
ATOM     18  N   UNL     1      -0.147  -0.163  -0.128  0.00  0.00    -0.185 NA
ATOM     19  H   UNL     1      -0.483  -0.651   0.640  0.00  0.00    +0.148 HD
BRANCH  18  20
ATOM     20  C   UNL     1       0.228  -0.884  -1.347  0.00  0.00    +0.099 C 
ATOM     21  C   UNL     1       1.669  -1.404  -1.210  0.00  0.00    +0.044 C 
ATOM     22  C   UNL     1       1.929  -2.417  -2.361  0.00  0.00    +0.167 C 
ATOM     23  S   UNL     1       0.325  -3.323  -2.383  0.00  0.00    -0.029 S 
ATOM     24  O   UNL     1       0.427  -4.465  -1.544  0.00  0.00    -0.174 OA
ATOM     25  O   UNL     1      -0.099  -3.480  -3.730  0.00  0.00    -0.174 OA
ATOM     26  C   UNL     1      -0.743  -2.071  -1.561  0.00  0.00    +0.186 C 
ENDBRANCH  18  20
ENDBRANCH  15  18
ENDBRANCH   6  15
BRANCH   1  28
ATOM     27  C   UNL     1       3.059   0.393   2.900  0.00  0.00    +0.277 C 
ATOM     28  O   UNL     1       2.111   0.775   1.902  0.00  0.00    -0.493 OA
ENDBRANCH   1  28
TORSDOF 5
