REMARK  Name = ZINC00362796
REMARK  4 active torsions:
REMARK  status: ('A' for Active; 'I' for Inactive)
REMARK    1  A    between atoms: C_1  and  C_2
REMARK    2  A    between atoms: C_11  and  O_13
REMARK    3  A    between atoms: O_13  and  C_14
REMARK    4  A    between atoms: C_14  and  C_16
REMARK                            x       y       z     vdW  Elec       q    Type
REMARK                         _______ _______ _______ _____ _____    ______ ____
ROOT
ATOM      1  C   UNL     1      -2.586  -0.415   0.090  0.00  0.00    +0.045 C 
ATOM      2  C   UNL     1      -2.536   1.089   0.003  0.00  0.00    -0.033 A 
ATOM      3  C   UNL     1      -3.677   1.821  -0.079  0.00  0.00    +0.096 A 
ATOM      4  C   UNL     1      -3.603   3.228  -0.159  0.00  0.00    +0.337 A 
ATOM      5  O   UNL     1      -4.634   3.872  -0.232  0.00  0.00    -0.245 OA
ATOM      6  O   UNL     1      -2.427   3.873  -0.158  0.00  0.00    -0.422 OA
ATOM      7  C   UNL     1      -1.256   3.205  -0.079  0.00  0.00    +0.143 A 
ATOM      8  C   UNL     1      -1.255   1.800  -0.002  0.00  0.00    +0.021 A 
ATOM      9  C   UNL     1      -0.044   1.104   0.085  0.00  0.00    +0.015 A 
ATOM     10  C   UNL     1       1.135   1.792   0.084  0.00  0.00    +0.047 A 
ATOM     11  C   UNL     1       1.141   3.183   0.002  0.00  0.00    +0.135 A 
ATOM     12  C   UNL     1      -0.049   3.888  -0.079  0.00  0.00    +0.093 A 
ENDROOT
BRANCH  11  13
ATOM     13  O   UNL     1       2.322   3.852   0.002  0.00  0.00    -0.422 OA
BRANCH  13  14
ATOM     14  C   UNL     1       2.606   4.592   1.092  0.00  0.00    +0.347 C 
ATOM     15  O   UNL     1       1.871   4.556   2.059  0.00  0.00    -0.244 OA
BRANCH  14  16
ATOM     16  C   UNL     1       3.807   5.446   1.111  0.00  0.00    +0.094 A 
ATOM     17  C   UNL     1       4.108   6.232   2.254  0.00  0.00    +0.025 A 
ATOM     18  C   UNL     1       5.226   7.005   2.243  0.00  0.00    +0.093 A 
ATOM     19  C   UNL     1       6.047   7.014   1.098  0.00  0.00    +0.337 A 
ATOM     20  O   UNL     1       7.048   7.708   1.078  0.00  0.00    -0.245 OA
ATOM     21  O   UNL     1       5.734   6.264   0.028  0.00  0.00    -0.430 OA
ATOM     22  C   UNL     1       4.643   5.492   0.018  0.00  0.00    +0.214 A 
ENDBRANCH  14  16
ENDBRANCH  13  14
ENDBRANCH  11  13
TORSDOF 3
