REMARK  Name = ZINC39846338
REMARK  6 active torsions:
REMARK  status: ('A' for Active; 'I' for Inactive)
REMARK    1  A    between atoms: C_1  and  C_2
REMARK    2  A    between atoms: C_5  and  C_19
REMARK    3  A    between atoms: C_6  and  C_7
REMARK    4  A    between atoms: C_6  and  C_8
REMARK    5  A    between atoms: C_12  and  C_17
REMARK    6  A    between atoms: C_13  and  C_15
REMARK                            x       y       z     vdW  Elec       q    Type
REMARK                         _______ _______ _______ _____ _____    ______ ____
ROOT
ATOM      1  C   UNL     1      -0.019   1.526   0.010  0.00  0.00    +0.018 C 
ATOM      2  C   UNL     1       0.002  -0.004   0.002  0.00  0.00    +0.018 C 
ATOM      3  C   UNL     1      -1.388  -0.713   0.060  0.00  0.00    +0.015 C 
ATOM      4  C   UNL     1      -1.054  -2.159   0.499  0.00  0.00    +0.024 C 
ATOM      5  C   UNL     1       0.499  -2.159   0.656  0.00  0.00    +0.097 C 
ATOM      6  C   UNL     1       0.727  -0.704   1.210  0.00  0.00    -0.005 C 
ATOM      7  C   UNL     1      -0.007  -0.485   2.535  0.00  0.00    +0.013 C 
ATOM      8  C   UNL     1       2.205  -0.322   1.302  0.00  0.00    +0.013 C 
ATOM      9  C   UNL     1       1.023  -1.984  -0.772  0.00  0.00    +0.080 A 
ATOM     10  C   UNL     1       0.736  -0.664  -1.167  0.00  0.00    +0.072 A 
ATOM     11  N   UNL     1       1.076  -0.224  -2.356  0.00  0.00    -0.236 NA
ATOM     12  C   UNL     1       1.725  -1.028  -3.197  0.00  0.00    +0.176 A 
ATOM     13  C   UNL     1       2.040  -2.341  -2.805  0.00  0.00    +0.176 A 
ATOM     14  N   UNL     1       1.647  -2.801  -1.587  0.00  0.00    -0.236 NA
ENDROOT
BRANCH   5  15
ATOM     15  C   UNL     1       1.087  -3.287   1.464  0.00  0.00    +0.231 C 
ATOM     16  O   UNL     1       1.713  -3.047   2.474  0.00  0.00    -0.274 OA
ATOM     17  N   UNL     1       0.917  -4.562   1.064  0.00  0.00    -0.264 N 
ATOM     18  C   UNL     1       1.459  -5.603   1.809  0.00  0.00    +0.164 A 
ATOM     19  N   UNL     1       2.155  -5.534   2.923  0.00  0.00    -0.233 NA
ATOM     20  C   UNL     1       2.604  -6.625   3.515  0.00  0.00    +0.120 A 
ATOM     21  C   UNL     1       2.316  -7.811   2.924  0.00  0.00    +0.068 A 
ATOM     22  S   UNL     1       1.377  -7.257   1.509  0.00  0.00    -0.061 S 
ATOM     23  H   UNL     1       0.416  -4.754   0.256  0.00  0.00    +0.157 HD
ENDBRANCH   5  15
BRANCH  13  24
ATOM     24  C   UNL     1       2.737  -3.212  -3.703  0.00  0.00    +0.122 C 
ATOM     25  N   UNL     1       3.290  -3.902  -4.416  0.00  0.00    -0.189 NA
ENDBRANCH  13  24
BRANCH  12  26
ATOM     26  C   UNL     1       2.099  -0.556  -4.497  0.00  0.00    +0.122 C 
ATOM     27  N   UNL     1       2.396  -0.182  -5.527  0.00  0.00    -0.189 NA
ENDBRANCH  12  26
TORSDOF 3
