REMARK  Name = ZINC44211111
REMARK  5 active torsions:
REMARK  status: ('A' for Active; 'I' for Inactive)
REMARK    1  A    between atoms: C_1  and  C_2
REMARK    2  A    between atoms: C_5  and  O_9
REMARK    3  A    between atoms: C_7  and  C_8
REMARK    4  A    between atoms: O_9  and  C_10
REMARK    5  A    between atoms: C_16  and  O_18
REMARK                            x       y       z     vdW  Elec       q    Type
REMARK                         _______ _______ _______ _____ _____    ______ ____
ROOT
ATOM      1  C   UNL     1      -0.052  -4.772  -1.292  0.00  0.00    +0.207 C 
ATOM      2  C   UNL     1       0.585  -6.161  -1.217  0.00  0.00    +0.112 C 
ATOM      3  C   UNL     1       0.463  -6.851  -2.577  0.00  0.00    +0.174 C 
ATOM      4  C   UNL     1      -1.012  -6.984  -2.960  0.00  0.00    +0.068 C 
ATOM      5  C   UNL     1      -1.647  -5.594  -3.032  0.00  0.00    +0.040 C 
ATOM      6  C   UNL     1      -1.529  -4.909  -1.669  0.00  0.00    +0.155 C 
ATOM      7  O   UNL     1       1.059  -8.157  -2.506  0.00  0.00    -0.346 OA
ATOM      8  C   UNL     1       1.672  -8.354  -3.803  0.00  0.00    +0.191 C 
ATOM      9  C   UNL     1       2.175  -6.927  -4.134  0.00  0.00    +0.191 C 
ATOM     10  O   UNL     1       1.151  -6.082  -3.571  0.00  0.00    -0.346 OA
ENDROOT
BRANCH   6  11
ATOM     11  O   UNL     1      -2.125  -3.612  -1.735  0.00  0.00    -0.388 OA
ATOM     12  H   UNL     1      -3.063  -3.622  -1.970  0.00  0.00    +0.210 HD
ENDBRANCH   6  11
BRANCH   1  13
ATOM     13  O   UNL     1       0.057  -4.129  -0.021  0.00  0.00    -0.486 OA
BRANCH  13  18
ATOM     14  C   UNL     1       0.091   1.503   0.001  0.00  0.00    +0.044 C 
ATOM     15  C   UNL     1       0.082  -0.004  -0.005  0.00  0.00    -0.047 A 
ATOM     16  C   UNL     1       0.095  -0.690  -1.206  0.00  0.00    +0.007 A 
ATOM     17  C   UNL     1       0.087  -2.071  -1.214  0.00  0.00    +0.046 A 
ATOM     18  C   UNL     1       0.066  -2.770  -0.015  0.00  0.00    +0.121 A 
ATOM     19  C   UNL     1       0.053  -2.080   1.188  0.00  0.00    +0.049 A 
ATOM     20  C   UNL     1       0.067  -0.698   1.190  0.00  0.00    -0.044 A 
ATOM     21  C   UNL     1       0.059   0.052   2.497  0.00  0.00    +0.044 C 
ENDBRANCH  13  18
ENDBRANCH   1  13
TORSDOF 3
