REMARK  Name = ZINC01054847
REMARK  6 active torsions:
REMARK  status: ('A' for Active; 'I' for Inactive)
REMARK    1  A    between atoms: C_1  and  C_2
REMARK    2  A    between atoms: C_2  and  C_3
REMARK    3  A    between atoms: C_3  and  C_4
REMARK    4  A    between atoms: C_11  and  N_15
REMARK    5  A    between atoms: C_12  and  C_13
REMARK    6  A    between atoms: C_16  and  C_18
REMARK                            x       y       z     vdW  Elec       q    Type
REMARK                         _______ _______ _______ _____ _____    ______ ____
ROOT
ATOM      1  C   UNL     1      -0.956   3.111  -1.127  0.00  0.00    -0.006 C 
ATOM      2  C   UNL     1      -0.758   1.595  -1.227  0.00  0.00    +0.008 C 
ATOM      3  C   UNL     1      -0.013   1.086   0.008  0.00  0.00    +0.037 C 
ATOM      4  C   UNL     1      -0.732   1.580   1.257  0.00  0.00    -0.018 A 
ATOM      5  C   UNL     1      -1.602   2.615   1.194  0.00  0.00    -0.004 A 
ATOM      6  S   UNL     1      -2.180   2.821   2.854  0.00  0.00    -0.077 S 
ATOM      7  C   UNL     1      -1.274   1.552   3.624  0.00  0.00    +0.090 A 
ATOM      8  C   UNL     1      -0.552   0.999   2.576  0.00  0.00    +0.084 A 
ATOM      9  C   UNL     1      -1.980   3.405  -0.021  0.00  0.00    +0.046 C 
ENDROOT
BRANCH   7  10
ATOM     10  N   UNL     1      -1.277   1.178   4.960  0.00  0.00    -0.272 N 
ATOM     11  C   UNL     1      -2.052   1.839   5.843  0.00  0.00    +0.284 C 
ATOM     12  O   UNL     1      -2.749   2.763   5.468  0.00  0.00    -0.266 OA
ATOM     13  H   UNL     1      -0.721   0.441   5.258  0.00  0.00    +0.156 HD
BRANCH  11  14
ATOM     14  C   UNL     1      -2.054   1.444   7.254  0.00  0.00    +0.189 A 
ATOM     15  C   UNL     1      -2.784   2.029   8.250  0.00  0.00    +0.054 A 
ATOM     16  C   UNL     1      -2.483   1.335   9.432  0.00  0.00    +0.042 A 
ATOM     17  C   UNL     1      -1.588   0.374   9.112  0.00  0.00    +0.196 A 
ATOM     18  O   UNL     1      -1.332   0.443   7.799  0.00  0.00    -0.458 OA
ENDBRANCH  11  14
ENDBRANCH   7  10
BRANCH   8  19
ATOM     19  C   UNL     1       0.337  -0.103   2.787  0.00  0.00    +0.102 C 
ATOM     20  N   UNL     1       1.042  -0.978   2.955  0.00  0.00    -0.191 NA
ENDBRANCH   8  19
BRANCH   1  21
ATOM     21  C   UNL     1      -1.474   3.649  -2.462  0.00  0.00    +0.003 C 
BRANCH  21  23
ATOM     22  C   UNL     1      -2.071   5.714  -3.736  0.00  0.00    +0.004 C 
ATOM     23  C   UNL     1      -1.553   5.176  -2.401  0.00  0.00    -0.003 C 
ENDBRANCH  21  23
ENDBRANCH   1  21
TORSDOF 5
