REMARK  Name = ZINC39634549
REMARK  10 active torsions:
REMARK  status: ('A' for Active; 'I' for Inactive)
REMARK    1  A    between atoms: C_1  and  C_2
REMARK    2  A    between atoms: C_5  and  C_9
REMARK    3  A    between atoms: C_13  and  C_22
REMARK    4  A    between atoms: N_24  and  C_25
REMARK    5  A    between atoms: C_25  and  C_26
REMARK    6  A    between atoms: C_26  and  C_27
REMARK    7  A    between atoms: C_30  and  O_35
REMARK    8  A    between atoms: C_31  and  O_33
REMARK    9  A    between atoms: O_33  and  C_34
REMARK   10  A    between atoms: O_35  and  C_36
REMARK                            x       y       z     vdW  Elec       q    Type
REMARK                         _______ _______ _______ _____ _____    ______ ____
ROOT
ATOM      1  C   UNL     1       0.058  -4.251  -0.024  0.00  0.00    +0.247 C 
ATOM      2  O   UNL     1      -0.048  -4.852  -1.075  0.00  0.00    -0.270 OA
ATOM      3  N   UNL     1       0.174  -4.931   1.134  0.00  0.00    -0.296 N 
ATOM      4  C   UNL     1       0.185  -4.386   2.511  0.00  0.00    +0.121 C 
ATOM      5  C   UNL     1      -0.634  -5.401   3.340  0.00  0.00    +0.100 C 
ATOM      6  C   UNL     1      -0.539  -6.718   2.551  0.00  0.00    -0.004 C 
ATOM      7  C   UNL     1       0.315  -6.396   1.316  0.00  0.00    +0.115 C 
ATOM      8  C   UNL     1       0.138  -7.793   3.397  0.00  0.00    -0.010 C 
ATOM      9  C   UNL     1       0.168  -9.108   2.613  0.00  0.00    -0.082 C 
ATOM     10  N   UNL     1      -1.202  -9.512   2.277  0.00  0.00    +0.379 N 
ATOM     11  C   UNL     1      -1.814  -8.518   1.388  0.00  0.00    -0.082 C 
ATOM     12  C   UNL     1      -1.928  -7.177   2.120  0.00  0.00    -0.010 C 
ATOM     13  H   UNL     1      -1.183 -10.409   1.815  0.00  0.00    -0.086 HD
ATOM     14  H   UNL     1      -1.747  -9.585   3.124  0.00  0.00    -0.086 HD
ENDROOT
BRANCH   1  19
ATOM     15  C   UNL     1       0.064   1.506   0.014  0.00  0.00    +0.047 C 
ATOM     16  C   UNL     1       0.061  -0.001   0.004  0.00  0.00    -0.015 A 
ATOM     17  C   UNL     1       0.666  -0.698   1.035  0.00  0.00    +0.007 A 
ATOM     18  C   UNL     1       0.668  -2.078   1.032  0.00  0.00    +0.013 A 
ATOM     19  C   UNL     1       0.058  -2.772  -0.015  0.00  0.00    +0.040 A 
ATOM     20  C   UNL     1      -0.551  -2.065  -1.052  0.00  0.00    +0.051 A 
ATOM     21  C   UNL     1      -0.551  -0.683  -1.035  0.00  0.00    +0.127 A 
ATOM     22  F   UNL     1      -1.145   0.004  -2.036  0.00  0.00    -0.205 F 
ENDBRANCH   1  19
BRANCH   5  23
ATOM     23  C   UNL     1      -0.033  -5.564   4.712  0.00  0.00    +0.218 C 
ATOM     24  O   UNL     1       1.143  -5.332   4.891  0.00  0.00    -0.275 OA
ATOM     25  N   UNL     1      -0.804  -5.969   5.741  0.00  0.00    -0.315 N 
ATOM     26  H   UNL     1      -1.745  -6.155   5.598  0.00  0.00    +0.149 HD
BRANCH  25  27
ATOM     27  C   UNL     1      -0.220  -6.127   7.075  0.00  0.00    +0.109 C 
BRANCH  27  28
ATOM     28  C   UNL     1      -1.301  -6.592   8.053  0.00  0.00    +0.054 C 
BRANCH  28  29
ATOM     29  C   UNL     1      -0.701  -6.755   9.426  0.00  0.00    -0.042 A 
ATOM     30  C   UNL     1      -0.157  -7.970   9.801  0.00  0.00    +0.007 A 
ATOM     31  C   UNL     1       0.395  -8.124  11.059  0.00  0.00    +0.049 A 
ATOM     32  C   UNL     1       0.404  -7.060  11.947  0.00  0.00    +0.161 A 
ATOM     33  C   UNL     1      -0.142  -5.838  11.569  0.00  0.00    +0.162 A 
ATOM     34  C   UNL     1      -0.690  -5.688  10.305  0.00  0.00    +0.053 A 
BRANCH  33  35
ATOM     35  O   UNL     1      -0.136  -4.791  12.437  0.00  0.00    -0.491 OA
ATOM     36  C   UNL     1      -0.714  -3.567  11.981  0.00  0.00    +0.277 C 
ENDBRANCH  33  35
BRANCH  32  37
ATOM     37  O   UNL     1       0.947  -7.211  13.185  0.00  0.00    -0.491 OA
ATOM     38  C   UNL     1       1.489  -8.494  13.504  0.00  0.00    +0.277 C 
ENDBRANCH  32  37
ENDBRANCH  28  29
ENDBRANCH  27  28
ENDBRANCH  25  27
ENDBRANCH   5  23
TORSDOF 7
