REMARK  Name = ZINC61720212
REMARK  4 active torsions:
REMARK  status: ('A' for Active; 'I' for Inactive)
REMARK    1  A    between atoms: C_1  and  C_2
REMARK    2  A    between atoms: C_2  and  N_3
REMARK    3  A    between atoms: C_5  and  C_8
REMARK    4  A    between atoms: C_11  and  C_16
REMARK                            x       y       z     vdW  Elec       q    Type
REMARK                         _______ _______ _______ _____ _____    ______ ____
ROOT
ATOM      1  C   UNL     1       3.177  -2.359  -3.050  0.00  0.00    +0.135 A 
ATOM      2  N   UNL     1       3.551  -2.572  -4.286  0.00  0.00    -0.155 NA
ATOM      3  N   UNL     1       4.617  -3.412  -4.580  0.00  0.00    -0.183 N 
ATOM      4  C   UNL     1       5.309  -3.892  -5.673  0.00  0.00    +0.240 A 
ATOM      5  N   UNL     1       6.250  -4.683  -5.239  0.00  0.00    -0.124 NA
ATOM      6  N   UNL     1       6.215  -4.746  -3.953  0.00  0.00    -0.120 NA
ATOM      7  C   UNL     1       5.249  -3.998  -3.512  0.00  0.00    +0.218 A 
ATOM      8  S   UNL     1       4.341  -3.354  -2.129  0.00  0.00    -0.026 S 
ENDROOT
BRANCH   1  11
ATOM      9  N   UNL     1       0.688  -0.476  -1.203  0.00  0.00    -0.271 N 
ATOM     10  C   UNL     1       1.738  -1.320  -1.234  0.00  0.00    +0.119 A 
ATOM     11  C   UNL     1       2.078  -1.508  -2.545  0.00  0.00    +0.046 A 
ATOM     12  C   UNL     1       1.189  -0.742  -3.327  0.00  0.00    +0.145 A 
ATOM     13  N   UNL     1       0.360  -0.134  -2.521  0.00  0.00    -0.179 NA
BRANCH   9  15
ATOM     14  C   UNL     1      -0.019   1.526   0.010  0.00  0.00    +0.029 C 
ATOM     15  C   UNL     1       0.002  -0.004   0.002  0.00  0.00    +0.140 C 
ENDBRANCH   9  15
ENDBRANCH   1  11
BRANCH   4  16
ATOM     16  C   UNL     1       5.026  -3.562  -7.115  0.00  0.00    +0.384 C 
ATOM     17  F   UNL     1       5.688  -4.476  -7.942  0.00  0.00    -0.179 F 
ATOM     18  F   UNL     1       3.648  -3.634  -7.349  0.00  0.00    -0.179 F 
ATOM     19 CL   UNL     1       5.609  -1.894  -7.475  0.00  0.00    -0.039 Cl
ENDBRANCH   4  16
TORSDOF 3
