REMARK  Name = ZINC11550928
REMARK  5 active torsions:
REMARK  status: ('A' for Active; 'I' for Inactive)
REMARK    1  A    between atoms: C_1  and  C_2
REMARK    2  A    between atoms: C_5  and  C_7
REMARK    3  A    between atoms: C_9  and  C_16
REMARK    4  A    between atoms: C_10  and  C_15
REMARK    5  A    between atoms: C_21  and  C_24
REMARK                            x       y       z     vdW  Elec       q    Type
REMARK                         _______ _______ _______ _____ _____    ______ ____
ROOT
ATOM      1  C   UNL     1      -3.116  -2.779   0.088  0.00  0.00    +0.146 C 
ATOM      2  C   UNL     1      -3.402  -1.292   0.042  0.00  0.00    +0.056 C 
ATOM      3  C   UNL     1      -4.694  -0.900   0.022  0.00  0.00    +0.017 C 
ATOM      4  N   UNL     1      -5.707  -1.815   0.047  0.00  0.00    -0.300 N 
ATOM      5  C   UNL     1      -5.513  -3.139   0.093  0.00  0.00    +0.135 C 
ATOM      6  S   UNL     1      -6.875  -4.176   0.120  0.00  0.00    -0.019 S 
ATOM      7  N   UNL     1      -4.279  -3.681   0.118  0.00  0.00    -0.315 N 
ATOM      8  C   UNL     1      -5.022   0.570  -0.030  0.00  0.00    +0.061 C 
ATOM      9  H   UNL     1      -6.620  -1.486   0.030  0.00  0.00    +0.154 HD
ATOM     10  H   UNL     1      -4.161  -4.643   0.152  0.00  0.00    +0.149 HD
ENDROOT
BRANCH   2  11
ATOM     11  C   UNL     1      -2.349  -0.344   0.016  0.00  0.00    +0.249 C 
ATOM     12  O   UNL     1      -1.805  -0.069  -1.037  0.00  0.00    -0.270 OA
ATOM     13  N   UNL     1      -1.950   0.252   1.157  0.00  0.00    -0.264 N 
ATOM     14  C   UNL     1      -0.841   1.095   1.152  0.00  0.00    +0.168 A 
ATOM     15  C   UNL     1      -0.027   1.427   0.036  0.00  0.00    +0.091 A 
ATOM     16  C   UNL     1       0.902   2.266   0.547  0.00  0.00    +0.136 A 
ATOM     17  O   UNL     1       0.626   2.393   1.854  0.00  0.00    -0.358 OA
ATOM     18  N   UNL     1      -0.339   1.739   2.173  0.00  0.00    -0.063 NA
ATOM     19  C   UNL     1       2.027   2.930  -0.204  0.00  0.00    +0.089 C 
ATOM     20  H   UNL     1      -2.436   0.094   1.982  0.00  0.00    +0.157 HD
ENDBRANCH   2  11
BRANCH   1  25
ATOM     21  C   UNL     1      -0.849  -3.687   5.200  0.00  0.00    +0.051 C 
ATOM     22  C   UNL     1      -1.208  -3.487   3.750  0.00  0.00    -0.013 A 
ATOM     23  C   UNL     1      -0.411  -3.553   2.657  0.00  0.00    +0.011 A 
ATOM     24  C   UNL     1      -0.964  -3.331   1.409  0.00  0.00    +0.013 A 
ATOM     25  C   UNL     1      -2.288  -3.055   1.317  0.00  0.00    +0.015 A 
ATOM     26  S   UNL     1      -2.794  -3.096   3.028  0.00  0.00    -0.096 S 
ENDBRANCH   1  25
TORSDOF 2
