REMARK  Name = ZINC67359060
REMARK  5 active torsions:
REMARK  status: ('A' for Active; 'I' for Inactive)
REMARK    1  A    between atoms: C_1  and  C_2
REMARK    2  A    between atoms: C_2  and  C_3
REMARK    3  A    between atoms: C_3  and  C_5
REMARK    4  A    between atoms: C_3  and  N_6
REMARK    5  A    between atoms: C_13  and  C_15
REMARK                            x       y       z     vdW  Elec       q    Type
REMARK                         _______ _______ _______ _____ _____    ______ ____
ROOT
ATOM      1  N   UNL     1      -0.008  -0.140   2.444  0.00  0.00    -0.297 N 
ATOM      2  C   UNL     1       0.630  -0.011   3.624  0.00  0.00    +0.303 C 
ATOM      3  O   UNL     1       1.829  -0.202   3.690  0.00  0.00    -0.253 OA
ATOM      4  N   UNL     1      -0.060   0.330   4.730  0.00  0.00    -0.278 N 
ATOM      5  C   UNL     1      -1.511   0.584   4.793  0.00  0.00    +0.110 C 
ATOM      6  C   UNL     1      -1.896   0.316   6.269  0.00  0.00    +0.021 C 
ATOM      7  C   UNL     1      -0.656   0.868   7.020  0.00  0.00    +0.029 C 
ATOM      8  C   UNL     1       0.508   0.504   6.075  0.00  0.00    +0.111 C 
ATOM      9  H   UNL     1      -0.965   0.013   2.391  0.00  0.00    +0.151 HD
ENDROOT
BRANCH   8  10
ATOM     10  C   UNL     1       1.522   1.619   6.062  0.00  0.00    +0.018 A 
ATOM     11  C   UNL     1       1.455   2.603   5.093  0.00  0.00    +0.009 A 
ATOM     12  C   UNL     1       2.384   3.626   5.079  0.00  0.00    +0.004 A 
ATOM     13  C   UNL     1       3.384   3.669   6.032  0.00  0.00    +0.049 A 
ATOM     14  C   UNL     1       3.457   2.685   7.006  0.00  0.00    +0.162 A 
ATOM     15  C   UNL     1       2.518   1.660   7.026  0.00  0.00    +0.167 A 
ATOM     16  O   UNL     1       2.565   0.691   7.981  0.00  0.00    -0.485 OA
ATOM     17  C   UNL     1       3.794   0.557   8.702  0.00  0.00    +0.270 C 
ATOM     18  C   UNL     1       4.258   1.958   9.125  0.00  0.00    +0.270 C 
ATOM     19  O   UNL     1       4.450   2.738   7.936  0.00  0.00    -0.485 OA
ENDBRANCH   8  10
BRANCH   1  20
ATOM     20  C   UNL     1       0.742  -0.511   1.242  0.00  0.00    +0.071 C 
ATOM     21  C   UNL     1       0.872  -2.034   1.171  0.00  0.00    +0.028 C 
BRANCH  20  23
ATOM     22  C   UNL     1      -0.019   1.526   0.010  0.00  0.00    +0.005 C 
ATOM     23  C   UNL     1       0.002  -0.004   0.002  0.00  0.00    +0.019 C 
ENDBRANCH  20  23
ENDBRANCH   1  20
TORSDOF 3
