REMARK  Name = ZINC40087008
REMARK  6 active torsions:
REMARK  status: ('A' for Active; 'I' for Inactive)
REMARK    1  A    between atoms: C_1  and  C_2
REMARK    2  A    between atoms: C_5  and  C_8
REMARK    3  A    between atoms: C_8  and  N_9
REMARK    4  A    between atoms: C_16  and  C_18
REMARK    5  A    between atoms: C_21  and  C_23
REMARK    6  A    between atoms: C_23  and  N_24
REMARK                            x       y       z     vdW  Elec       q    Type
REMARK                         _______ _______ _______ _____ _____    ______ ____
ROOT
ATOM      1  N   UNL     1       1.560  -4.630  -0.039  0.00  0.00    +0.383 N 
ATOM      2  C   UNL     1       1.480  -6.068  -0.291  0.00  0.00    -0.077 C 
ATOM      3  C   UNL     1       2.736  -6.521  -1.000  0.00  0.00    +0.000 C 
ATOM      4  C   UNL     1       3.760  -7.016   0.037  0.00  0.00    +0.106 C 
ATOM      5  N   UNL     1       3.760  -6.155   1.236  0.00  0.00    -0.297 N 
ATOM      6  C   UNL     1       3.674  -4.711   1.154  0.00  0.00    +0.089 C 
ATOM      7  C   UNL     1       2.191  -4.272   1.173  0.00  0.00    -0.059 C 
ATOM      8  C   UNL     1       3.844  -6.732   2.451  0.00  0.00    +0.282 C 
ATOM      9  O   UNL     1       3.862  -7.945   2.548  0.00  0.00    -0.267 OA
ATOM     10  H   UNL     1       2.067  -4.204  -0.800  0.00  0.00    -0.081 HD
ENDROOT
BRANCH   8  11
ATOM     11  C   UNL     1       3.911  -5.899   3.656  0.00  0.00    +0.190 A 
ATOM     12  C   UNL     1       4.128  -6.345   4.929  0.00  0.00    +0.055 A 
ATOM     13  C   UNL     1       4.114  -5.214   5.760  0.00  0.00    +0.047 A 
ATOM     14  C   UNL     1       3.893  -4.141   4.968  0.00  0.00    +0.126 A 
ATOM     15  O   UNL     1       3.776  -4.558   3.701  0.00  0.00    -0.453 OA
BRANCH  14  16
ATOM     16  C   UNL     1       3.798  -2.711   5.435  0.00  0.00    +0.199 C 
BRANCH  16  17
ATOM     17  N   UNL     1       5.128  -2.099   5.407  0.00  0.00    -0.308 N 
ATOM     18  C   UNL     1       5.925  -2.174   6.504  0.00  0.00    +0.089 A 
ATOM     19  C   UNL     1       7.157  -1.615   6.502  0.00  0.00    +0.018 A 
ATOM     20  C   UNL     1       7.624  -0.952   5.358  0.00  0.00    +0.007 A 
ATOM     21  C   UNL     1       6.823  -0.878   4.257  0.00  0.00    +0.070 A 
ATOM     22  C   UNL     1       5.550  -1.473   4.291  0.00  0.00    +0.252 A 
ATOM     23  O   UNL     1       4.824  -1.419   3.311  0.00  0.00    -0.268 OA
ENDBRANCH  16  17
ENDBRANCH  14  16
ENDBRANCH   8  11
BRANCH   1  24
ATOM     24  C   UNL     1       0.197  -4.085  -0.030  0.00  0.00    -0.043 C 
BRANCH  24  29
ATOM     25  C   UNL     1       0.430   1.690  -0.021  0.00  0.00    +0.044 C 
ATOM     26  C   UNL     1       0.369   0.184  -0.023  0.00  0.00    -0.050 A 
ATOM     27  C   UNL     1       0.336  -0.505  -1.222  0.00  0.00    +0.003 A 
ATOM     28  C   UNL     1       0.280  -1.886  -1.224  0.00  0.00    +0.002 A 
ATOM     29  C   UNL     1       0.258  -2.579  -0.028  0.00  0.00    -0.064 A 
ATOM     30  C   UNL     1       0.293  -1.890   1.170  0.00  0.00    +0.002 A 
ATOM     31  C   UNL     1       0.353  -0.509   1.173  0.00  0.00    +0.003 A 
ENDBRANCH  24  29
ENDBRANCH   1  24
TORSDOF 5
