REMARK  Name = ZINC09018511
REMARK  8 active torsions:
REMARK  status: ('A' for Active; 'I' for Inactive)
REMARK    1  A    between atoms: C_1  and  C_2
REMARK    2  A    between atoms: C_2  and  C_3
REMARK    3  A    between atoms: C_4  and  C_28
REMARK    4  A    between atoms: C_13  and  S_14
REMARK    5  A    between atoms: S_14  and  C_15
REMARK    6  A    between atoms: C_15  and  C_16
REMARK    7  A    between atoms: C_20  and  C_27
REMARK    8  A    between atoms: C_23  and  C_26
REMARK                            x       y       z     vdW  Elec       q    Type
REMARK                         _______ _______ _______ _____ _____    ______ ____
ROOT
ATOM      1  C   UNL     1      -1.261   1.700   6.162  0.00  0.00    +0.036 A 
ATOM      2  C   UNL     1      -1.136   1.863   4.833  0.00  0.00    +0.034 A 
ATOM      3  N   UNL     1      -0.035   1.364   4.175  0.00  0.00    -0.260 N 
ATOM      4  C   UNL     1       0.940   0.696   4.871  0.00  0.00    +0.237 A 
ATOM      5  N   UNL     1       0.820   0.522   6.240  0.00  0.00    -0.291 N 
ATOM      6  H   UNL     1       1.510   0.050   6.732  0.00  0.00    +0.172 HD
ATOM      7  C   UNL     1      -0.257   1.011   6.887  0.00  0.00    +0.256 A 
ATOM      8  O   UNL     1      -0.367   0.861   8.091  0.00  0.00    -0.267 OA
ATOM      9  N   UNL     1       1.865   0.329   4.018  0.00  0.00    -0.109 NA
ATOM     10  N   UNL     1       1.478   0.763   2.744  0.00  0.00    -0.120 NA
ATOM     11  C   UNL     1       0.333   1.390   2.857  0.00  0.00    +0.198 A 
ATOM     12  C   UNL     1      -2.204   2.596   4.062  0.00  0.00    +0.064 C 
ENDROOT
BRANCH   1  14
ATOM     13  C   UNL     1      -3.524   1.151   7.013  0.00  0.00    +0.009 C 
ATOM     14  C   UNL     1      -2.467   2.249   6.879  0.00  0.00    +0.039 C 
ENDBRANCH   1  14
BRANCH  11  15
ATOM     15  S   UNL     1      -0.577   2.130   1.541  0.00  0.00    -0.076 S 
BRANCH  15  16
ATOM     16  C   UNL     1       0.443   1.818   0.073  0.00  0.00    +0.173 C 
BRANCH  16  17
ATOM     17  C   UNL     1      -0.230   2.408  -1.139  0.00  0.00    +0.226 C 
ATOM     18  O   UNL     1      -1.293   2.981  -1.025  0.00  0.00    -0.275 OA
ATOM     19  N   UNL     1       0.349   2.297  -2.352  0.00  0.00    -0.296 N 
ATOM     20  C   UNL     1       1.640   1.611  -2.514  0.00  0.00    +0.139 C 
ATOM     21  C   UNL     1       1.497   0.583  -3.648  0.00  0.00    +0.133 C 
ATOM     22  O   UNL     1       0.973   1.234  -4.808  0.00  0.00    -0.371 OA
ATOM     23  C   UNL     1      -0.336   1.780  -4.632  0.00  0.00    +0.133 C 
ATOM     24  C   UNL     1      -0.289   2.865  -3.550  0.00  0.00    +0.139 C 
ATOM     25  C   UNL     1      -1.300   0.672  -4.204  0.00  0.00    +0.039 C 
ATOM     26  C   UNL     1       2.868  -0.014  -3.972  0.00  0.00    +0.039 C 
ENDBRANCH  16  17
ENDBRANCH  15  16
ENDBRANCH  11  15
TORSDOF 4
