REMARK  Name = ZINC22791395
REMARK  11 active torsions:
REMARK  status: ('A' for Active; 'I' for Inactive)
REMARK    1  A    between atoms: C_1  and  C_2
REMARK    2  A    between atoms: C_2  and  O_3
REMARK    3  A    between atoms: O_3  and  C_4
REMARK    4  A    between atoms: C_6  and  C_13
REMARK    5  A    between atoms: C_9  and  O_10
REMARK    6  A    between atoms: O_10  and  C_11
REMARK    7  A    between atoms: C_13  and  N_14
REMARK    8  A    between atoms: N_17  and  C_20
REMARK    9  A    between atoms: C_20  and  C_21
REMARK   10  A    between atoms: C_25  and  C_32
REMARK   11  A    between atoms: C_28  and  C_31
REMARK                            x       y       z     vdW  Elec       q    Type
REMARK                         _______ _______ _______ _____ _____    ______ ____
ROOT
ATOM      1  N   UNL     1      -1.619  -5.283   0.128  0.00  0.00    +0.384 N 
ATOM      2  C   UNL     1      -2.432  -4.061   0.204  0.00  0.00    -0.063 C 
ATOM      3  C   UNL     1      -3.877  -4.385  -0.180  0.00  0.00    +0.066 C 
ATOM      4  N   UNL     1      -4.408  -5.404   0.737  0.00  0.00    -0.298 NA
ATOM      5  C   UNL     1      -3.590  -6.625   0.690  0.00  0.00    +0.066 C 
ATOM      6  C   UNL     1      -2.147  -6.282   1.067  0.00  0.00    -0.063 C 
ATOM      7  H   UNL     1      -1.654  -5.652  -0.810  0.00  0.00    -0.081 HD
ENDROOT
BRANCH   1   8
ATOM      8  C   UNL     1      -0.228  -4.968   0.479  0.00  0.00    -0.043 C 
BRANCH   8  11
ATOM      9  C   UNL     1       0.777  -1.811  -1.336  0.00  0.00    +0.163 A 
ATOM     10  C   UNL     1       0.243  -2.669  -0.388  0.00  0.00    +0.051 A 
ATOM     11  C   UNL     1       0.352  -4.037  -0.554  0.00  0.00    -0.059 A 
ATOM     12  C   UNL     1       0.992  -4.553  -1.665  0.00  0.00    +0.021 A 
ATOM     13  C   UNL     1       1.527  -3.702  -2.616  0.00  0.00    +0.063 A 
ATOM     14  C   UNL     1       1.416  -2.329  -2.458  0.00  0.00    +0.175 A 
ATOM     15 BR   UNL     1       2.403  -4.412  -4.134  0.00  0.00    -0.046 Br
BRANCH  14  16
ATOM     16  O   UNL     1       1.936  -1.491  -3.394  0.00  0.00    -0.490 OA
ATOM     17  C   UNL     1       3.293  -1.080  -3.215  0.00  0.00    +0.277 C 
ENDBRANCH  14  16
BRANCH   9  18
ATOM     18  O   UNL     1       0.671  -0.465  -1.174  0.00  0.00    -0.489 OA
BRANCH  18  20
ATOM     19  C   UNL     1      -0.019   1.526   0.010  0.00  0.00    +0.048 C 
ATOM     20  C   UNL     1       0.002  -0.004   0.002  0.00  0.00    +0.226 C 
ENDBRANCH  18  20
ENDBRANCH   9  18
ENDBRANCH   8  11
ENDBRANCH   1   8
BRANCH   4  21
ATOM     21  C   UNL     1      -5.815  -5.702   0.436  0.00  0.00    +0.180 C 
BRANCH  21  22
ATOM     22  C   UNL     1      -6.393  -6.556   1.534  0.00  0.00    +0.230 C 
ATOM     23  O   UNL     1      -5.702  -6.886   2.474  0.00  0.00    -0.274 OA
ATOM     24  N   UNL     1      -7.679  -6.955   1.470  0.00  0.00    -0.300 N 
ATOM     25  C   UNL     1      -8.527  -6.569   0.334  0.00  0.00    +0.111 C 
ATOM     26  C   UNL     1      -9.145  -7.834  -0.272  0.00  0.00    +0.004 C 
ATOM     27  C   UNL     1      -9.877  -8.614   0.823  0.00  0.00    +0.009 C 
ATOM     28  C   UNL     1      -8.880  -9.034   1.905  0.00  0.00    +0.004 C 
ATOM     29  C   UNL     1      -8.258  -7.789   2.533  0.00  0.00    +0.111 C 
ATOM     30  C   UNL     1      -7.778  -9.892   1.280  0.00  0.00    +0.009 C 
ATOM     31  C   UNL     1     -10.136  -7.442  -1.370  0.00  0.00    +0.009 C 
ENDBRANCH  21  22
ENDBRANCH   4  21
TORSDOF 7
