REMARK  Name = ZINC01569625
REMARK  3 active torsions:
REMARK  status: ('A' for Active; 'I' for Inactive)
REMARK    1  A    between atoms: C_1  and  C_2
REMARK    2  A    between atoms: N_4  and  C_5
REMARK    3  A    between atoms: C_15  and  N_19
REMARK                            x       y       z     vdW  Elec       q    Type
REMARK                         _______ _______ _______ _____ _____    ______ ____
ROOT
ATOM      1  C   UNL     1      -6.604   6.409   0.078  0.00  0.00    +0.052 A 
ATOM      2  C   UNL     1      -5.231   6.629   0.080  0.00  0.00    +0.029 A 
ATOM      3  C   UNL     1      -4.362   5.560   0.080  0.00  0.00    -0.033 A 
ATOM      4  C   UNL     1      -4.851   4.255   0.078  0.00  0.00    -0.013 A 
ATOM      5  C   UNL     1      -6.230   4.038   0.076  0.00  0.00    +0.030 A 
ATOM      6  C   UNL     1      -7.098   5.109   0.076  0.00  0.00    +0.063 A 
ATOM      7 CL   UNL     1      -8.812   4.835   0.075  0.00  0.00    -0.082 Cl
ATOM      8  C   UNL     1      -3.713   3.303   0.079  0.00  0.00    -0.014 A 
ATOM      9  C   UNL     1      -3.683   1.907   0.077  0.00  0.00    +0.011 A 
ATOM     10  C   UNL     1      -2.473   1.244   0.078  0.00  0.00    +0.033 A 
ATOM     11  C   UNL     1      -1.288   1.957   0.080  0.00  0.00    +0.126 A 
ATOM     12  C   UNL     1      -1.310   3.340   0.087  0.00  0.00    +0.037 A 
ATOM     13  C   UNL     1      -2.514   4.011   0.081  0.00  0.00    -0.033 A 
ATOM     14  C   UNL     1      -2.855   5.481   0.082  0.00  0.00    +0.071 C 
ENDROOT
BRANCH   1  18
ATOM     15  C   UNL     1      -7.994   9.886  -0.296  0.00  0.00    +0.109 C 
ATOM     16  C   UNL     1      -7.090   8.686  -0.409  0.00  0.00    +0.214 C 
ATOM     17  O   UNL     1      -6.004   8.793  -0.940  0.00  0.00    -0.276 OA
ATOM     18  N   UNL     1      -7.486   7.494   0.079  0.00  0.00    -0.285 N 
ATOM     19  H   UNL     1      -8.384   7.389   0.430  0.00  0.00    +0.155 HD
ENDBRANCH   1  18
BRANCH  11  20
ATOM     20  N   UNL     1       0.007   1.239   0.081  0.00  0.00    +0.056 N 
ATOM     21  O   UNL     1       0.027   0.021   0.080  0.00  0.00    -0.126 OA
ATOM     22  O   UNL     1       1.051   1.865   0.078  0.00  0.00    -0.126 OA
ENDBRANCH  11  20
TORSDOF 2
