REMARK  Name = ZINC19966881
REMARK  2 active torsions:
REMARK  status: ('A' for Active; 'I' for Inactive)
REMARK    1  A    between atoms: N_11  and  C_12
REMARK    2  A    between atoms: C_12  and  C_13
REMARK                            x       y       z     vdW  Elec       q    Type
REMARK                         _______ _______ _______ _____ _____    ______ ____
ROOT
ATOM      1  C   UNL     1      -0.013   1.076   0.008  0.00  0.00    +0.001 A 
ATOM      2  C   UNL     1      -1.222   1.751   0.017  0.00  0.00    +0.002 A 
ATOM      3  C   UNL     1      -1.258   3.133   0.031  0.00  0.00    +0.024 A 
ATOM      4  C   UNL     1      -0.077   3.863   0.024  0.00  0.00    +0.048 A 
ATOM      5  C   UNL     1       1.148   3.176   0.008  0.00  0.00    +0.048 A 
ATOM      6  C   UNL     1       1.173   1.781   0.000  0.00  0.00    +0.014 A 
ATOM      7  C   UNL     1       2.207   4.202   0.003  0.00  0.00    +0.250 C 
ATOM      8  O   UNL     1       3.408   4.027  -0.010  0.00  0.00    -0.282 OA
ATOM      9  C   UNL     1       1.474   5.510   0.016  0.00  0.00    +0.292 C 
ATOM     10  O   UNL     1       1.976   6.614   0.017  0.00  0.00    -0.266 OA
ATOM     11  N   UNL     1       0.158   5.236   0.028  0.00  0.00    -0.259 N 
ENDROOT
BRANCH  11  12
ATOM     12  C   UNL     1      -0.897   6.253   0.044  0.00  0.00    +0.156 C 
BRANCH  12  13
ATOM     13  C   UNL     1      -1.244   6.595   1.470  0.00  0.00    +0.009 A 
ATOM     14  C   UNL     1      -0.706   7.542   2.276  0.00  0.00    +0.014 A 
ATOM     15  C   UNL     1      -1.189   7.681   3.563  0.00  0.00    +0.023 A 
ATOM     16  C   UNL     1      -2.180   6.857   3.986  0.00  0.00    +0.055 A 
ATOM     17  S   UNL     1      -2.465   5.850   2.539  0.00  0.00    -0.085 S 
ATOM     18 BR   UNL     1      -3.039   6.793   5.669  0.00  0.00    -0.043 Br
ENDBRANCH  12  13
ENDBRANCH  11  12
TORSDOF 2
