REMARK  Name = ZINC35315136
REMARK  7 active torsions:
REMARK  status: ('A' for Active; 'I' for Inactive)
REMARK    1  A    between atoms: C_1  and  C_2
REMARK    2  A    between atoms: C_2  and  C_3
REMARK    3  A    between atoms: C_4  and  C_25
REMARK    4  A    between atoms: C_11  and  S_12
REMARK    5  A    between atoms: S_12  and  C_13
REMARK    6  A    between atoms: C_13  and  C_14
REMARK    7  A    between atoms: N_16  and  C_17
REMARK                            x       y       z     vdW  Elec       q    Type
REMARK                         _______ _______ _______ _____ _____    ______ ____
ROOT
ATOM      1  C   UNL     1       0.701  -0.514  -1.232  0.00  0.00    +0.018 A 
ATOM      2  C   UNL     1       2.024  -0.822  -1.201  0.00  0.00    +0.048 A 
ATOM      3  N   UNL     1       2.653  -1.244  -2.304  0.00  0.00    -0.221 NA
ATOM      4  C   UNL     1       2.029  -1.380  -3.452  0.00  0.00    +0.201 A 
ATOM      5  N   UNL     1       0.699  -1.090  -3.563  0.00  0.00    -0.242 N 
ATOM      6  C   UNL     1       0.002  -0.655  -2.451  0.00  0.00    +0.169 A 
ATOM      7  N   UNL     1      -1.242  -0.459  -2.831  0.00  0.00    -0.128 NA
ATOM      8  N   UNL     1      -1.365  -0.742  -4.081  0.00  0.00    -0.122 NA
ATOM      9  C   UNL     1      -0.211  -1.124  -4.579  0.00  0.00    +0.199 A 
ATOM     10  N   UNL     1       2.723  -1.817  -4.554  0.00  0.00    -0.328 N 
ATOM     11  C   UNL     1       2.791  -0.686   0.088  0.00  0.00    +0.066 C 
ATOM     12  H   UNL     1       3.668  -2.024  -4.482  0.00  0.00    +0.145 HD
ATOM     13  H   UNL     1       2.268  -1.919  -5.405  0.00  0.00    +0.145 HD
ENDROOT
BRANCH   1  15
ATOM     14  C   UNL     1      -0.036   1.491   0.027  0.00  0.00    +0.009 C 
ATOM     15  C   UNL     1      -0.007  -0.038   0.011  0.00  0.00    +0.037 C 
ENDBRANCH   1  15
BRANCH   9  16
ATOM     16  S   UNL     1       0.098  -1.609  -6.244  0.00  0.00    -0.076 S 
BRANCH  16  17
ATOM     17  C   UNL     1      -1.511  -1.427  -7.061  0.00  0.00    +0.173 C 
BRANCH  17  18
ATOM     18  C   UNL     1      -1.385  -1.815  -8.512  0.00  0.00    +0.227 C 
ATOM     19  O   UNL     1      -0.315  -2.178  -8.951  0.00  0.00    -0.275 OA
ATOM     20  N   UNL     1      -2.462  -1.759  -9.320  0.00  0.00    -0.285 N 
ATOM     21  H   UNL     1      -3.332  -1.533  -8.955  0.00  0.00    +0.155 HD
BRANCH  20  22
ATOM     22  C   UNL     1      -2.325  -2.025 -10.688  0.00  0.00    +0.034 A 
ATOM     23  C   UNL     1      -3.092  -1.329 -11.613  0.00  0.00    +0.026 A 
ATOM     24  C   UNL     1      -2.955  -1.593 -12.961  0.00  0.00    +0.040 A 
ATOM     25  C   UNL     1      -2.054  -2.553 -13.392  0.00  0.00    +0.124 A 
ATOM     26  C   UNL     1      -1.289  -3.249 -12.472  0.00  0.00    +0.040 A 
ATOM     27  C   UNL     1      -1.418  -2.983 -11.122  0.00  0.00    +0.026 A 
ATOM     28  F   UNL     1      -1.923  -2.811 -14.711  0.00  0.00    -0.205 F 
ENDBRANCH  20  22
ENDBRANCH  17  18
ENDBRANCH  16  17
ENDBRANCH   9  16
TORSDOF 5
