REMARK  Name = ZINC00324583
REMARK  5 active torsions:
REMARK  status: ('A' for Active; 'I' for Inactive)
REMARK    1  A    between atoms: C_1  and  C_2
REMARK    2  A    between atoms: C_2  and  C_3
REMARK    3  A    between atoms: C_3  and  C_4
REMARK    4  A    between atoms: C_10  and  C_13
REMARK    5  A    between atoms: C_15  and  C_18
REMARK                            x       y       z     vdW  Elec       q    Type
REMARK                         _______ _______ _______ _____ _____    ______ ____
ROOT
ATOM      1  C   UNL     1      -2.453  -2.641  -1.093  0.00  0.00    +0.232 A 
ATOM      2  N   UNL     1      -3.390  -2.747  -2.002  0.00  0.00    -0.191 NA
ATOM      3  C   UNL     1      -4.269  -3.651  -1.513  0.00  0.00    +0.202 A 
ATOM      4  N   UNL     1      -3.822  -4.031  -0.344  0.00  0.00    -0.056 NA
ATOM      5  O   UNL     1      -2.783  -3.460  -0.090  0.00  0.00    -0.337 OA
ENDROOT
BRANCH   1  12
ATOM      6  C   UNL     1      -0.016   1.344   0.009  0.00  0.00    +0.216 C 
ATOM      7  O   UNL     1      -1.075   1.936   0.018  0.00  0.00    -0.276 OA
ATOM      8  N   UNL     1       0.002  -0.004   0.002  0.00  0.00    -0.301 N 
ATOM      9  C   UNL     1       1.276  -0.735  -0.014  0.00  0.00    +0.108 C 
ATOM     10  C   UNL     1       1.264  -1.721  -1.187  0.00  0.00    +0.020 C 
ATOM     11  C   UNL     1       0.027  -2.616  -1.083  0.00  0.00    +0.016 C 
ATOM     12  C   UNL     1      -1.236  -1.755  -1.162  0.00  0.00    +0.095 C 
ATOM     13  C   UNL     1      -1.252  -0.770   0.016  0.00  0.00    +0.120 C 
BRANCH   6  14
ATOM     14  C   UNL     1       1.278   2.115   0.001  0.00  0.00    +0.096 C 
BRANCH  14  16
ATOM     15  C   UNL     1       2.293   4.398   0.004  0.00  0.00    +0.004 C 
ATOM     16  C   UNL     1       0.979   3.615   0.012  0.00  0.00    +0.006 C 
ENDBRANCH  14  16
ENDBRANCH   6  14
ENDBRANCH   1  12
BRANCH   3  17
ATOM     17  C   UNL     1      -5.511  -4.120  -2.176  0.00  0.00    +0.023 A 
ATOM     18  C   UNL     1      -5.867  -3.620  -3.428  0.00  0.00    +0.013 A 
ATOM     19  C   UNL     1      -7.021  -4.062  -4.042  0.00  0.00    +0.021 A 
ATOM     20  C   UNL     1      -7.829  -4.994  -3.413  0.00  0.00    +0.041 A 
ATOM     21  C   UNL     1      -7.483  -5.489  -2.168  0.00  0.00    +0.021 A 
ATOM     22  C   UNL     1      -6.329  -5.057  -1.548  0.00  0.00    +0.013 A 
ATOM     23 CL   UNL     1      -9.283  -5.541  -4.188  0.00  0.00    -0.084 Cl
ENDBRANCH   3  17
TORSDOF 4
