REMARK  Name = ZINC09883535
REMARK  7 active torsions:
REMARK  status: ('A' for Active; 'I' for Inactive)
REMARK    1  A    between atoms: C_1  and  C_2
REMARK    2  A    between atoms: C_2  and  C_4
REMARK    3  A    between atoms: C_2  and  N_15
REMARK    4  A    between atoms: N_6  and  C_7
REMARK    5  A    between atoms: C_12  and  C_13
REMARK    6  A    between atoms: C_18  and  C_22
REMARK    7  A    between atoms: C_18  and  C_23
REMARK                            x       y       z     vdW  Elec       q    Type
REMARK                         _______ _______ _______ _____ _____    ______ ____
ROOT
ATOM      1  N   UNL     1      -6.021   2.244   0.355  0.00  0.00    -0.212 N 
ATOM      2  C   UNL     1      -7.044   2.306  -0.520  0.00  0.00    +0.251 C 
ATOM      3  O   UNL     1      -7.205   1.622  -1.508  0.00  0.00    -0.272 OA
ATOM      4  C   UNL     1      -7.951   3.410  -0.013  0.00  0.00    +0.136 C 
ATOM      5  N   UNL     1      -7.269   3.886   1.203  0.00  0.00    -0.281 N 
ATOM      6  C   UNL     1      -6.157   3.142   1.337  0.00  0.00    +0.310 C 
ATOM      7  O   UNL     1      -5.361   3.274   2.247  0.00  0.00    -0.252 OA
ATOM      8  C   UNL     1      -9.335   2.856   0.328  0.00  0.00    +0.047 C 
ATOM      9  H   UNL     1      -7.567   4.596   1.794  0.00  0.00    +0.152 HD
ENDROOT
BRANCH   4  10
ATOM     10  C   UNL     1      -8.060   4.516  -1.031  0.00  0.00    -0.002 A 
ATOM     11  C   UNL     1      -7.660   5.798  -0.704  0.00  0.00    +0.007 A 
ATOM     12  C   UNL     1      -7.759   6.813  -1.638  0.00  0.00    +0.000 A 
ATOM     13  C   UNL     1      -8.259   6.546  -2.899  0.00  0.00    +0.001 A 
ATOM     14  C   UNL     1      -8.660   5.264  -3.226  0.00  0.00    +0.015 A 
ATOM     15  C   UNL     1      -8.556   4.247  -2.293  0.00  0.00    +0.024 A 
ATOM     16 BR   UNL     1      -9.097   2.492  -2.743  0.00  0.00    -0.050 Br
ENDBRANCH   4  10
BRANCH   1  18
ATOM     17  C   UNL     1      -4.859   0.418   1.494  0.00  0.00    +0.038 C 
ATOM     18  C   UNL     1      -4.902   1.304   0.247  0.00  0.00    +0.168 C 
BRANCH  18  19
ATOM     19  C   UNL     1      -3.611   2.072   0.132  0.00  0.00    +0.238 C 
ATOM     20  O   UNL     1      -3.624   3.285   0.139  0.00  0.00    -0.273 OA
ATOM     21  N   UNL     1      -2.442   1.411   0.021  0.00  0.00    -0.283 N 
ATOM     22  H   UNL     1      -2.436   0.444  -0.050  0.00  0.00    +0.155 HD
BRANCH  21  23
ATOM     23  C   UNL     1      -1.240   2.118   0.009  0.00  0.00    +0.051 A 
ATOM     24  C   UNL     1      -1.172   3.368  -0.589  0.00  0.00    +0.024 A 
ATOM     25  C   UNL     1       0.020   4.064  -0.605  0.00  0.00    +0.002 A 
ATOM     26  C   UNL     1       1.155   3.524  -0.022  0.00  0.00    +0.001 A 
ATOM     27  C   UNL     1       1.105   2.286   0.582  0.00  0.00    +0.021 A 
ATOM     28  C   UNL     1      -0.094   1.571   0.606  0.00  0.00    +0.073 A 
BRANCH  28  29
ATOM     29  C   UNL     1      -0.153   0.283   1.231  0.00  0.00    +0.101 C 
ATOM     30  N   UNL     1      -0.199  -0.738   1.727  0.00  0.00    -0.191 NA
ENDBRANCH  28  29
ENDBRANCH  21  23
ENDBRANCH  18  19
ENDBRANCH   1  18
TORSDOF 5
