REMARK  Name = ZINC67485953
REMARK  9 active torsions:
REMARK  status: ('A' for Active; 'I' for Inactive)
REMARK    1  A    between atoms: C_1  and  O_2
REMARK    2  A    between atoms: O_2  and  C_3
REMARK    3  A    between atoms: C_8  and  C_9
REMARK    4  A    between atoms: N_14  and  C_15
REMARK    5  A    between atoms: C_15  and  C_16
REMARK    6  A    between atoms: C_16  and  C_18
REMARK    7  A    between atoms: C_16  and  O_31
REMARK    8  A    between atoms: C_18  and  N_19
REMARK    9  A    between atoms: C_20  and  C_25
REMARK                            x       y       z     vdW  Elec       q    Type
REMARK                         _______ _______ _______ _____ _____    ______ ____
ROOT
ATOM      1  C   UNL     1      -0.312  -3.780  -3.303  0.00  0.00    +0.118 C 
ENDROOT
BRANCH   1   2
ATOM      2  O   UNL     1      -1.563  -4.014  -2.654  0.00  0.00    -0.392 OA
ATOM      3  H   UNL     1      -1.924  -4.899  -2.802  0.00  0.00    +0.210 HD
ENDBRANCH   1   2
BRANCH   1   4
ATOM      4  C   UNL     1       0.687  -4.863  -2.891  0.00  0.00    -0.045 C 
BRANCH   4   9
ATOM      5  C   UNL     1       1.655  -3.469  -1.180  0.00  0.00    -0.034 C 
ATOM      6  C   UNL     1       2.665  -3.793  -0.051  0.00  0.00    -0.012 C 
ATOM      7  C   UNL     1       3.129  -5.220  -0.446  0.00  0.00    -0.020 C 
ATOM      8  C   UNL     1       1.848  -5.854  -1.027  0.00  0.00    -0.078 C 
ATOM      9  N   UNL     1       0.967  -4.749  -1.453  0.00  0.00    +0.386 N 
ATOM     10  H   UNL     1       0.101  -4.786  -0.936  0.00  0.00    -0.081 HD
BRANCH   5  16
ATOM     11  C   UNL     1       0.901  -1.087  -0.971  0.00  0.00    +0.122 A 
ATOM     12  C   UNL     1      -0.014  -0.133  -0.548  0.00  0.00    +0.046 A 
ATOM     13  C   UNL     1      -1.154  -0.523   0.128  0.00  0.00    +0.004 A 
ATOM     14  C   UNL     1      -1.383  -1.863   0.384  0.00  0.00    +0.000 A 
ATOM     15  C   UNL     1      -0.473  -2.815  -0.036  0.00  0.00    +0.005 A 
ATOM     16  C   UNL     1       0.666  -2.430  -0.718  0.00  0.00    -0.019 A 
BRANCH  11  18
ATOM     17  C   UNL     1       2.199   0.694  -1.861  0.00  0.00    +0.277 C 
ATOM     18  O   UNL     1       2.023  -0.706  -1.636  0.00  0.00    -0.495 OA
ENDBRANCH  11  18
ENDBRANCH   5  16
ENDBRANCH   4   9
ENDBRANCH   1   4
BRANCH   1  19
ATOM     19  C   UNL     1      -0.510  -3.819  -4.820  0.00  0.00    +0.159 C 
BRANCH  19  20
ATOM     20  N   UNL     1      -1.430  -2.752  -5.220  0.00  0.00    -0.255 N 
ATOM     21  C   UNL     1      -2.805  -2.852  -5.276  0.00  0.00    +0.186 A 
ATOM     22  N   UNL     1      -3.289  -1.711  -5.672  0.00  0.00    -0.054 NA
ATOM     23  O   UNL     1      -2.200  -0.830  -5.883  0.00  0.00    -0.295 OA
ATOM     24  C   UNL     1      -1.076  -1.506  -5.590  0.00  0.00    +0.443 A 
ATOM     25  O   UNL     1       0.059  -1.071  -5.651  0.00  0.00    -0.221 OA
BRANCH  21  26
ATOM     26  C   UNL     1      -3.598  -4.058  -4.942  0.00  0.00    +0.021 A 
ATOM     27  C   UNL     1      -4.808  -3.933  -4.261  0.00  0.00    +0.011 A 
ATOM     28  C   UNL     1      -5.543  -5.060  -3.953  0.00  0.00    +0.001 A 
ATOM     29  C   UNL     1      -5.081  -6.311  -4.319  0.00  0.00    +0.000 A 
ATOM     30  C   UNL     1      -3.881  -6.441  -4.995  0.00  0.00    +0.001 A 
ATOM     31  C   UNL     1      -3.140  -5.322  -5.313  0.00  0.00    +0.011 A 
ENDBRANCH  21  26
ENDBRANCH  19  20
ENDBRANCH   1  19
TORSDOF 8
