REMARK  Name = ZINC08052758
REMARK  2 active torsions:
REMARK  status: ('A' for Active; 'I' for Inactive)
REMARK    1  A    between atoms: C_10  and  N_11
REMARK    2  A    between atoms: C_10  and  N_47
REMARK                            x       y       z     vdW  Elec       q    Type
REMARK                         _______ _______ _______ _____ _____    ______ ____
ROOT
ATOM      1  C   UNL     1      -0.257   0.837   2.406  0.00  0.00    +0.041 C 
ENDROOT
BRANCH   1   2
ATOM      2  N   UNL     1      -0.470   1.667   3.594  0.00  0.00    -0.259 N 
ATOM      3  C   UNL     1       0.456   2.513   4.064  0.00  0.00    +0.221 C 
ATOM      4  O   UNL     1       1.553   2.694   3.579  0.00  0.00    -0.275 OA
ATOM      5  C   UNL     1      -0.086   3.212   5.293  0.00  0.00    +0.112 C 
ATOM      6  C   UNL     1      -1.491   2.608   5.455  0.00  0.00    +0.056 C 
ATOM      7  C   UNL     1      -1.606   1.638   4.305  0.00  0.00    +0.227 C 
ATOM      8  O   UNL     1      -2.570   0.944   4.063  0.00  0.00    -0.275 OA
ATOM      9  C   UNL     1      -1.602   1.877   6.788  0.00  0.00    +0.016 C 
ATOM     10  C   UNL     1      -2.997   1.260   6.918  0.00  0.00    +0.001 C 
ATOM     11  C   UNL     1      -4.052   2.364   6.832  0.00  0.00    +0.000 C 
ATOM     12  C   UNL     1      -3.942   3.074   5.481  0.00  0.00    +0.001 C 
ATOM     13  C   UNL     1      -2.551   3.698   5.346  0.00  0.00    +0.016 C 
ENDBRANCH   1   2
BRANCH   1  23
ATOM     14  C   UNL     1      -1.567   5.149  -2.179  0.00  0.00    +0.000 A 
ATOM     15  C   UNL     1      -1.460   5.806  -0.967  0.00  0.00    +0.000 A 
ATOM     16  C   UNL     1      -1.122   5.100   0.170  0.00  0.00    +0.002 A 
ATOM     17  C   UNL     1      -0.888   3.734   0.104  0.00  0.00    -0.061 A 
ATOM     18  C   UNL     1      -0.999   3.079  -1.104  0.00  0.00    -0.048 A 
ATOM     19  C   UNL     1      -1.337   3.790  -2.246  0.00  0.00    +0.004 A 
ATOM     20  C   UNL     1      -0.760   1.596  -1.224  0.00  0.00    +0.017 C 
ATOM     21  C   UNL     1      -0.013   1.086   0.008  0.00  0.00    -0.071 C 
ATOM     22  C   UNL     1      -0.517   3.009   1.371  0.00  0.00    -0.040 C 
ATOM     23  N   UNL     1      -0.733   1.561   1.207  0.00  0.00    +0.393 N 
ATOM     24  H   UNL     1      -1.738   1.384   1.088  0.00  0.00    -0.079 HD
ENDBRANCH   1  23
TORSDOF 2
