REMARK  Name = ZINC04986896
REMARK  7 active torsions:
REMARK  status: ('A' for Active; 'I' for Inactive)
REMARK    1  A    between atoms: C_1  and  O_2
REMARK    2  A    between atoms: O_2  and  C_3
REMARK    3  A    between atoms: C_6  and  C_11
REMARK    4  A    between atoms: C_8  and  O_9
REMARK    5  A    between atoms: O_9  and  C_10
REMARK    6  A    between atoms: C_16  and  C_22
REMARK    7  A    between atoms: C_25  and  O_28
REMARK                            x       y       z     vdW  Elec       q    Type
REMARK                         _______ _______ _______ _____ _____    ______ ____
ROOT
ATOM      1  C   UNL     1       1.078   3.320   0.694  0.00  0.00    +0.032 C 
ATOM      2  C   UNL     1      -0.052   4.066  -0.019  0.00  0.00    +0.059 C 
ATOM      3  C   UNL     1      -1.309   3.234   0.015  0.00  0.00    +0.018 C 
ATOM      4  C   UNL     1      -1.246   1.886   0.018  0.00  0.00    +0.020 C 
ATOM      5  C   UNL     1      -2.519   1.073   0.052  0.00  0.00    +0.063 C 
ATOM      6  C   UNL     1      -3.600   1.794  -0.755  0.00  0.00    +0.109 C 
ATOM      7  C   UNL     1      -3.649   3.239  -0.333  0.00  0.00    +0.218 C 
ATOM      8  O   UNL     1      -4.707   3.832  -0.327  0.00  0.00    -0.275 OA
ATOM      9  N   UNL     1      -2.523   3.873   0.037  0.00  0.00    -0.289 N 
ATOM     10  C   UNL     1      -0.014   1.211   0.009  0.00  0.00    +0.162 C 
ATOM     11  O   UNL     1       0.002  -0.004   0.002  0.00  0.00    -0.292 OA
ATOM     12  C   UNL     1       1.286   1.970   0.000  0.00  0.00    +0.088 C 
ATOM     13  H   UNL     1      -2.569   4.798   0.324  0.00  0.00    +0.155 HD
ENDROOT
BRANCH   1  17
ATOM     14  C   UNL     1       4.682   5.612   0.478  0.00  0.00    +0.161 A 
ATOM     15  C   UNL     1       4.046   5.204  -0.684  0.00  0.00    +0.049 A 
ATOM     16  C   UNL     1       2.881   4.464  -0.611  0.00  0.00    +0.008 A 
ATOM     17  C   UNL     1       2.348   4.127   0.620  0.00  0.00    -0.040 A 
ATOM     18  C   UNL     1       2.975   4.535   1.783  0.00  0.00    +0.053 A 
ATOM     19  C   UNL     1       4.146   5.273   1.717  0.00  0.00    +0.162 A 
BRANCH  14  21
ATOM     20  C   UNL     1       6.321   6.651  -0.897  0.00  0.00    +0.277 C 
ATOM     21  O   UNL     1       5.828   6.340   0.408  0.00  0.00    -0.491 OA
ENDBRANCH  14  21
BRANCH  19  22
ATOM     22  O   UNL     1       4.766   5.671   2.860  0.00  0.00    -0.491 OA
ATOM     23  C   UNL     1       4.159   5.287   4.095  0.00  0.00    +0.277 C 
ENDBRANCH  19  22
ENDBRANCH   1  17
BRANCH   5  24
ATOM     24  C   UNL     1      -2.981   0.909   1.477  0.00  0.00    -0.039 A 
ATOM     25  C   UNL     1      -3.273   2.025   2.240  0.00  0.00    +0.008 A 
ATOM     26  C   UNL     1      -3.702   1.878   3.545  0.00  0.00    +0.045 A 
ATOM     27  C   UNL     1      -3.829   0.610   4.094  0.00  0.00    +0.117 A 
ATOM     28  C   UNL     1      -3.529  -0.508   3.328  0.00  0.00    +0.045 A 
ATOM     29  C   UNL     1      -3.106  -0.355   2.022  0.00  0.00    +0.008 A 
BRANCH  27  30
ATOM     30  O   UNL     1      -4.245   0.463   5.379  0.00  0.00    -0.507 OA
ATOM     31  H   UNL     1      -3.527   0.455   6.027  0.00  0.00    +0.292 HD
ENDBRANCH  27  30
ENDBRANCH   5  24
TORSDOF 5
