REMARK  Name = ZINC20005338
REMARK  3 active torsions:
REMARK  status: ('A' for Active; 'I' for Inactive)
REMARK    1  A    between atoms: C_1  and  C_2
REMARK    2  A    between atoms: C_2  and  C_4
REMARK    3  A    between atoms: C_2  and  N_14
REMARK                            x       y       z     vdW  Elec       q    Type
REMARK                         _______ _______ _______ _____ _____    ______ ____
ROOT
ATOM      1  C   UNL     1       3.274   4.097  -1.444  0.00  0.00    +0.028 C 
ATOM      2  C   UNL     1       3.426   3.582  -0.011  0.00  0.00    +0.076 C 
ENDROOT
BRANCH   2   3
ATOM      3  C   UNL     1       4.726   4.123   0.589  0.00  0.00    -0.010 C 
ATOM      4  C   UNL     1       5.912   3.649  -0.253  0.00  0.00    +0.012 C 
ATOM      5  C   UNL     1       7.212   4.189   0.348  0.00  0.00    -0.010 C 
ATOM      6  C   UNL     1       7.172   5.719   0.356  0.00  0.00    +0.007 C 
ATOM      7  C   UNL     1       5.985   6.193   1.198  0.00  0.00    -0.010 C 
ATOM      8  C   UNL     1       4.686   5.653   0.597  0.00  0.00    +0.012 C 
ATOM      9  C   UNL     1       6.138   5.679   2.630  0.00  0.00    +0.007 C 
ATOM     10  C   UNL     1       6.178   4.150   2.622  0.00  0.00    -0.010 C 
ATOM     11  C   UNL     1       7.364   3.675   1.780  0.00  0.00    +0.007 C 
ATOM     12  C   UNL     1       4.878   3.609   2.022  0.00  0.00    +0.012 C 
ENDBRANCH   2   3
BRANCH   2  13
ATOM     13  N   UNL     1       3.465   2.118  -0.020  0.00  0.00    -0.310 N 
ATOM     14  C   UNL     1       2.285   1.395  -0.012  0.00  0.00    +0.215 A 
ATOM     15  N   UNL     1       1.129   2.043   0.002  0.00  0.00    -0.223 NA
ATOM     16  C   UNL     1      -0.017   1.382   0.010  0.00  0.00    +0.116 A 
ATOM     17  C   UNL     1       0.002  -0.004   0.002  0.00  0.00    +0.039 A 
ATOM     18  C   UNL     1       1.228  -0.650  -0.013  0.00  0.00    +0.116 A 
ATOM     19  N   UNL     1       2.337   0.071  -0.020  0.00  0.00    -0.223 NA
ATOM     20  H   UNL     1       4.431   1.593  -0.032  0.00  0.00    +0.149 HD
ENDBRANCH   2  13
TORSDOF 2
