REMARK  Name = ZINC00294452
REMARK  7 active torsions:
REMARK  status: ('A' for Active; 'I' for Inactive)
REMARK    1  A    between atoms: C_1  and  C_2
REMARK    2  A    between atoms: C_2  and  C_3
REMARK    3  A    between atoms: C_3  and  N_14
REMARK    4  A    between atoms: C_8  and  C_12
REMARK    5  A    between atoms: C_8  and  C_13
REMARK    6  A    between atoms: N_14  and  C_15
REMARK    7  A    between atoms: C_20  and  O_21
REMARK                            x       y       z     vdW  Elec       q    Type
REMARK                         _______ _______ _______ _____ _____    ______ ____
ROOT
ATOM      1  C   UNL     1       1.054   1.718  -0.306  0.00  0.00    +0.022 C 
ATOM      2  C   UNL     1       2.261   1.050  -0.478  0.00  0.00    +0.077 C 
ATOM      3  C   UNL     1       3.323   1.687  -1.167  0.00  0.00    +0.168 C 
ATOM      4  O   UNL     1       3.172   2.809  -1.604  0.00  0.00    -0.292 OA
ATOM      5  C   UNL     1       4.640   0.980  -1.355  0.00  0.00    +0.086 C 
ATOM      6  C   UNL     1       4.397  -0.529  -1.433  0.00  0.00    -0.021 C 
ATOM      7  C   UNL     1       3.719  -0.998  -0.144  0.00  0.00    +0.086 C 
ATOM      8  C   UNL     1       2.416  -0.262   0.032  0.00  0.00    +0.168 C 
ATOM      9  O   UNL     1       1.494  -0.796   0.614  0.00  0.00    -0.292 OA
ATOM     10  C   UNL     1       5.735  -1.254  -1.599  0.00  0.00    +0.012 C 
ATOM     11  C   UNL     1       3.495  -0.842  -2.629  0.00  0.00    +0.012 C 
ENDROOT
BRANCH   1  13
ATOM     12  C   UNL     1       0.540   3.264  -2.176  0.00  0.00    +0.010 C 
ATOM     13  C   UNL     1       0.932   3.167  -0.700  0.00  0.00    +0.048 C 
ENDBRANCH   1  13
BRANCH   1  14
ATOM     14  N   UNL     1      -0.005   1.069   0.211  0.00  0.00    -0.314 N 
ATOM     15  H   UNL     1      -0.360   0.285  -0.236  0.00  0.00    +0.152 HD
BRANCH  14  16
ATOM     16  C   UNL     1      -0.599   1.530   1.391  0.00  0.00    +0.073 A 
ATOM     17  C   UNL     1      -0.019   2.572   2.101  0.00  0.00    +0.027 A 
ATOM     18  C   UNL     1      -0.611   3.029   3.264  0.00  0.00    +0.002 A 
ATOM     19  C   UNL     1      -1.774   2.442   3.728  0.00  0.00    +0.004 A 
ATOM     20  C   UNL     1      -2.355   1.401   3.030  0.00  0.00    +0.047 A 
ATOM     21  C   UNL     1      -1.771   0.940   1.860  0.00  0.00    +0.138 A 
BRANCH  21  22
ATOM     22  O   UNL     1      -2.341  -0.085   1.172  0.00  0.00    -0.505 OA
ATOM     23  H   UNL     1      -2.028  -0.960   1.439  0.00  0.00    +0.292 HD
ENDBRANCH  21  22
ENDBRANCH  14  16
ENDBRANCH   1  14
TORSDOF 4
