REMARK  Name = ZINC56785726
REMARK  7 active torsions:
REMARK  status: ('A' for Active; 'I' for Inactive)
REMARK    1  A    between atoms: C_1  and  C_2
REMARK    2  A    between atoms: N_7  and  C_9
REMARK    3  A    between atoms: C_9  and  C_10
REMARK    4  A    between atoms: C_10  and  C_12
REMARK    5  A    between atoms: C_10  and  N_13
REMARK    6  A    between atoms: N_16  and  N_17
REMARK    7  A    between atoms: C_18  and  C_20
REMARK                            x       y       z     vdW  Elec       q    Type
REMARK                         _______ _______ _______ _____ _____    ______ ____
ROOT
ATOM      1  N   UNL     1       0.199  -4.504   2.224  0.00  0.00    -0.297 N 
ATOM      2  C   UNL     1      -0.001  -5.764   1.791  0.00  0.00    +0.316 C 
ATOM      3  O   UNL     1       0.951  -6.475   1.530  0.00  0.00    -0.251 OA
ATOM      4  N   UNL     1      -1.254  -6.237   1.646  0.00  0.00    -0.218 N 
ATOM      5  H   UNL     1      -0.560  -3.937   2.433  0.00  0.00    +0.150 HD
ATOM      6  H   UNL     1      -1.398  -7.144   1.334  0.00  0.00    +0.174 HD
ENDROOT
BRANCH   4   7
ATOM      7  N   UNL     1      -2.350  -5.417   1.946  0.00  0.00    -0.229 N 
ATOM      8  C   UNL     1      -3.604  -5.889   1.802  0.00  0.00    +0.263 C 
ATOM      9  O   UNL     1      -3.785  -7.026   1.411  0.00  0.00    -0.269 OA
ATOM     10  H   UNL     1      -2.207  -4.510   2.259  0.00  0.00    +0.173 HD
BRANCH   8  11
ATOM     11  C   UNL     1      -4.760  -5.026   2.119  0.00  0.00    +0.073 A 
ATOM     12  C   UNL     1      -4.557  -3.717   2.563  0.00  0.00    +0.016 A 
ATOM     13  C   UNL     1      -5.640  -2.916   2.856  0.00  0.00    +0.001 A 
ATOM     14  C   UNL     1      -6.928  -3.404   2.712  0.00  0.00    +0.003 A 
ATOM     15  C   UNL     1      -7.139  -4.698   2.274  0.00  0.00    +0.039 A 
ATOM     16  C   UNL     1      -6.062  -5.512   1.970  0.00  0.00    +0.136 A 
ATOM     17  F   UNL     1      -6.269  -6.774   1.535  0.00  0.00    -0.205 F 
ENDBRANCH   8  11
ENDBRANCH   4   7
BRANCH   1  18
ATOM     18  C   UNL     1       1.562  -3.991   2.382  0.00  0.00    +0.055 C 
ATOM     19  C   UNL     1       2.089  -4.359   3.771  0.00  0.00    +0.026 C 
BRANCH  18  20
ATOM     20  C   UNL     1       1.555  -2.469   2.225  0.00  0.00    -0.057 C 
BRANCH  20  26
ATOM     21  C   UNL     1       2.049  -2.806  -2.633  0.00  0.00    +0.005 C 
ATOM     22  C   UNL     1       1.152  -2.301  -1.502  0.00  0.00    -0.031 C 
ATOM     23  C   UNL     1       0.953  -0.789  -1.644  0.00  0.00    -0.001 C 
ATOM     24  C   UNL     1       0.119  -0.281  -0.464  0.00  0.00    -0.018 C 
ATOM     25  C   UNL     1       0.818  -0.653   0.845  0.00  0.00    -0.079 C 
ATOM     26  N   UNL     1       0.955  -2.112   0.933  0.00  0.00    +0.381 N 
ATOM     27  C   UNL     1       1.812  -2.599  -0.154  0.00  0.00    -0.076 C 
ATOM     28  H   UNL     1       0.044  -2.539   0.859  0.00  0.00    -0.082 HD
ENDBRANCH  20  26
ENDBRANCH  18  20
ENDBRANCH   1  18
TORSDOF 5
