REMARK  Name = ZINC16901491
REMARK  4 active torsions:
REMARK  status: ('A' for Active; 'I' for Inactive)
REMARK    1  A    between atoms: C_3  and  N_8
REMARK    2  A    between atoms: C_5  and  O_7
REMARK    3  A    between atoms: C_12  and  N_16
REMARK    4  A    between atoms: N_16  and  C_17
REMARK                            x       y       z     vdW  Elec       q    Type
REMARK                         _______ _______ _______ _____ _____    ______ ____
ROOT
ATOM      1  N   UNL     1       3.585   2.133  -0.022  0.00  0.00    -0.209 N 
ATOM      2  C   UNL     1       4.784   1.542   0.055  0.00  0.00    +0.228 C 
ATOM      3  O   UNL     1       4.974   0.348   0.139  0.00  0.00    -0.275 OA
ATOM      4  C   UNL     1       5.864   2.601   0.021  0.00  0.00    +0.128 C 
ATOM      5  C   UNL     1       5.074   3.920  -0.091  0.00  0.00    +0.166 C 
ATOM      6  C   UNL     1       3.630   3.468  -0.114  0.00  0.00    +0.247 C 
ATOM      7  O   UNL     1       2.666   4.198  -0.199  0.00  0.00    -0.273 OA
ENDROOT
BRANCH   1  10
ATOM      8  C   UNL     1       0.402   0.665  -1.143  0.00  0.00    +0.005 A 
ATOM      9  C   UNL     1       1.587   1.376  -1.151  0.00  0.00    +0.024 A 
ATOM     10  C   UNL     1       2.382   1.413  -0.014  0.00  0.00    +0.047 A 
ATOM     11  C   UNL     1       1.986   0.736   1.131  0.00  0.00    +0.069 A 
ATOM     12  C   UNL     1       0.797   0.025   1.136  0.00  0.00    +0.119 A 
ATOM     13  C   UNL     1       0.005  -0.009  -0.004  0.00  0.00    +0.045 A 
BRANCH  12  14
ATOM     14  O   UNL     1       0.406  -0.640   2.255  0.00  0.00    -0.507 OA
ATOM     15  H   UNL     1      -0.137  -0.112   2.857  0.00  0.00    +0.292 HD
ENDBRANCH  12  14
ENDBRANCH   1  10
BRANCH   5  16
ATOM     16  N   UNL     1       5.335   4.778   1.067  0.00  0.00    -0.333 N 
ATOM     17  H   UNL     1       5.617   4.385   1.908  0.00  0.00    +0.147 HD
BRANCH  16  18
ATOM     18  C   UNL     1       5.178   6.163   0.961  0.00  0.00    +0.028 A 
ATOM     19  C   UNL     1       4.769   6.726  -0.241  0.00  0.00    +0.024 A 
ATOM     20  C   UNL     1       4.615   8.095  -0.343  0.00  0.00    +0.022 A 
ATOM     21  C   UNL     1       4.868   8.905   0.751  0.00  0.00    +0.041 A 
ATOM     22  C   UNL     1       5.275   8.346   1.949  0.00  0.00    +0.022 A 
ATOM     23  C   UNL     1       5.426   6.977   2.058  0.00  0.00    +0.024 A 
ATOM     24 CL   UNL     1       4.673  10.625   0.619  0.00  0.00    -0.084 Cl
ENDBRANCH  16  18
ENDBRANCH   5  16
TORSDOF 4
