REMARK  Name = ZINC66326968
REMARK  3 active torsions:
REMARK  status: ('A' for Active; 'I' for Inactive)
REMARK    1  A    between atoms: C_3  and  O_22
REMARK    2  A    between atoms: C_6  and  N_7
REMARK    3  A    between atoms: C_13  and  C_15
REMARK                            x       y       z     vdW  Elec       q    Type
REMARK                         _______ _______ _______ _____ _____    ______ ____
ROOT
ATOM      1  N   UNL     1      -1.442  -1.151   0.923  0.00  0.00    -0.327 N 
ATOM      2  C   UNL     1      -2.743  -0.476   1.025  0.00  0.00    +0.124 C 
ATOM      3  C   UNL     1      -3.439  -0.546  -0.340  0.00  0.00    +0.126 C 
ATOM      4  N   UNL     1      -3.397  -1.935  -0.818  0.00  0.00    -0.298 N 
ATOM      5  C   UNL     1      -2.095  -2.610  -0.920  0.00  0.00    +0.126 C 
ATOM      6  C   UNL     1      -1.399  -2.538   0.440  0.00  0.00    +0.124 C 
ATOM      7  C   UNL     1      -4.532  -2.578  -1.157  0.00  0.00    +0.219 C 
ATOM      8  O   UNL     1      -4.494  -3.749  -1.471  0.00  0.00    -0.275 OA
ENDROOT
BRANCH   1  14
ATOM      9  C   UNL     1       0.950  -1.157   1.256  0.00  0.00    +0.027 A 
ATOM     10  C   UNL     1       2.112  -0.497   1.603  0.00  0.00    +0.047 A 
ATOM     11  C   UNL     1       2.067   0.840   1.971  0.00  0.00    +0.117 A 
ATOM     12  C   UNL     1       0.856   1.514   1.990  0.00  0.00    +0.047 A 
ATOM     13  C   UNL     1      -0.307   0.856   1.643  0.00  0.00    +0.027 A 
ATOM     14  C   UNL     1      -0.264  -0.482   1.275  0.00  0.00    +0.030 A 
BRANCH  11  15
ATOM     15  O   UNL     1       3.212   1.489   2.313  0.00  0.00    -0.507 OA
ATOM     16  H   UNL     1       3.662   1.913   1.569  0.00  0.00    +0.292 HD
ENDBRANCH  11  15
ENDBRANCH   1  14
BRANCH   7  17
ATOM     17  C   UNL     1      -5.847  -1.843  -1.146  0.00  0.00    +0.079 C 
ATOM     18  C   UNL     1      -6.999  -2.849  -1.024  0.00  0.00    +0.017 C 
ATOM     19  C   UNL     1      -8.303  -2.071  -0.835  0.00  0.00    +0.027 C 
ATOM     20  C   UNL     1      -8.415  -0.992  -1.873  0.00  0.00    -0.031 C 
ATOM     21  C   UNL     1      -7.420  -0.554  -2.575  0.00  0.00    -0.030 C 
ATOM     22  C   UNL     1      -6.013  -1.067  -2.454  0.00  0.00    +0.039 C 
ENDBRANCH   7  17
TORSDOF 3
