REMARK  Name = ZINC04236588
REMARK  13 active torsions:
REMARK  status: ('A' for Active; 'I' for Inactive)
REMARK    1  A    between atoms: C_1  and  C_2
REMARK    2  A    between atoms: C_5  and  O_31
REMARK    3  A    between atoms: C_7  and  C_28
REMARK    4  A    between atoms: C_7  and  C_29
REMARK    5  A    between atoms: C_12  and  O_27
REMARK    6  A    between atoms: C_14  and  C_16
REMARK    7  A    between atoms: C_16  and  C_17
REMARK    8  A    between atoms: C_23  and  C_25
REMARK    9  A    between atoms: C_25  and  O_26
REMARK   10  A    between atoms: C_29  and  O_30
REMARK   11  A    between atoms: O_31  and  C_32
REMARK   12  A    between atoms: N_34  and  C_35
REMARK   13  A    between atoms: C_35  and  C_36
REMARK                            x       y       z     vdW  Elec       q    Type
REMARK                         _______ _______ _______ _____ _____    ______ ____
ROOT
ATOM      1  C   UNL     1      -0.705   3.111   1.017  0.00  0.00    +0.012 C 
ATOM      2  C   UNL     1      -0.684   1.581   1.009  0.00  0.00    -0.023 C 
ATOM      3  C   UNL     1       0.009   1.074   2.275  0.00  0.00    +0.011 C 
ATOM      4  C   UNL     1      -0.754   1.567   3.506  0.00  0.00    +0.046 C 
ATOM      5  C   UNL     1      -2.189   1.037   3.463  0.00  0.00    +0.186 C 
ATOM      6  C   UNL     1      -2.882   1.545   2.196  0.00  0.00    +0.031 C 
ATOM      7  C   UNL     1      -2.119   1.052   0.965  0.00  0.00    +0.007 C 
ATOM      8  C   UNL     1      -2.811   1.560  -0.301  0.00  0.00    +0.007 C 
ATOM      9  C   UNL     1      -2.048   1.067  -1.532  0.00  0.00    +0.032 C 
ATOM     10  C   UNL     1      -0.613   1.596  -1.489  0.00  0.00    +0.119 C 
ATOM     11  C   UNL     1       0.079   1.088  -0.222  0.00  0.00    +0.032 C 
ATOM     12  C   UNL     1      -4.317   1.016   2.153  0.00  0.00    +0.017 C 
ENDROOT
BRANCH  10  13
ATOM     13  O   UNL     1      -0.633   3.025  -1.481  0.00  0.00    -0.391 OA
ATOM     14  H   UNL     1      -1.058   3.417  -2.256  0.00  0.00    +0.210 HD
ENDBRANCH  10  13
BRANCH  11  15
ATOM     15  C   UNL     1       1.514   1.618  -0.179  0.00  0.00    +0.102 C 
BRANCH  15  16
ATOM     16  C   UNL     1       2.300   1.034  -1.324  0.00  0.00    +0.216 C 
ATOM     17  O   UNL     1       1.765   0.269  -2.099  0.00  0.00    -0.276 OA
ATOM     18  N   UNL     1       3.597   1.361  -1.488  0.00  0.00    -0.296 N 
ATOM     19  C   UNL     1       4.367   2.278  -0.627  0.00  0.00    +0.108 C 
ATOM     20  C   UNL     1       5.518   2.793  -1.524  0.00  0.00    +0.021 C 
ATOM     21  C   UNL     1       5.857   1.529  -2.357  0.00  0.00    +0.026 C 
ATOM     22  C   UNL     1       4.477   0.867  -2.556  0.00  0.00    +0.101 C 
BRANCH  22  23
ATOM     23  C   UNL     1       4.612  -0.654  -2.458  0.00  0.00    +0.178 C 
BRANCH  23  24
ATOM     24  O   UNL     1       5.276  -0.996  -1.240  0.00  0.00    -0.393 OA
ATOM     25  H   UNL     1       5.396  -1.947  -1.111  0.00  0.00    +0.209 HD
ENDBRANCH  23  24
ENDBRANCH  22  23
ENDBRANCH  15  16
ENDBRANCH  11  15
BRANCH   6  26
ATOM     26  C   UNL     1      -2.903   3.075   2.205  0.00  0.00    +0.166 C 
BRANCH  26  27
ATOM     27  O   UNL     1      -3.776   3.534   3.238  0.00  0.00    -0.394 OA
ATOM     28  H   UNL     1      -3.838   4.497   3.302  0.00  0.00    +0.209 HD
ENDBRANCH  26  27
ENDBRANCH   6  26
BRANCH   5  29
ATOM     29  O   UNL     1      -2.913   1.505   4.631  0.00  0.00    -0.446 OA
BRANCH  29  30
ATOM     30  C   UNL     1      -2.876   0.724   5.727  0.00  0.00    +0.401 C 
ATOM     31  O   UNL     1      -2.255  -0.321   5.707  0.00  0.00    -0.226 OA
ATOM     32  N   UNL     1      -3.527   1.100   6.845  0.00  0.00    -0.278 N 
ATOM     33  H   UNL     1      -4.023   1.933   6.861  0.00  0.00    +0.152 HD
BRANCH  32  34
ATOM     34  C   UNL     1      -3.486   0.250   8.038  0.00  0.00    +0.134 C 
BRANCH  34  35
ATOM     35  C   UNL     1      -4.287   0.892   9.140  0.00  0.00    -0.016 C 
ATOM     36  C   UNL     1      -5.255   0.226   9.721  0.00  0.00    +0.005 C 
ENDBRANCH  34  35
ENDBRANCH  32  34
ENDBRANCH  29  30
ENDBRANCH   5  29
TORSDOF 11
