REMARK  Name = ZINC15679126
REMARK  2 active torsions:
REMARK  status: ('A' for Active; 'I' for Inactive)
REMARK    1  A    between atoms: C_5  and  C_7
REMARK    2  A    between atoms: C_16  and  C_18
REMARK                            x       y       z     vdW  Elec       q    Type
REMARK                         _______ _______ _______ _____ _____    ______ ____
ROOT
ATOM      1  C   UNL     1      -0.752   1.595  -1.228  0.00  0.00    +0.150 C 
ATOM      2  C   UNL     1      -0.007   1.088   0.009  0.00  0.00    +0.128 C 
ATOM      3  C   UNL     1      -0.718   1.576   1.248  0.00  0.00    +0.222 C 
ATOM      4  O   UNL     1      -0.729   0.901   2.255  0.00  0.00    -0.275 OA
ATOM      5  N   UNL     1      -1.344   2.772   1.220  0.00  0.00    -0.258 N 
ATOM      6  C   UNL     1      -1.317   3.539   0.074  0.00  0.00    +0.189 C 
ATOM      7  N   UNL     1      -1.042   3.021  -1.081  0.00  0.00    -0.247 NA
ATOM      8  N   UNL     1      -1.588   4.890   0.161  0.00  0.00    -0.254 N 
ATOM      9  C   UNL     1      -1.467   5.673  -0.929  0.00  0.00    +0.253 C 
ATOM     10  O   UNL     1      -1.208   5.176  -2.009  0.00  0.00    -0.270 OA
ATOM     11  H   UNL     1      -1.877   3.135   2.111  0.00  0.00    +0.157 HD
ATOM     12  H   UNL     1      -1.904   5.327   1.119  0.00  0.00    +0.158 HD
ENDROOT
BRANCH   1  17
ATOM     13  C   UNL     1       1.691   2.208  -4.040  0.00  0.00    +0.001 A 
ATOM     14  C   UNL     1       1.674   0.989  -4.693  0.00  0.00    +0.003 A 
ATOM     15  C   UNL     1       0.872  -0.035  -4.225  0.00  0.00    +0.039 A 
ATOM     16  C   UNL     1       0.086   0.161  -3.103  0.00  0.00    +0.129 A 
ATOM     17  C   UNL     1       0.104   1.381  -2.450  0.00  0.00    +0.013 A 
ATOM     18  C   UNL     1       0.902   2.406  -2.923  0.00  0.00    +0.008 A 
ATOM     19  F   UNL     1      -0.699  -0.839  -2.645  0.00  0.00    -0.205 F 
ENDBRANCH   1  17
BRANCH   9  20
ATOM     20  C   UNL     1      -1.647   7.133  -0.813  0.00  0.00    +0.072 A 
ATOM     21  C   UNL     1      -1.950   7.707   0.424  0.00  0.00    +0.016 A 
ATOM     22  C   UNL     1      -2.112   9.072   0.526  0.00  0.00    +0.001 A 
ATOM     23  C   UNL     1      -1.987   9.875  -0.595  0.00  0.00    +0.003 A 
ATOM     24  C   UNL     1      -1.693   9.316  -1.824  0.00  0.00    +0.039 A 
ATOM     25  C   UNL     1      -1.522   7.949  -1.942  0.00  0.00    +0.135 A 
ATOM     26  F   UNL     1      -1.235   7.403  -3.144  0.00  0.00    -0.205 F 
ENDBRANCH   9  20
TORSDOF 2
