REMARK  Name = ZINC16570115
REMARK  10 active torsions:
REMARK  status: ('A' for Active; 'I' for Inactive)
REMARK    1  A    between atoms: C_1  and  C_2
REMARK    2  A    between atoms: C_2  and  N_3
REMARK    3  A    between atoms: N_6  and  C_7
REMARK    4  A    between atoms: N_6  and  C_32
REMARK    5  A    between atoms: C_7  and  C_8
REMARK    6  A    between atoms: C_22  and  C_24
REMARK    7  A    between atoms: C_27  and  O_30
REMARK    8  A    between atoms: O_30  and  C_31
REMARK    9  A    between atoms: C_32  and  C_33
REMARK   10  A    between atoms: C_32  and  C_34
REMARK                            x       y       z     vdW  Elec       q    Type
REMARK                         _______ _______ _______ _____ _____    ______ ____
ROOT
ATOM      1  C   UNL     1      -0.799   1.958  -1.360  0.00  0.00    +0.238 C 
ATOM      2  O   UNL     1      -0.160   1.482  -0.446  0.00  0.00    -0.273 OA
ATOM      3  N   UNL     1      -0.396   1.771  -2.633  0.00  0.00    -0.255 N 
ATOM      4  C   UNL     1       0.711   0.956  -2.903  0.00  0.00    +0.061 A 
ATOM      5  C   UNL     1       1.734   0.826  -1.976  0.00  0.00    +0.025 A 
ATOM      6  C   UNL     1       2.815   0.010  -2.252  0.00  0.00    +0.002 A 
ATOM      7  C   UNL     1       2.885  -0.680  -3.449  0.00  0.00    +0.002 A 
ATOM      8  C   UNL     1       1.872  -0.554  -4.383  0.00  0.00    +0.028 A 
ATOM      9  C   UNL     1       0.791   0.263  -4.116  0.00  0.00    +0.068 A 
ATOM     10  N   UNL     1      -0.248   0.441  -5.041  0.00  0.00    -0.316 N 
ATOM     11  C   UNL     1      -0.549  -0.257  -6.162  0.00  0.00    +0.092 A 
ATOM     12  C   UNL     1      -1.651   0.293  -6.718  0.00  0.00    +0.020 A 
ATOM     13  C   UNL     1      -2.043   1.378  -5.903  0.00  0.00    +0.025 A 
ATOM     14  C   UNL     1      -1.174   1.450  -4.889  0.00  0.00    +0.049 A 
ATOM     15  C   UNL     1      -1.123   2.419  -3.737  0.00  0.00    +0.159 C 
ENDROOT
BRANCH  15  16
ATOM     16  C   UNL     1      -0.400   3.671  -4.160  0.00  0.00    -0.021 A 
ATOM     17  C   UNL     1       0.982   3.684  -4.218  0.00  0.00    +0.009 A 
ATOM     18  C   UNL     1       1.647   4.829  -4.611  0.00  0.00    +0.046 A 
ATOM     19  C   UNL     1       0.929   5.970  -4.936  0.00  0.00    +0.120 A 
ATOM     20  C   UNL     1      -0.457   5.957  -4.872  0.00  0.00    +0.046 A 
ATOM     21  C   UNL     1      -1.118   4.807  -4.484  0.00  0.00    +0.009 A 
BRANCH  19  22
ATOM     22  O   UNL     1       1.582   7.099  -5.318  0.00  0.00    -0.495 OA
ATOM     23  C   UNL     1       3.009   7.040  -5.362  0.00  0.00    +0.277 C 
ENDBRANCH  19  22
ENDBRANCH  15  16
BRANCH   1  24
ATOM     24  C   UNL     1      -2.044   2.758  -1.074  0.00  0.00    +0.205 C 
BRANCH  24  28
ATOM     25  N   UNL     1      -1.121   4.686   0.668  0.00  0.00    -0.299 N 
ATOM     26  C   UNL     1      -1.815   3.651   1.181  0.00  0.00    +0.303 C 
ATOM     27  O   UNL     1      -1.973   3.562   2.383  0.00  0.00    -0.253 OA
ATOM     28  N   UNL     1      -2.333   2.715   0.361  0.00  0.00    -0.274 N 
ATOM     29  H   UNL     1      -1.056   4.798  -0.293  0.00  0.00    +0.150 HD
BRANCH  28  30
ATOM     30  C   UNL     1      -3.184   1.655   0.906  0.00  0.00    +0.072 C 
ATOM     31  C   UNL     1      -2.366   0.784   1.862  0.00  0.00    +0.028 C 
ATOM     32  C   UNL     1      -4.357   2.281   1.664  0.00  0.00    +0.028 C 
ENDBRANCH  28  30
BRANCH  25  34
ATOM     33  C   UNL     1       0.248   6.712   0.732  0.00  0.00    +0.024 C 
ATOM     34  C   UNL     1      -0.465   5.644   1.562  0.00  0.00    +0.102 C 
ENDBRANCH  25  34
ENDBRANCH  24  28
ENDBRANCH   1  24
TORSDOF 6
