REMARK  Name = ZINC35486969
REMARK  10 active torsions:
REMARK  status: ('A' for Active; 'I' for Inactive)
REMARK    1  A    between atoms: C_1  and  C_2
REMARK    2  A    between atoms: C_2  and  O_3
REMARK    3  A    between atoms: O_3  and  C_4
REMARK    4  A    between atoms: C_8  and  C_10
REMARK    5  A    between atoms: N_25  and  C_26
REMARK    6  A    between atoms: C_26  and  C_27
REMARK    7  A    between atoms: C_27  and  C_28
REMARK    8  A    between atoms: C_28  and  N_29
REMARK    9  A    between atoms: N_29  and  C_30
REMARK   10  A    between atoms: N_29  and  C_31
REMARK                            x       y       z     vdW  Elec       q    Type
REMARK                         _______ _______ _______ _____ _____    ______ ____
ROOT
ATOM      1  C   UNL     1      -4.316  -4.366   0.008  0.00  0.00    +0.145 C 
ATOM      2  C   UNL     1      -4.675  -4.842  -1.361  0.00  0.00    +0.072 A 
ATOM      3  C   UNL     1      -4.814  -4.119  -2.630  0.00  0.00    +0.199 A 
ATOM      4  O   UNL     1      -4.467  -2.961  -2.779  0.00  0.00    -0.287 OA
ATOM      5  C   UNL     1      -5.415  -4.934  -3.715  0.00  0.00    +0.065 A 
ATOM      6  C   UNL     1      -5.796  -4.338  -4.917  0.00  0.00    +0.030 A 
ATOM      7  C   UNL     1      -6.357  -5.108  -5.912  0.00  0.00    +0.019 A 
ATOM      8  C   UNL     1      -6.543  -6.471  -5.715  0.00  0.00    +0.019 A 
ATOM      9  C   UNL     1      -6.171  -7.070  -4.533  0.00  0.00    +0.048 A 
ATOM     10  C   UNL     1      -5.597  -6.312  -3.513  0.00  0.00    +0.140 A 
ATOM     11  O   UNL     1      -5.231  -6.928  -2.365  0.00  0.00    -0.450 OA
ATOM     12  C   UNL     1      -4.893  -6.189  -1.290  0.00  0.00    +0.199 A 
ATOM     13  C   UNL     1      -4.690  -6.617   0.105  0.00  0.00    +0.283 C 
ATOM     14  O   UNL     1      -4.809  -7.757   0.507  0.00  0.00    -0.267 OA
ATOM     15  N   UNL     1      -4.352  -5.558   0.872  0.00  0.00    -0.284 N 
ATOM     16 BR   UNL     1      -6.876  -4.311  -7.546  0.00  0.00    -0.050 Br
ENDROOT
BRANCH   1  21
ATOM     17  C   UNL     1      -1.498  -1.848   0.006  0.00  0.00    +0.121 A 
ATOM     18  C   UNL     1      -0.387  -2.679  -0.003  0.00  0.00    +0.045 A 
ATOM     19  C   UNL     1      -0.552  -4.051  -0.008  0.00  0.00    +0.004 A 
ATOM     20  C   UNL     1      -1.823  -4.596  -0.004  0.00  0.00    +0.006 A 
ATOM     21  C   UNL     1      -2.932  -3.769   0.004  0.00  0.00    -0.019 A 
ATOM     22  C   UNL     1      -2.772  -2.397   0.016  0.00  0.00    +0.051 A 
BRANCH  17  23
ATOM     23  O   UNL     1      -1.339  -0.499   0.012  0.00  0.00    -0.492 OA
BRANCH  23  25
ATOM     24  C   UNL     1      -0.019   1.526   0.010  0.00  0.00    +0.048 C 
ATOM     25  C   UNL     1       0.002  -0.004   0.002  0.00  0.00    +0.225 C 
ENDBRANCH  23  25
ENDBRANCH  17  23
ENDBRANCH   1  21
BRANCH  15  26
ATOM     26  C   UNL     1      -4.071  -5.589   2.309  0.00  0.00    +0.107 C 
BRANCH  26  27
ATOM     27  C   UNL     1      -5.367  -5.355   3.087  0.00  0.00    +0.000 C 
BRANCH  27  28
ATOM     28  C   UNL     1      -5.074  -5.387   4.589  0.00  0.00    -0.078 C 
BRANCH  28  29
ATOM     29  N   UNL     1      -6.318  -5.163   5.336  0.00  0.00    +0.376 N 
ATOM     30  C   UNL     1      -7.241  -6.280   5.097  0.00  0.00    -0.097 C 
ATOM     31  C   UNL     1      -6.019  -5.074   6.771  0.00  0.00    -0.097 C 
ATOM     32  H   UNL     1      -6.745  -4.302   5.028  0.00  0.00    -0.083 HD
ENDBRANCH  28  29
ENDBRANCH  27  28
ENDBRANCH  26  27
ENDBRANCH  15  26
TORSDOF 7
