REMARK  Name = ZINC58566214
REMARK  4 active torsions:
REMARK  status: ('A' for Active; 'I' for Inactive)
REMARK    1  A    between atoms: C_1  and  O_2
REMARK    2  A    between atoms: O_2  and  C_3
REMARK    3  A    between atoms: C_3  and  C_5
REMARK    4  A    between atoms: C_17  and  C_19
REMARK                            x       y       z     vdW  Elec       q    Type
REMARK                         _______ _______ _______ _____ _____    ______ ____
ROOT
ATOM      1  C   UNL     1      -1.546  -1.614  -0.196  0.00  0.00    +0.185 C 
ATOM      2  C   UNL     1      -1.461  -1.946  -1.711  0.00  0.00    +0.039 C 
ATOM      3  C   UNL     1      -2.903  -2.378  -2.019  0.00  0.00    +0.012 C 
ATOM      4  C   UNL     1      -3.057  -3.325  -3.197  0.00  0.00    +0.005 C 
ATOM      5  C   UNL     1      -4.537  -3.739  -3.260  0.00  0.00    +0.000 C 
ATOM      6  C   UNL     1      -4.988  -4.399  -1.961  0.00  0.00    +0.002 C 
ATOM      7  C   UNL     1      -4.708  -3.498  -0.747  0.00  0.00    +0.023 C 
ATOM      8  C   UNL     1      -3.231  -3.181  -0.731  0.00  0.00    +0.080 C 
ATOM      9  N   UNL     1      -2.710  -2.352   0.350  0.00  0.00    -0.281 N 
ATOM     10  C   UNL     1      -3.193  -2.270   1.605  0.00  0.00    +0.249 C 
ATOM     11  O   UNL     1      -4.218  -2.853   1.902  0.00  0.00    -0.270 OA
ENDROOT
BRANCH  10  12
ATOM     12  C   UNL     1      -2.477  -1.471   2.622  0.00  0.00    +0.051 A 
ATOM     13  C   UNL     1      -1.210  -0.954   2.343  0.00  0.00    +0.014 A 
ATOM     14  C   UNL     1      -0.548  -0.209   3.296  0.00  0.00    +0.001 A 
ATOM     15  C   UNL     1      -1.135   0.026   4.527  0.00  0.00    +0.001 A 
ATOM     16  C   UNL     1      -2.389  -0.482   4.811  0.00  0.00    +0.016 A 
ATOM     17  C   UNL     1      -3.067  -1.225   3.864  0.00  0.00    +0.030 A 
ATOM     18 BR   UNL     1      -4.785  -1.913   4.250  0.00  0.00    -0.050 Br
ENDBRANCH  10  12
BRANCH   1  19
ATOM     19  C   UNL     1      -1.742  -0.133  -0.004  0.00  0.00    +0.328 C 
ATOM     20  O   UNL     1      -2.846   0.307   0.216  0.00  0.00    -0.249 OA
BRANCH  19  22
ATOM     21  C   UNL     1      -0.950   2.091   0.112  0.00  0.00    +0.280 C 
ATOM     22  O   UNL     1      -0.691   0.699  -0.080  0.00  0.00    -0.467 OA
ENDBRANCH  19  22
ENDBRANCH   1  19
TORSDOF 3
