REMARK  Name = ZINC47246635
REMARK  2 active torsions:
REMARK  status: ('A' for Active; 'I' for Inactive)
REMARK    1  A    between atoms: C_10  and  C_12
REMARK    2  A    between atoms: N_20  and  C_21
REMARK                            x       y       z     vdW  Elec       q    Type
REMARK                         _______ _______ _______ _____ _____    ______ ____
ROOT
ATOM      1  C   UNL     1      -2.761  -2.324  -1.909  0.00  0.00    +0.164 C 
ATOM      2  C   UNL     1      -2.306  -1.094  -2.722  0.00  0.00    +0.033 C 
ATOM      3  C   UNL     1      -2.145  -1.665  -4.155  0.00  0.00    +0.021 C 
ATOM      4  C   UNL     1      -3.299  -2.697  -4.210  0.00  0.00    +0.110 C 
ATOM      5  N   UNL     1      -3.348  -3.284  -2.855  0.00  0.00    -0.274 N 
ATOM      6  C   UNL     1      -3.846  -4.495  -2.537  0.00  0.00    +0.303 C 
ATOM      7  O   UNL     1      -3.832  -4.875  -1.382  0.00  0.00    -0.253 OA
ATOM      8  N   UNL     1      -4.360  -5.286  -3.500  0.00  0.00    -0.296 N 
ATOM      9  H   UNL     1      -4.371  -4.983  -4.422  0.00  0.00    +0.151 HD
ENDROOT
BRANCH   1  19
ATOM     10  C   UNL     1      -0.017   1.390   0.010  0.00  0.00    +0.013 A 
ATOM     11  C   UNL     1       1.145   2.082   0.002  0.00  0.00    +0.046 A 
ATOM     12  S   UNL     1       2.356   0.769  -0.017  0.00  0.00    -0.101 S 
ATOM     13  C   UNL     1       1.226  -0.598  -0.017  0.00  0.00    -0.004 A 
ATOM     14  C   UNL     1       0.002  -0.004   0.002  0.00  0.00    -0.020 A 
ATOM     15  C   UNL     1      -1.264  -0.858   0.019  0.00  0.00    +0.143 C 
ATOM     16  N   UNL     1      -0.879  -2.239  -0.305  0.00  0.00    -0.295 N 
ATOM     17  C   UNL     1       0.278  -2.837   0.378  0.00  0.00    +0.113 C 
ATOM     18  C   UNL     1       1.537  -2.060  -0.036  0.00  0.00    +0.061 C 
ATOM     19  C   UNL     1      -1.577  -2.947  -1.215  0.00  0.00    +0.236 C 
ATOM     20  O   UNL     1      -1.251  -4.086  -1.476  0.00  0.00    -0.274 OA
ENDBRANCH   1  19
BRANCH   8  21
ATOM     21  C   UNL     1      -4.901  -6.603  -3.155  0.00  0.00    +0.074 C 
ATOM     22  C   UNL     1      -3.765  -7.628  -3.123  0.00  0.00    +0.022 C 
ATOM     23  C   UNL     1      -4.330  -9.004  -2.763  0.00  0.00    +0.002 C 
ATOM     24  C   UNL     1      -5.365  -9.421  -3.811  0.00  0.00    +0.000 C 
ATOM     25  C   UNL     1      -6.500  -8.395  -3.843  0.00  0.00    +0.002 C 
ATOM     26  C   UNL     1      -5.935  -7.020  -4.203  0.00  0.00    +0.022 C 
ENDBRANCH   8  21
TORSDOF 2
