REMARK  Name = ZINC00045412
REMARK  4 active torsions:
REMARK  status: ('A' for Active; 'I' for Inactive)
REMARK    1  A    between atoms: C_1  and  O_2
REMARK    2  A    between atoms: O_2  and  C_3
REMARK    3  A    between atoms: N_5  and  C_6
REMARK    4  A    between atoms: C_6  and  C_17
REMARK                            x       y       z     vdW  Elec       q    Type
REMARK                         _______ _______ _______ _____ _____    ______ ____
ROOT
ATOM      1  C   UNL     1      -0.733   1.888   1.268  0.00  0.00    +0.437 C 
ATOM      2  O   UNL     1      -0.665   3.324   1.359  0.00  0.00    -0.426 OA
ATOM      3  C   UNL     1      -0.577   3.600   2.693  0.00  0.00    +0.170 A 
ATOM      4  C   UNL     1      -0.795   4.769   3.405  0.00  0.00    +0.071 A 
ATOM      5  C   UNL     1      -0.634   4.784   4.779  0.00  0.00    +0.063 A 
ATOM      6  C   UNL     1      -0.255   3.631   5.446  0.00  0.00    +0.063 A 
ATOM      7  C   UNL     1      -0.037   2.461   4.741  0.00  0.00    +0.071 A 
ATOM      8  C   UNL     1      -0.196   2.441   3.365  0.00  0.00    +0.170 A 
ATOM      9  O   UNL     1      -0.046   1.438   2.451  0.00  0.00    -0.426 OA
ATOM     10 CL   UNL     1      -0.055   3.654   7.170  0.00  0.00    -0.082 Cl
ATOM     11 CL   UNL     1      -0.908   6.249   5.668  0.00  0.00    -0.082 Cl
ENDROOT
BRANCH   1  14
ATOM     12  C   UNL     1      -2.935   1.763   2.305  0.00  0.00    +0.406 C 
ATOM     13  O   UNL     1      -2.509   2.435   3.223  0.00  0.00    -0.226 OA
ATOM     14  N   UNL     1      -2.126   1.434   1.278  0.00  0.00    -0.201 N 
ATOM     15  H   UNL     1      -2.466   0.897   0.545  0.00  0.00    +0.160 HD
BRANCH  12  17
ATOM     16  C   UNL     1      -5.028   1.736   3.451  0.00  0.00    +0.282 C 
ATOM     17  O   UNL     1      -4.215   1.345   2.313  0.00  0.00    -0.454 OA
ENDBRANCH  12  17
ENDBRANCH   1  14
BRANCH   1  18
ATOM     18  C   UNL     1      -0.017   1.395   0.010  0.00  0.00    +0.491 C 
ATOM     19  F   UNL     1       0.002  -0.004   0.002  0.00  0.00    -0.162 F 
ATOM     20  F   UNL     1       1.296   1.879  -0.000  0.00  0.00    -0.162 F 
ATOM     21  F   UNL     1      -0.694   1.858  -1.124  0.00  0.00    -0.162 F 
ENDBRANCH   1  18
TORSDOF 3
