REMARK  Name = ZINC12959692
REMARK  2 active torsions:
REMARK  status: ('A' for Active; 'I' for Inactive)
REMARK    1  A    between atoms: C_4  and  C_7
REMARK    2  A    between atoms: N_19  and  C_20
REMARK                            x       y       z     vdW  Elec       q    Type
REMARK                         _______ _______ _______ _____ _____    ______ ____
ROOT
ATOM      1  C   UNL     1      -1.763   5.025   0.358  0.00  0.00    +0.155 C 
ATOM      2  C   UNL     1      -1.676   3.519   0.117  0.00  0.00    +0.116 C 
ATOM      3  C   UNL     1      -0.718   3.080   1.263  0.00  0.00    +0.161 C 
ATOM      4  C   UNL     1      -0.710   1.571   1.290  0.00  0.00    +0.035 C 
ATOM      5  C   UNL     1      -0.013   1.086   0.008  0.00  0.00    +0.010 C 
ATOM      6  C   UNL     1      -0.730   1.581  -1.247  0.00  0.00    +0.075 C 
ATOM      7  C   UNL     1      -1.012   3.074  -1.151  0.00  0.00    +0.141 C 
ATOM      8  O   UNL     1      -0.721   3.844  -2.035  0.00  0.00    -0.297 OA
ATOM      9  O   UNL     1      -1.248   3.797   2.369  0.00  0.00    -0.267 OA
ATOM     10  N   UNL     1      -1.516   5.155   1.832  0.00  0.00    -0.244 N 
ENDROOT
BRANCH   1  14
ATOM     11  C   UNL     1       1.262   7.076  -1.853  0.00  0.00    +0.000 A 
ATOM     12  C   UNL     1      -0.033   7.029  -2.333  0.00  0.00    +0.000 A 
ATOM     13  C   UNL     1      -1.012   6.365  -1.618  0.00  0.00    +0.006 A 
ATOM     14  C   UNL     1      -0.696   5.748  -0.422  0.00  0.00    -0.022 A 
ATOM     15  C   UNL     1       0.599   5.800   0.061  0.00  0.00    +0.006 A 
ATOM     16  C   UNL     1       1.579   6.459  -0.657  0.00  0.00    +0.000 A 
ENDBRANCH   1  14
BRANCH  10  17
ATOM     17  C   UNL     1      -2.619   5.734   2.464  0.00  0.00    +0.065 A 
ATOM     18  C   UNL     1      -3.096   6.968   2.040  0.00  0.00    +0.028 A 
ATOM     19  C   UNL     1      -4.190   7.536   2.664  0.00  0.00    +0.002 A 
ATOM     20  C   UNL     1      -4.803   6.882   3.717  0.00  0.00    +0.000 A 
ATOM     21  C   UNL     1      -4.328   5.656   4.145  0.00  0.00    +0.002 A 
ATOM     22  C   UNL     1      -3.238   5.080   3.522  0.00  0.00    +0.028 A 
ENDBRANCH  10  17
TORSDOF 2
