REMARK  Name = ZINC08136106
REMARK  6 active torsions:
REMARK  status: ('A' for Active; 'I' for Inactive)
REMARK    1  A    between atoms: C_1  and  S_2
REMARK    2  A    between atoms: S_2  and  C_3
REMARK    3  A    between atoms: C_9  and  C_11
REMARK    4  A    between atoms: C_11  and  O_12
REMARK    5  A    between atoms: O_12  and  C_13
REMARK    6  A    between atoms: C_13  and  C_15
REMARK                            x       y       z     vdW  Elec       q    Type
REMARK                         _______ _______ _______ _____ _____    ______ ____
ROOT
ATOM      1  C   UNL     1      -5.691   3.068   1.434  0.00  0.00    +0.346 C 
ATOM      2  O   UNL     1      -6.502   3.335   0.567  0.00  0.00    -0.244 OA
ENDROOT
BRANCH   1   3
ATOM      3  C   UNL     1      -5.642   3.865   2.659  0.00  0.00    +0.097 A 
ATOM      4  C   UNL     1      -6.427   4.952   3.025  0.00  0.00    +0.030 A 
ATOM      5  C   UNL     1      -6.216   5.562   4.232  0.00  0.00    +0.005 A 
ATOM      6  C   UNL     1      -5.194   5.023   5.029  0.00  0.00    +0.030 A 
ATOM      7  S   UNL     1      -4.562   3.686   4.073  0.00  0.00    -0.081 S 
ATOM      8  C   UNL     1      -4.861   5.562   6.341  0.00  0.00    +0.031 A 
ATOM      9  C   UNL     1      -3.709   5.243   7.044  0.00  0.00    +0.012 A 
ATOM     10  C   UNL     1      -3.479   5.822   8.277  0.00  0.00    +0.001 A 
ATOM     11  C   UNL     1      -4.394   6.716   8.807  0.00  0.00    +0.004 A 
ATOM     12  C   UNL     1      -5.549   7.035   8.119  0.00  0.00    +0.046 A 
ATOM     13  C   UNL     1      -5.804   6.462   6.886  0.00  0.00    +0.129 A 
ATOM     14  O   UNL     1      -6.947   6.723   6.211  0.00  0.00    -0.487 OA
ATOM     15  C   UNL     1      -6.976   6.763   4.785  0.00  0.00    +0.265 C 
ENDBRANCH   1   3
BRANCH   1  16
ATOM     16  O   UNL     1      -4.839   2.036   1.266  0.00  0.00    -0.454 OA
BRANCH  16  17
ATOM     17  C   UNL     1      -4.943   1.301   0.045  0.00  0.00    +0.288 C 
BRANCH  17  24
ATOM     18  C   UNL     1      -1.702  -0.454   0.016  0.00  0.00    +0.169 A 
ATOM     19  N   UNL     1      -2.046  -1.771   0.018  0.00  0.00    -0.302 N 
ATOM     20  H   UNL     1      -1.358  -2.454   0.011  0.00  0.00    +0.171 HD
ATOM     21  C   UNL     1      -3.350  -2.123   0.029  0.00  0.00    +0.252 A 
ATOM     22  O   UNL     1      -3.677  -3.298   0.031  0.00  0.00    -0.268 OA
ATOM     23  C   UNL     1      -4.323  -1.108   0.038  0.00  0.00    +0.097 A 
ATOM     24  C   UNL     1      -3.919   0.195   0.036  0.00  0.00    +0.087 A 
ATOM     25  N   UNL     1      -2.622   0.492   0.030  0.00  0.00    -0.225 NA
BRANCH  18  27
ATOM     26  C   UNL     1      -0.022   1.810   0.012  0.00  0.00    +0.093 C 
ATOM     27  S   UNL     1       0.002  -0.004   0.002  0.00  0.00    -0.091 S 
ENDBRANCH  18  27
ENDBRANCH  17  24
ENDBRANCH  16  17
ENDBRANCH   1  16
TORSDOF 5
