REMARK  Name = ZINC08380364
REMARK  2 active torsions:
REMARK  status: ('A' for Active; 'I' for Inactive)
REMARK    1  A    between atoms: C_5  and  N_7
REMARK    2  A    between atoms: C_18  and  C_20
REMARK                            x       y       z     vdW  Elec       q    Type
REMARK                         _______ _______ _______ _____ _____    ______ ____
ROOT
ATOM      1  N   UNL     1       3.607  -2.346  -2.842  0.00  0.00    -0.267 N 
ATOM      2  C   UNL     1       2.733  -1.861  -1.938  0.00  0.00    +0.307 C 
ATOM      3  O   UNL     1       2.399  -0.693  -1.981  0.00  0.00    -0.252 OA
ATOM      4  N   UNL     1       2.228  -2.671  -0.986  0.00  0.00    -0.271 N 
ATOM      5  C   UNL     1       2.693  -4.060  -0.849  0.00  0.00    +0.132 C 
ATOM      6  C   UNL     1       3.384  -4.230   0.508  0.00  0.00    +0.140 C 
ATOM      7  N   UNL     1       2.556  -3.616   1.553  0.00  0.00    -0.347 N 
ATOM      8  C   UNL     1       2.626  -3.847   2.892  0.00  0.00    +0.086 A 
ATOM      9  C   UNL     1       1.704  -3.074   3.503  0.00  0.00    +0.019 A 
ATOM     10  C   UNL     1       1.036  -2.340   2.501  0.00  0.00    +0.025 A 
ATOM     11  C   UNL     1       1.572  -2.694   1.323  0.00  0.00    +0.044 A 
ATOM     12  C   UNL     1       1.193  -2.191  -0.051  0.00  0.00    +0.155 C 
ATOM     13  H   UNL     1       3.817  -3.293  -2.853  0.00  0.00    +0.156 HD
ENDROOT
BRANCH   1  18
ATOM     14  C   UNL     1       4.110   0.459  -5.168  0.00  0.00    +0.002 A 
ATOM     15  C   UNL     1       5.406   0.223  -5.588  0.00  0.00    +0.003 A 
ATOM     16  C   UNL     1       6.107  -0.864  -5.101  0.00  0.00    +0.040 A 
ATOM     17  C   UNL     1       5.516  -1.716  -4.185  0.00  0.00    +0.145 A 
ATOM     18  C   UNL     1       4.211  -1.484  -3.765  0.00  0.00    +0.070 A 
ATOM     19  C   UNL     1       3.511  -0.391  -4.258  0.00  0.00    +0.026 A 
ATOM     20  F   UNL     1       6.203  -2.775  -3.704  0.00  0.00    -0.204 F 
ENDBRANCH   1  18
BRANCH  12  21
ATOM     21  C   UNL     1       1.155  -0.685  -0.055  0.00  0.00    -0.018 A 
ATOM     22  C   UNL     1       2.291   0.036   0.265  0.00  0.00    +0.006 A 
ATOM     23  C   UNL     1       2.257   1.418   0.261  0.00  0.00    +0.003 A 
ATOM     24  C   UNL     1       1.088   2.081  -0.062  0.00  0.00    +0.038 A 
ATOM     25  C   UNL     1      -0.049   1.360  -0.383  0.00  0.00    +0.124 A 
ATOM     26  C   UNL     1      -0.015  -0.024  -0.380  0.00  0.00    +0.044 A 
ATOM     27  F   UNL     1      -1.191   2.007  -0.705  0.00  0.00    -0.205 F 
ENDBRANCH  12  21
TORSDOF 2
