REMARK  Name = ZINC48687896
REMARK  8 active torsions:
REMARK  status: ('A' for Active; 'I' for Inactive)
REMARK    1  A    between atoms: C_1  and  C_2
REMARK    2  A    between atoms: C_5  and  N_8
REMARK    3  A    between atoms: C_9  and  C_20
REMARK    4  A    between atoms: C_10  and  C_13
REMARK    5  A    between atoms: N_15  and  C_16
REMARK    6  A    between atoms: C_16  and  C_17
REMARK    7  A    between atoms: C_16  and  C_18
REMARK    8  A    between atoms: C_16  and  C_19
REMARK                            x       y       z     vdW  Elec       q    Type
REMARK                         _______ _______ _______ _____ _____    ______ ____
ROOT
ATOM      1  N   UNL     1       0.059  -4.173  -0.021  0.00  0.00    -0.216 N 
ATOM      2  C   UNL     1       0.692  -4.975   0.863  0.00  0.00    +0.074 A 
ATOM      3  C   UNL     1       0.444  -6.261   0.476  0.00  0.00    +0.170 A 
ATOM      4  N   UNL     1      -0.327  -6.234  -0.624  0.00  0.00    -0.124 NA
ATOM      5  N   UNL     1      -0.580  -5.013  -0.944  0.00  0.00    -0.060 NA
ATOM      6  C   UNL     1       1.514  -4.535   2.047  0.00  0.00    +0.068 C 
ENDROOT
BRANCH   1  11
ATOM      7  C   UNL     1      -0.018   1.503   0.010  0.00  0.00    +0.044 C 
ATOM      8  C   UNL     1       0.002  -0.004   0.002  0.00  0.00    -0.050 A 
ATOM      9  C   UNL     1       0.006  -0.688  -1.200  0.00  0.00    +0.005 A 
ATOM     10  C   UNL     1       0.025  -2.068  -1.211  0.00  0.00    +0.028 A 
ATOM     11  C   UNL     1       0.041  -2.771  -0.013  0.00  0.00    +0.067 A 
ATOM     12  C   UNL     1       0.037  -2.082   1.192  0.00  0.00    +0.028 A 
ATOM     13  C   UNL     1       0.023  -0.700   1.196  0.00  0.00    +0.005 A 
ENDBRANCH   1  11
BRANCH   3  14
ATOM     14  C   UNL     1       0.939  -7.475   1.152  0.00  0.00    +0.266 C 
ATOM     15  O   UNL     1       1.634  -7.378   2.146  0.00  0.00    -0.268 OA
ATOM     16  N   UNL     1       0.622  -8.693   0.669  0.00  0.00    -0.305 N 
ATOM     17  H   UNL     1       0.068  -8.771  -0.124  0.00  0.00    +0.150 HD
BRANCH  16  18
ATOM     18  C   UNL     1       1.113  -9.898   1.340  0.00  0.00    +0.027 C 
ATOM     19  C   UNL     1       0.598  -9.927   2.780  0.00  0.00    +0.031 C 
ATOM     20  C   UNL     1       0.613 -11.137   0.595  0.00  0.00    +0.031 C 
ATOM     21  C   UNL     1       2.643  -9.891   1.346  0.00  0.00    +0.031 C 
ENDBRANCH  16  18
ENDBRANCH   3  14
TORSDOF 3
