REMARK  Name = ZINC58281171
REMARK  3 active torsions:
REMARK  status: ('A' for Active; 'I' for Inactive)
REMARK    1  A    between atoms: C_3  and  N_19
REMARK    2  A    between atoms: C_6  and  N_7
REMARK    3  A    between atoms: N_10  and  C_11
REMARK                            x       y       z     vdW  Elec       q    Type
REMARK                         _______ _______ _______ _____ _____    ______ ____
ROOT
ATOM      1  N   UNL     1      -1.202  -0.721   0.010  0.00  0.00    -0.269 N 
ATOM      2  C   UNL     1      -1.260  -1.967  -0.500  0.00  0.00    +0.304 C 
ATOM      3  O   UNL     1      -0.246  -2.513  -0.889  0.00  0.00    -0.253 OA
ATOM      4  N   UNL     1      -2.443  -2.608  -0.580  0.00  0.00    -0.295 N 
ATOM      5  H   UNL     1      -1.999  -0.311   0.381  0.00  0.00    +0.156 HD
ATOM      6  H   UNL     1      -3.253  -2.172  -0.269  0.00  0.00    +0.151 HD
ENDROOT
BRANCH   4   7
ATOM      7  C   UNL     1      -2.507  -3.962  -1.134  0.00  0.00    +0.097 C 
ATOM      8  C   UNL     1      -2.648  -3.891  -2.664  0.00  0.00    +0.046 C 
ATOM      9  C   UNL     1      -3.035  -5.281  -3.223  0.00  0.00    +0.168 C 
ATOM     10  S   UNL     1      -3.944  -6.044  -1.817  0.00  0.00    -0.029 S 
ATOM     11  O   UNL     1      -3.233  -7.193  -1.377  0.00  0.00    -0.174 OA
ATOM     12  O   UNL     1      -5.317  -6.161  -2.163  0.00  0.00    -0.174 OA
ATOM     13  C   UNL     1      -3.751  -4.704  -0.567  0.00  0.00    +0.188 C 
ENDBRANCH   4   7
BRANCH   1  19
ATOM     14  C   UNL     1       0.016   1.355  -0.200  0.00  0.00    +0.025 A 
ATOM     15  C   UNL     1       1.210   2.047  -0.204  0.00  0.00    +0.025 A 
ATOM     16  C   UNL     1       2.406   1.370  -0.003  0.00  0.00    +0.036 A 
ATOM     17  C   UNL     1       2.401  -0.003   0.203  0.00  0.00    +0.025 A 
ATOM     18  C   UNL     1       1.206  -0.695   0.207  0.00  0.00    +0.025 A 
ATOM     19  C   UNL     1       0.011  -0.018   0.005  0.00  0.00    +0.035 A 
BRANCH  16  20
ATOM     20  N   UNL     1       3.618   2.073  -0.008  0.00  0.00    -0.271 N 
ATOM     21  C   UNL     1       4.922   1.477   0.307  0.00  0.00    +0.114 C 
ATOM     22  C   UNL     1       5.972   2.470  -0.240  0.00  0.00    +0.029 C 
ATOM     23  C   UNL     1       5.187   3.802  -0.218  0.00  0.00    +0.098 C 
ATOM     24  C   UNL     1       3.737   3.378  -0.307  0.00  0.00    +0.220 C 
ATOM     25  O   UNL     1       2.816   4.110  -0.602  0.00  0.00    -0.275 OA
ENDBRANCH  16  20
ENDBRANCH   1  19
TORSDOF 3
