REMARK  Name = ZINC39505976
REMARK  4 active torsions:
REMARK  status: ('A' for Active; 'I' for Inactive)
REMARK    1  A    between atoms: C_1  and  O_2
REMARK    2  A    between atoms: O_2  and  C_3
REMARK    3  A    between atoms: C_9  and  C_12
REMARK    4  A    between atoms: C_17  and  O_18
REMARK                            x       y       z     vdW  Elec       q    Type
REMARK                         _______ _______ _______ _____ _____    ______ ____
ROOT
ATOM      1  C   UNL     1       0.652  -0.570  -1.138  0.00  0.00    +0.135 C 
ATOM      2  C   UNL     1       0.091  -1.984  -1.452  0.00  0.00    +0.056 C 
ATOM      3  C   UNL     1       1.271  -2.670  -2.160  0.00  0.00    +0.040 C 
ATOM      4  C   UNL     1       1.343  -4.149  -1.764  0.00  0.00    +0.024 C 
ATOM      5  C   UNL     1       1.189  -4.959  -3.070  0.00  0.00    +0.010 C 
ATOM      6  C   UNL     1       0.450  -3.994  -4.031  0.00  0.00    +0.024 C 
ATOM      7  C   UNL     1       1.075  -2.618  -3.684  0.00  0.00    +0.032 C 
ATOM      8  N   UNL     1       2.500  -1.965  -1.774  0.00  0.00    -0.211 NA
ATOM      9  C   UNL     1       2.139  -0.882  -0.831  0.00  0.00    +0.134 C 
ATOM     10 CL   UNL     1       3.627  -3.040  -1.069  0.00  0.00    -0.020 Cl
ENDROOT
BRANCH   6  11
ATOM     11  C   UNL     1       0.720  -4.361  -5.467  0.00  0.00    -0.003 A 
ATOM     12  C   UNL     1       2.017  -4.390  -5.941  0.00  0.00    +0.007 A 
ATOM     13  C   UNL     1       2.265  -4.726  -7.259  0.00  0.00    +0.001 A 
ATOM     14  C   UNL     1       1.216  -5.033  -8.106  0.00  0.00    +0.004 A 
ATOM     15  C   UNL     1      -0.083  -5.006  -7.637  0.00  0.00    +0.046 A 
ATOM     16  C   UNL     1      -0.334  -4.674  -6.313  0.00  0.00    +0.120 A 
BRANCH  16  17
ATOM     17  O   UNL     1      -1.610  -4.652  -5.847  0.00  0.00    -0.506 OA
ATOM     18  H   UNL     1      -2.049  -3.795  -5.942  0.00  0.00    +0.292 HD
ENDBRANCH  16  17
ENDBRANCH   6  11
BRANCH   1  20
ATOM     19  C   UNL     1      -0.017   1.425   0.010  0.00  0.00    +0.194 C 
ATOM     20  O   UNL     1       0.002  -0.004   0.002  0.00  0.00    -0.378 OA
ENDBRANCH   1  20
TORSDOF 3
