REMARK  Name = ZINC37929378
REMARK  5 active torsions:
REMARK  status: ('A' for Active; 'I' for Inactive)
REMARK    1  A    between atoms: C_1  and  C_2
REMARK    2  A    between atoms: C_2  and  C_3
REMARK    3  A    between atoms: N_9  and  S_10
REMARK    4  A    between atoms: S_10  and  C_13
REMARK    5  A    between atoms: C_18  and  N_19
REMARK                            x       y       z     vdW  Elec       q    Type
REMARK                         _______ _______ _______ _____ _____    ______ ____
ROOT
ATOM      1  S   UNL     1      -1.306   0.651  -2.428  0.00  0.00    +0.063 S 
ATOM      2  O   UNL     1      -0.034   0.054  -2.635  0.00  0.00    -0.153 OA
ATOM      3  O   UNL     1      -2.200   0.931  -3.497  0.00  0.00    -0.153 OA
ENDROOT
BRANCH   1   4
ATOM      4  C   UNL     1      -1.017   2.180  -1.601  0.00  0.00    +0.127 A 
ATOM      5  C   UNL     1       0.274   2.571  -1.302  0.00  0.00    +0.050 A 
ATOM      6  C   UNL     1       0.502   3.771  -0.653  0.00  0.00    +0.043 A 
ATOM      7  C   UNL     1      -0.562   4.584  -0.302  0.00  0.00    +0.022 A 
ATOM      8  C   UNL     1      -1.854   4.199  -0.599  0.00  0.00    +0.026 A 
ATOM      9  C   UNL     1      -2.086   2.997  -1.256  0.00  0.00    +0.051 A 
ATOM     10 CL   UNL     1       2.125   4.259  -0.278  0.00  0.00    -0.083 Cl
BRANCH   9  11
ATOM     11  N   UNL     1      -3.392   2.607  -1.563  0.00  0.00    -0.356 N 
ATOM     12  H   UNL     1      -3.560   1.734  -1.950  0.00  0.00    +0.142 HD
ATOM     13  H   UNL     1      -4.132   3.211  -1.389  0.00  0.00    +0.142 HD
ENDBRANCH   9  11
ENDBRANCH   1   4
BRANCH   1  19
ATOM     14  C   UNL     1      -1.421  -0.975  -0.255  0.00  0.00    +0.080 C 
ATOM     15  C   UNL     1      -1.692  -2.482  -0.305  0.00  0.00    +0.021 C 
ATOM     16  C   UNL     1      -3.203  -2.725  -0.322  0.00  0.00    +0.003 C 
ATOM     17  C   UNL     1      -3.809  -2.084  -1.573  0.00  0.00    +0.017 C 
ATOM     18  C   UNL     1      -3.563  -0.572  -1.537  0.00  0.00    +0.110 C 
ATOM     19  N   UNL     1      -2.123  -0.329  -1.373  0.00  0.00    -0.173 NA
BRANCH  14  21
ATOM     20  C   UNL     1       0.793  -1.250   0.870  0.00  0.00    +0.005 C 
ATOM     21  C   UNL     1       0.082  -0.720  -0.378  0.00  0.00    +0.017 C 
ENDBRANCH  14  21
ENDBRANCH   1  19
TORSDOF 4
