REMARK  Name = ZINC43427565
REMARK  1 active torsions:
REMARK  status: ('A' for Active; 'I' for Inactive)
REMARK    1  A    between atoms: C_9  and  C_12
REMARK                            x       y       z     vdW  Elec       q    Type
REMARK                         _______ _______ _______ _____ _____    ______ ____
ROOT
ATOM      1  C   UNL     1      -0.012   1.384   0.025  0.00  0.00    +0.002 A 
ATOM      2  C   UNL     1       1.175   2.092   0.012  0.00  0.00    +0.004 A 
ATOM      3  C   UNL     1       2.385   1.423  -0.008  0.00  0.00    +0.047 A 
ATOM      4  C   UNL     1       2.412   0.036  -0.016  0.00  0.00    +0.142 A 
ATOM      5  C   UNL     1       1.215  -0.674  -0.001  0.00  0.00    +0.070 A 
ATOM      6  C   UNL     1       0.005   0.002   0.018  0.00  0.00    +0.026 A 
ATOM      7  N   UNL     1       1.238  -2.077  -0.001  0.00  0.00    -0.337 N 
ATOM      8  C   UNL     1       2.510  -2.742  -0.330  0.00  0.00    +0.155 C 
ATOM      9  C   UNL     1       3.632  -1.976   0.388  0.00  0.00    +0.276 C 
ATOM     10  O   UNL     1       3.606  -0.613  -0.041  0.00  0.00    -0.476 OA
ATOM     11  H   UNL     1       0.443  -2.592   0.209  0.00  0.00    +0.146 HD
ENDROOT
BRANCH   9  12
ATOM     12  C   UNL     1       4.963  -2.592   0.044  0.00  0.00    +0.258 C 
ATOM     13  O   UNL     1       5.782  -1.955  -0.585  0.00  0.00    -0.271 OA
ATOM     14  N   UNL     1       5.245  -3.851   0.435  0.00  0.00    -0.291 N 
ATOM     15  C   UNL     1       4.330  -4.647   1.286  0.00  0.00    +0.136 C 
ATOM     16  C   UNL     1       5.091  -5.283   2.448  0.00  0.00    +0.179 C 
ATOM     17  O   UNL     1       6.328  -5.881   2.017  0.00  0.00    -0.373 OA
ATOM     18  C   UNL     1       7.162  -4.931   1.391  0.00  0.00    +0.139 C 
ATOM     19  C   UNL     1       6.470  -4.538   0.049  0.00  0.00    +0.105 C 
ATOM     20  C   UNL     1       7.541  -3.726  -0.666  0.00  0.00    +0.025 C 
ATOM     21  C   UNL     1       8.891  -4.311  -0.176  0.00  0.00    +0.004 C 
ATOM     22  C   UNL     1       8.540  -5.378   0.908  0.00  0.00    +0.033 C 
ENDBRANCH   9  12
TORSDOF 1
