REMARK  Name = ZINC66162760
REMARK  7 active torsions:
REMARK  status: ('A' for Active; 'I' for Inactive)
REMARK    1  A    between atoms: C_1  and  C_2
REMARK    2  A    between atoms: C_2  and  C_3
REMARK    3  A    between atoms: C_2  and  O_4
REMARK    4  A    between atoms: O_4  and  C_5
REMARK    5  A    between atoms: C_5  and  C_7
REMARK    6  A    between atoms: C_11  and  N_13
REMARK    7  A    between atoms: N_16  and  C_17
REMARK                            x       y       z     vdW  Elec       q    Type
REMARK                         _______ _______ _______ _____ _____    ______ ____
ROOT
ATOM      1  N   UNL     1      -4.662  -5.248  -1.887  0.00  0.00    -0.268 N 
ATOM      2  C   UNL     1      -3.973  -5.587  -2.995  0.00  0.00    +0.305 C 
ATOM      3  O   UNL     1      -3.083  -4.864  -3.401  0.00  0.00    -0.252 OA
ATOM      4  N   UNL     1      -4.268  -6.726  -3.651  0.00  0.00    -0.288 N 
ATOM      5  H   UNL     1      -5.327  -5.855  -1.526  0.00  0.00    +0.156 HD
ATOM      6  H   UNL     1      -4.978  -7.302  -3.326  0.00  0.00    +0.151 HD
ENDROOT
BRANCH   4   7
ATOM      7  C   UNL     1      -3.518  -7.094  -4.854  0.00  0.00    +0.160 C 
ATOM      8  C   UNL     1      -3.570  -8.613  -5.041  0.00  0.00    +0.033 C 
ATOM      9  C   UNL     1      -3.024  -8.948  -6.434  0.00  0.00    +0.021 C 
ATOM     10  C   UNL     1      -3.999  -8.413  -7.484  0.00  0.00    +0.104 C 
ATOM     11  N   UNL     1      -4.312  -7.013  -7.223  0.00  0.00    -0.314 N 
ATOM     12  C   UNL     1      -4.125  -6.413  -6.048  0.00  0.00    +0.233 C 
ATOM     13  O   UNL     1      -4.463  -5.254  -5.937  0.00  0.00    -0.274 OA
ATOM     14  H   UNL     1      -4.679  -6.486  -7.949  0.00  0.00    +0.149 HD
ENDBRANCH   4   7
BRANCH   1  19
ATOM     15  C   UNL     1      -2.901  -2.271  -0.609  0.00  0.00    +0.061 A 
ATOM     16  C   UNL     1      -3.959  -1.583  -0.009  0.00  0.00    +0.016 A 
ATOM     17  C   UNL     1      -5.231  -2.113  -0.038  0.00  0.00    +0.022 A 
ATOM     18  C   UNL     1      -5.466  -3.327  -0.660  0.00  0.00    +0.062 A 
ATOM     19  C   UNL     1      -4.420  -4.020  -1.260  0.00  0.00    +0.054 A 
ATOM     20  C   UNL     1      -3.139  -3.493  -1.240  0.00  0.00    +0.039 A 
ATOM     21 CL   UNL     1      -7.071  -3.987  -0.690  0.00  0.00    -0.082 Cl
BRANCH  15  22
ATOM     22  C   UNL     1      -1.538  -1.705  -0.580  0.00  0.00    +0.339 C 
ATOM     23  O   UNL     1      -0.621  -2.303  -1.106  0.00  0.00    -0.245 OA
BRANCH  22  24
ATOM     24  O   UNL     1      -1.311  -0.526   0.030  0.00  0.00    -0.458 OA
BRANCH  24  26
ATOM     25  C   UNL     1       0.019   1.492   0.037  0.00  0.00    +0.052 C 
ATOM     26  C   UNL     1       0.032  -0.038   0.020  0.00  0.00    +0.171 C 
ATOM     27  C   UNL     1       0.772  -0.555   1.256  0.00  0.00    +0.052 C 
ENDBRANCH  24  26
ENDBRANCH  22  24
ENDBRANCH  15  22
ENDBRANCH   1  19
TORSDOF 5
