REMARK  Name = ZINC03595846
REMARK  4 active torsions:
REMARK  status: ('A' for Active; 'I' for Inactive)
REMARK    1  A    between atoms: C_1  and  C_2
REMARK    2  A    between atoms: N_11  and  C_15
REMARK    3  A    between atoms: C_15  and  C_16
REMARK    4  A    between atoms: N_18  and  C_19
REMARK                            x       y       z     vdW  Elec       q    Type
REMARK                         _______ _______ _______ _____ _____    ______ ____
ROOT
ATOM      1  C   UNL     1      -1.170   2.120   2.514  0.00  0.00    +0.010 C 
ATOM      2  C   UNL     1      -2.050   1.908   1.281  0.00  0.00    +0.018 C 
ATOM      3  C   UNL     1      -2.594   0.476   1.282  0.00  0.00    +0.006 C 
ATOM      4  C   UNL     1      -3.457   0.259   0.037  0.00  0.00    +0.000 C 
ATOM      5  C   UNL     1      -2.609   0.472  -1.218  0.00  0.00    +0.003 C 
ATOM      6  C   UNL     1      -2.066   1.903  -1.228  0.00  0.00    +0.035 C 
ATOM      7  C   UNL     1      -1.223   2.137   0.021  0.00  0.00    +0.115 C 
ATOM      8  C   UNL     1      -0.011   1.234   0.015  0.00  0.00    +0.247 C 
ATOM      9  O   UNL     1       0.002   0.022   0.017  0.00  0.00    -0.273 OA
ATOM     10  N   UNL     1       1.055   2.062   0.002  0.00  0.00    -0.215 N 
ATOM     11  C   UNL     1       0.681   3.347   0.004  0.00  0.00    +0.310 C 
ATOM     12  O   UNL     1       1.462   4.279  -0.007  0.00  0.00    -0.252 OA
ATOM     13  N   UNL     1      -0.658   3.493   0.018  0.00  0.00    -0.285 N 
ATOM     14  H   UNL     1      -1.152   4.328   0.022  0.00  0.00    +0.151 HD
ENDROOT
BRANCH  10  15
ATOM     15  C   UNL     1       2.448   1.610  -0.013  0.00  0.00    +0.214 C 
BRANCH  15  16
ATOM     16  C   UNL     1       2.910   1.453  -1.439  0.00  0.00    +0.235 C 
ATOM     17  O   UNL     1       2.150   1.695  -2.353  0.00  0.00    -0.274 OA
ATOM     18  N   UNL     1       4.168   1.044  -1.699  0.00  0.00    -0.283 N 
ATOM     19  H   UNL     1       4.795   0.913  -0.971  0.00  0.00    +0.155 HD
BRANCH  18  20
ATOM     20  C   UNL     1       4.568   0.808  -3.020  0.00  0.00    +0.053 A 
ATOM     21  C   UNL     1       4.066   1.592  -4.050  0.00  0.00    +0.044 A 
ATOM     22  C   UNL     1       4.468   1.359  -5.352  0.00  0.00    +0.043 A 
ATOM     23  C   UNL     1       5.361   0.339  -5.630  0.00  0.00    +0.021 A 
ATOM     24  C   UNL     1       5.858  -0.447  -4.608  0.00  0.00    +0.023 A 
ATOM     25  C   UNL     1       5.464  -0.216  -3.303  0.00  0.00    +0.062 A 
ATOM     26 CL   UNL     1       6.090  -1.203  -2.019  0.00  0.00    -0.082 Cl
ATOM     27 CL   UNL     1       3.846   2.344  -6.639  0.00  0.00    -0.083 Cl
ENDBRANCH  18  20
ENDBRANCH  15  16
ENDBRANCH  10  15
TORSDOF 3
