REMARK  Name = ZINC40943806
REMARK  8 active torsions:
REMARK  status: ('A' for Active; 'I' for Inactive)
REMARK    1  A    between atoms: C_1  and  C_2
REMARK    2  A    between atoms: C_2  and  C_3
REMARK    3  A    between atoms: C_8  and  O_9
REMARK    4  A    between atoms: O_9  and  C_10
REMARK    5  A    between atoms: C_10  and  C_11
REMARK    6  A    between atoms: N_13  and  C_14
REMARK    7  A    between atoms: C_16  and  N_21
REMARK    8  A    between atoms: C_19  and  C_20
REMARK                            x       y       z     vdW  Elec       q    Type
REMARK                         _______ _______ _______ _____ _____    ______ ____
ROOT
ATOM      1  C   UNL     1      -1.489  -0.066  -4.739  0.00  0.00    +0.255 C 
ATOM      2  O   UNL     1      -0.352   0.330  -4.591  0.00  0.00    -0.272 OA
ATOM      3  N   UNL     1      -2.021  -0.139  -5.974  0.00  0.00    -0.282 N 
ATOM      4  H   UNL     1      -2.900  -0.530  -6.101  0.00  0.00    +0.155 HD
ENDROOT
BRANCH   3   5
ATOM      5  C   UNL     1      -1.307   0.348  -7.074  0.00  0.00    +0.039 A 
ATOM      6  C   UNL     1      -0.344   1.333  -6.897  0.00  0.00    +0.056 A 
ATOM      7  C   UNL     1       0.359   1.813  -7.984  0.00  0.00    +0.128 A 
ATOM      8  C   UNL     1       0.105   1.313  -9.249  0.00  0.00    +0.033 A 
ATOM      9  C   UNL     1      -0.853   0.333  -9.429  0.00  0.00    +0.007 A 
ATOM     10  C   UNL     1      -1.556  -0.155  -8.344  0.00  0.00    -0.029 A 
ATOM     11  C   UNL     1      -2.595  -1.228  -8.540  0.00  0.00    +0.045 C 
BRANCH   7  12
ATOM     12  N   UNL     1       1.386   2.863  -7.797  0.00  0.00    +0.056 N 
ATOM     13  O   UNL     1       1.608   3.300  -6.692  0.00  0.00    -0.126 OA
ATOM     14  O   UNL     1       2.002   3.283  -8.748  0.00  0.00    -0.126 OA
ENDBRANCH   7  12
ENDBRANCH   3   5
BRANCH   1  15
ATOM     15  C   UNL     1      -2.305  -0.476  -3.540  0.00  0.00    +0.324 C 
BRANCH  15  16
ATOM     16  O   UNL     1      -1.527  -0.309  -2.353  0.00  0.00    -0.482 OA
BRANCH  16  22
ATOM     17  C   UNL     1      -1.423  -0.499   0.015  0.00  0.00    -0.005 A 
ATOM     18  C   UNL     1      -2.030  -0.828   1.212  0.00  0.00    +0.022 A 
ATOM     19  C   UNL     1      -3.330  -1.298   1.223  0.00  0.00    +0.018 A 
ATOM     20  C   UNL     1      -4.026  -1.442   0.036  0.00  0.00    +0.019 A 
ATOM     21  C   UNL     1      -3.423  -1.114  -1.163  0.00  0.00    +0.047 A 
ATOM     22  C   UNL     1      -2.121  -0.637  -1.175  0.00  0.00    +0.124 A 
ATOM     23 BR   UNL     1      -4.158  -1.748   2.863  0.00  0.00    -0.050 Br
BRANCH  17  25
ATOM     24  C   UNL     1      -0.017   1.544   0.005  0.00  0.00    +0.009 C 
ATOM     25  C   UNL     1      -0.006   0.014   0.004  0.00  0.00    +0.035 C 
ENDBRANCH  17  25
ENDBRANCH  16  22
ENDBRANCH  15  16
ENDBRANCH   1  15
TORSDOF 6
