REMARK  Name = ZINC08509824
REMARK  6 active torsions:
REMARK  status: ('A' for Active; 'I' for Inactive)
REMARK    1  A    between atoms: C_1  and  C_2
REMARK    2  A    between atoms: C_7  and  C_8
REMARK    3  A    between atoms: C_11  and  S_21
REMARK    4  A    between atoms: N_12  and  N_13
REMARK    5  A    between atoms: C_14  and  C_15
REMARK    6  A    between atoms: C_18  and  C_20
REMARK                            x       y       z     vdW  Elec       q    Type
REMARK                         _______ _______ _______ _____ _____    ______ ____
ROOT
ATOM      1  C   UNL     1       1.250  -2.160  -0.022  0.00  0.00    +0.186 A 
ATOM      2  N   UNL     1       2.321  -2.921  -0.036  0.00  0.00    -0.126 NA
ATOM      3  N   UNL     1       1.980  -4.160  -0.040  0.00  0.00    -0.121 NA
ATOM      4  C   UNL     1       0.669  -4.268  -0.029  0.00  0.00    +0.209 A 
ATOM      5  N   UNL     1       0.158  -2.999  -0.011  0.00  0.00    -0.187 N 
ENDROOT
BRANCH   1  12
ATOM      6  C   UNL     1       3.738  -0.683  -0.037  0.00  0.00    +0.044 C 
ATOM      7  C   UNL     1       2.416   0.041  -0.021  0.00  0.00    -0.040 A 
ATOM      8  C   UNL     1       2.383   1.420  -0.013  0.00  0.00    +0.004 A 
ATOM      9  C   UNL     1       1.170   2.086   0.002  0.00  0.00    +0.000 A 
ATOM     10  C   UNL     1      -0.017   1.375   0.010  0.00  0.00    +0.001 A 
ATOM     11  C   UNL     1       0.002  -0.004   0.002  0.00  0.00    +0.012 A 
ATOM     12  C   UNL     1       1.222  -0.682  -0.013  0.00  0.00    +0.024 A 
ENDBRANCH   1  12
BRANCH   5  13
ATOM     13  N   UNL     1      -1.193  -2.631   0.010  0.00  0.00    -0.169 NA
ATOM     14  C   UNL     1      -1.836  -2.454  -1.104  0.00  0.00    +0.161 C 
BRANCH  14  15
ATOM     15  C   UNL     1      -3.257  -2.066  -1.082  0.00  0.00    +0.091 A 
ATOM     16  C   UNL     1      -3.958  -1.868  -2.247  0.00  0.00    +0.076 A 
ATOM     17  S   UNL     1      -5.564  -1.436  -1.594  0.00  0.00    -0.080 S 
ATOM     18  C   UNL     1      -5.165  -1.547   0.092  0.00  0.00    +0.076 A 
ATOM     19  N   UNL     1      -3.902  -1.892   0.064  0.00  0.00    -0.243 NA
ATOM     20  C   UNL     1      -6.050  -1.308   1.288  0.00  0.00    +0.073 C 
ENDBRANCH  14  15
ENDBRANCH   5  13
BRANCH   4  21
ATOM     21  S   UNL     1      -0.256  -5.768  -0.029  0.00  0.00    -0.102 S 
ATOM     22  H   UNL     1      -0.372  -5.984   1.360  0.00  0.00    +0.110 HD
ENDBRANCH   4  21
TORSDOF 4
