REMARK  Name = ZINC16789056
REMARK  8 active torsions:
REMARK  status: ('A' for Active; 'I' for Inactive)
REMARK    1  A    between atoms: C_1  and  C_2
REMARK    2  A    between atoms: C_3  and  C_7
REMARK    3  A    between atoms: C_10  and  S_13
REMARK    4  A    between atoms: N_11  and  N_12
REMARK    5  A    between atoms: S_13  and  C_14
REMARK    6  A    between atoms: C_14  and  C_16
REMARK    7  A    between atoms: C_14  and  C_17
REMARK    8  A    between atoms: N_19  and  C_20
REMARK                            x       y       z     vdW  Elec       q    Type
REMARK                         _______ _______ _______ _____ _____    ______ ____
ROOT
ATOM      1  S   UNL     1      -5.018   3.202   0.071  0.00  0.00    -0.072 S 
ENDROOT
BRANCH   1   5
ATOM      2  C   UNL     1      -1.202   2.359   0.078  0.00  0.00    +0.185 A 
ATOM      3  N   UNL     1      -1.208   3.671   0.086  0.00  0.00    -0.127 NA
ATOM      4  N   UNL     1      -2.418   4.105   0.079  0.00  0.00    -0.121 NA
ATOM      5  C   UNL     1      -3.259   3.097   0.075  0.00  0.00    +0.209 A 
ATOM      6  N   UNL     1      -2.515   1.950   0.075  0.00  0.00    -0.224 N 
BRANCH   2   9
ATOM      7  C   UNL     1       1.789   3.299   0.077  0.00  0.00    +0.087 C 
ATOM      8  C   UNL     1       1.295   1.875   0.076  0.00  0.00    +0.112 A 
ATOM      9  C   UNL     1      -0.009   1.485   0.079  0.00  0.00    +0.061 A 
ATOM     10  C   UNL     1       0.015   0.017   0.076  0.00  0.00    +0.053 A 
ATOM     11  C   UNL     1       1.312  -0.333   0.072  0.00  0.00    +0.196 A 
ATOM     12  O   UNL     1       2.065   0.778   0.073  0.00  0.00    -0.467 OA
ENDBRANCH   2   9
BRANCH   6  13
ATOM     13  N   UNL     1      -2.979   0.665   0.071  0.00  0.00    -0.295 N 
ATOM     14  H   UNL     1      -3.103   0.323   1.012  0.00  0.00    +0.163 HD
ATOM     15  H   UNL     1      -3.836   0.591  -0.457  0.00  0.00    +0.163 HD
ENDBRANCH   6  13
ENDBRANCH   1   5
BRANCH   1  16
ATOM     16  C   UNL     1      -5.224   5.000   0.075  0.00  0.00    +0.137 C 
ATOM     17  C   UNL     1      -4.680   5.574   1.385  0.00  0.00    +0.029 C 
BRANCH  16  18
ATOM     18  C   UNL     1      -6.688   5.338  -0.051  0.00  0.00    +0.230 C 
ATOM     19  O   UNL     1      -7.527   4.541   0.309  0.00  0.00    -0.274 OA
ATOM     20  N   UNL     1      -7.063   6.526  -0.566  0.00  0.00    -0.282 N 
ATOM     21  H   UNL     1      -6.393   7.189  -0.794  0.00  0.00    +0.155 HD
BRANCH  20  22
ATOM     22  C   UNL     1      -8.422   6.803  -0.770  0.00  0.00    +0.069 A 
ATOM     23  C   UNL     1      -9.373   6.307   0.111  0.00  0.00    +0.029 A 
ATOM     24  C   UNL     1     -10.711   6.581  -0.092  0.00  0.00    +0.040 A 
ATOM     25  C   UNL     1     -11.106   7.350  -1.174  0.00  0.00    +0.126 A 
ATOM     26  C   UNL     1     -10.161   7.846  -2.055  0.00  0.00    +0.078 A 
ATOM     27  C   UNL     1      -8.819   7.580  -1.853  0.00  0.00    +0.147 A 
ATOM     28  F   UNL     1      -7.895   8.069  -2.709  0.00  0.00    -0.203 F 
ATOM     29  F   UNL     1     -12.416   7.616  -1.369  0.00  0.00    -0.205 F 
ENDBRANCH  20  22
ENDBRANCH  16  18
ENDBRANCH   1  16
TORSDOF 6
