REMARK  Name = ZINC04483483
REMARK  3 active torsions:
REMARK  status: ('A' for Active; 'I' for Inactive)
REMARK    1  A    between atoms: C_6  and  C_7
REMARK    2  A    between atoms: C_7  and  N_8
REMARK    3  A    between atoms: N_15  and  C_18
REMARK                            x       y       z     vdW  Elec       q    Type
REMARK                         _______ _______ _______ _____ _____    ______ ____
ROOT
ATOM      1  N   UNL     1      -1.674  -1.063  -1.411  0.00  0.00    -0.219 N 
ATOM      2  C   UNL     1      -1.294  -2.321  -2.080  0.00  0.00    +0.216 C 
ATOM      3  C   UNL     1      -1.942  -2.155  -3.481  0.00  0.00    +0.246 C 
ATOM      4  C   UNL     1      -0.749  -2.075  -4.409  0.00  0.00    +0.255 C 
ATOM      5  O   UNL     1      -0.806  -1.947  -5.613  0.00  0.00    -0.272 OA
ATOM      6  N   UNL     1       0.377  -2.168  -3.693  0.00  0.00    -0.207 N 
ATOM      7  C   UNL     1       0.192  -2.316  -2.356  0.00  0.00    +0.251 C 
ATOM      8  O   UNL     1       1.061  -2.424  -1.518  0.00  0.00    -0.273 OA
ATOM      9  N   UNL     1      -2.613  -0.851  -3.403  0.00  0.00    -0.156 NA
ATOM     10  N   UNL     1      -2.435  -0.320  -2.312  0.00  0.00    -0.082 NA
ENDROOT
BRANCH   6  11
ATOM     11  C   UNL     1       1.652  -2.124  -4.276  0.00  0.00    +0.044 A 
ATOM     12  C   UNL     1       2.109  -0.951  -4.861  0.00  0.00    +0.027 A 
ATOM     13  C   UNL     1       3.364  -0.910  -5.435  0.00  0.00    +0.040 A 
ATOM     14  C   UNL     1       4.168  -2.038  -5.427  0.00  0.00    +0.124 A 
ATOM     15  C   UNL     1       3.714  -3.209  -4.843  0.00  0.00    +0.040 A 
ATOM     16  C   UNL     1       2.461  -3.252  -4.263  0.00  0.00    +0.027 A 
ATOM     17  F   UNL     1       5.396  -1.996  -5.989  0.00  0.00    -0.205 F 
ENDBRANCH   6  11
BRANCH   1  18
ATOM     18  C   UNL     1      -1.321  -0.669  -0.044  0.00  0.00    +0.163 C 
BRANCH  18  24
ATOM     19  C   UNL     1      -2.233  -2.494   1.406  0.00  0.00    +0.008 A 
ATOM     20  C   UNL     1      -3.176  -2.989   2.286  0.00  0.00    +0.038 A 
ATOM     21  C   UNL     1      -4.242  -2.195   2.676  0.00  0.00    +0.123 A 
ATOM     22  C   UNL     1      -4.359  -0.906   2.184  0.00  0.00    +0.038 A 
ATOM     23  C   UNL     1      -3.414  -0.414   1.304  0.00  0.00    +0.008 A 
ATOM     24  C   UNL     1      -2.351  -1.208   0.915  0.00  0.00    -0.028 A 
ATOM     25  F   UNL     1      -5.165  -2.678   3.536  0.00  0.00    -0.205 F 
ENDBRANCH  18  24
ENDBRANCH   1  18
TORSDOF 3
