REMARK  Name = ZINC39876540
REMARK  4 active torsions:
REMARK  status: ('A' for Active; 'I' for Inactive)
REMARK    1  A    between atoms: C_1  and  O_2
REMARK    2  A    between atoms: O_2  and  C_3
REMARK    3  A    between atoms: C_6  and  C_9
REMARK    4  A    between atoms: N_24  and  C_25
REMARK                            x       y       z     vdW  Elec       q    Type
REMARK                         _______ _______ _______ _____ _____    ______ ____
ROOT
ATOM      1  C   UNL     1       2.587  -2.550   4.310  0.00  0.00    +0.150 C 
ATOM      2  C   UNL     1       1.578  -3.079   5.277  0.00  0.00    +0.072 A 
ATOM      3  C   UNL     1       0.559  -2.396   6.080  0.00  0.00    +0.199 A 
ATOM      4  O   UNL     1       0.269  -1.222   5.931  0.00  0.00    -0.287 OA
ATOM      5  C   UNL     1      -0.086  -3.271   7.091  0.00  0.00    +0.067 A 
ATOM      6  C   UNL     1      -0.928  -2.727   8.061  0.00  0.00    +0.053 A 
ATOM      7  C   UNL     1      -1.514  -3.554   8.995  0.00  0.00    +0.124 A 
ATOM      8  C   UNL     1      -1.266  -4.921   8.968  0.00  0.00    +0.042 A 
ATOM      9  C   UNL     1      -0.438  -5.468   8.014  0.00  0.00    +0.050 A 
ATOM     10  C   UNL     1       0.165  -4.652   7.056  0.00  0.00    +0.140 A 
ATOM     11  O   UNL     1       0.966  -5.218   6.124  0.00  0.00    -0.450 OA
ATOM     12  C   UNL     1       1.734  -4.435   5.341  0.00  0.00    +0.199 A 
ATOM     13  C   UNL     1       2.833  -4.817   4.438  0.00  0.00    +0.287 C 
ATOM     14  O   UNL     1       3.228  -5.953   4.265  0.00  0.00    -0.266 OA
ATOM     15  N   UNL     1       3.338  -3.722   3.831  0.00  0.00    -0.253 N 
ATOM     16  F   UNL     1      -2.332  -3.035   9.938  0.00  0.00    -0.205 F 
ENDROOT
BRANCH  15  17
ATOM     17  C   UNL     1       4.389  -3.703   2.909  0.00  0.00    +0.038 A 
ATOM     18  C   UNL     1       4.814  -2.498   2.363  0.00  0.00    +0.026 A 
ATOM     19  C   UNL     1       5.852  -2.482   1.453  0.00  0.00    +0.040 A 
ATOM     20  C   UNL     1       6.470  -3.666   1.084  0.00  0.00    +0.124 A 
ATOM     21  C   UNL     1       6.048  -4.868   1.627  0.00  0.00    +0.040 A 
ATOM     22  C   UNL     1       5.014  -4.888   2.542  0.00  0.00    +0.026 A 
ATOM     23  F   UNL     1       7.486  -3.647   0.193  0.00  0.00    -0.205 F 
ENDBRANCH  15  17
BRANCH   1  27
ATOM     24  C   UNL     1       0.626  -0.618   1.042  0.00  0.00    +0.120 A 
ATOM     25  C   UNL     1       1.202   0.138   2.051  0.00  0.00    +0.046 A 
ATOM     26  C   UNL     1       1.835  -0.488   3.107  0.00  0.00    +0.009 A 
ATOM     27  C   UNL     1       1.895  -1.869   3.158  0.00  0.00    -0.022 A 
ATOM     28  C   UNL     1       1.322  -2.625   2.152  0.00  0.00    +0.009 A 
ATOM     29  C   UNL     1       0.682  -2.003   1.098  0.00  0.00    +0.046 A 
BRANCH  24  31
ATOM     30  C   UNL     1      -0.017   1.425   0.010  0.00  0.00    +0.277 C 
ATOM     31  O   UNL     1       0.002  -0.004   0.002  0.00  0.00    -0.495 OA
ENDBRANCH  24  31
ENDBRANCH   1  27
TORSDOF 3
