REMARK  Name = ZINC32744867
REMARK  5 active torsions:
REMARK  status: ('A' for Active; 'I' for Inactive)
REMARK    1  A    between atoms: C_1  and  C_2
REMARK    2  A    between atoms: C_8  and  N_10
REMARK    3  A    between atoms: C_11  and  C_13
REMARK    4  A    between atoms: C_13  and  C_15
REMARK    5  A    between atoms: C_13  and  N_16
REMARK                            x       y       z     vdW  Elec       q    Type
REMARK                         _______ _______ _______ _____ _____    ______ ____
ROOT
ATOM      1  C   UNL     1       4.209   0.649   2.377  0.00  0.00    +0.167 C 
ATOM      2  C   UNL     1       4.229   2.056   1.775  0.00  0.00    +0.038 C 
ENDROOT
BRANCH   1   3
ATOM      3  N   UNL     1       4.722   0.698   3.749  0.00  0.00    -0.222 N 
ATOM      4  C   UNL     1       4.171   1.419   4.742  0.00  0.00    +0.254 C 
ATOM      5  O   UNL     1       3.186   2.122   4.646  0.00  0.00    -0.270 OA
ATOM      6  C   UNL     1       4.966   1.212   5.971  0.00  0.00    +0.049 A 
ATOM      7  C   UNL     1       4.880   1.684   7.271  0.00  0.00    +0.014 A 
ATOM      8  C   UNL     1       5.815   1.282   8.212  0.00  0.00    +0.001 A 
ATOM      9  C   UNL     1       6.833   0.415   7.862  0.00  0.00    +0.001 A 
ATOM     10  C   UNL     1       6.932  -0.065   6.565  0.00  0.00    +0.014 A 
ATOM     11  C   UNL     1       6.004   0.328   5.614  0.00  0.00    +0.049 A 
ATOM     12  C   UNL     1       5.802   0.023   4.182  0.00  0.00    +0.254 C 
ATOM     13  O   UNL     1       6.496  -0.712   3.509  0.00  0.00    -0.270 OA
ENDBRANCH   1   3
BRANCH   1  15
ATOM     14  N   UNL     1       2.116  -0.004   1.231  0.00  0.00    -0.311 N 
ATOM     15  C   UNL     1       2.795   0.128   2.388  0.00  0.00    +0.234 C 
ATOM     16  O   UNL     1       2.268  -0.174   3.438  0.00  0.00    -0.274 OA
ATOM     17  H   UNL     1       2.538   0.237   0.392  0.00  0.00    +0.149 HD
BRANCH  14  24
ATOM     18  C   UNL     1      -0.019   1.526   0.010  0.00  0.00    +0.009 C 
ATOM     19  C   UNL     1       0.002  -0.004   0.002  0.00  0.00    +0.006 C 
ATOM     20  C   UNL     1       0.718  -0.497  -1.257  0.00  0.00    +0.005 C 
ATOM     21  C   UNL     1       0.739  -2.027  -1.265  0.00  0.00    +0.000 C 
ATOM     22  C   UNL     1       1.479  -2.534  -0.026  0.00  0.00    +0.002 C 
ATOM     23  C   UNL     1       0.763  -2.041   1.233  0.00  0.00    +0.022 C 
ATOM     24  C   UNL     1       0.742  -0.511   1.242  0.00  0.00    +0.076 C 
ENDBRANCH  14  24
ENDBRANCH   1  15
TORSDOF 3
