REMARK  Name = ZINC02441793
REMARK  8 active torsions:
REMARK  status: ('A' for Active; 'I' for Inactive)
REMARK    1  A    between atoms: C_1  and  C_2
REMARK    2  A    between atoms: C_8  and  N_12
REMARK    3  A    between atoms: N_12  and  C_13
REMARK    4  A    between atoms: C_13  and  C_14
REMARK    5  A    between atoms: C_14  and  C_16
REMARK    6  A    between atoms: C_14  and  O_17
REMARK    7  A    between atoms: C_22  and  C_25
REMARK    8  A    between atoms: C_22  and  C_26
REMARK                            x       y       z     vdW  Elec       q    Type
REMARK                         _______ _______ _______ _____ _____    ______ ____
ROOT
ATOM      1  C   UNL     1      -1.861  -3.177  -0.002  0.00  0.00    +0.066 C 
ATOM      2  C   UNL     1      -0.713  -2.200  -0.004  0.00  0.00    +0.048 A 
ATOM      3  C   UNL     1       0.588  -2.684  -0.013  0.00  0.00    +0.003 A 
ATOM      4  C   UNL     1       1.635  -1.788  -0.019  0.00  0.00    -0.023 A 
ATOM      5  C   UNL     1       1.341  -0.426  -0.011  0.00  0.00    +0.070 A 
ATOM      6  C   UNL     1       2.151   0.802  -0.013  0.00  0.00    +0.124 A 
ATOM      7  C   UNL     1       1.232   1.858   0.000  0.00  0.00    +0.196 A 
ATOM      8  C   UNL     1       1.736   3.163   0.001  0.00  0.00    +0.165 A 
ATOM      9  N   UNL     1       3.054   3.340  -0.011  0.00  0.00    -0.217 NA
ATOM     10  C   UNL     1       3.883   2.313  -0.023  0.00  0.00    +0.224 A 
ATOM     11  N   UNL     1       3.454   1.069  -0.024  0.00  0.00    -0.231 NA
ATOM     12  O   UNL     1      -0.016   1.346   0.009  0.00  0.00    -0.432 OA
ATOM     13  C   UNL     1       0.002  -0.004   0.002  0.00  0.00    +0.231 A 
ATOM     14  N   UNL     1      -0.967  -0.909   0.004  0.00  0.00    -0.217 NA
ATOM     15  C   UNL     1       3.067  -2.249  -0.038  0.00  0.00    +0.070 C 
ATOM     16  C   UNL     1       3.140  -3.722   0.371  0.00  0.00    +0.068 C 
ATOM     17  O   UNL     1       2.173  -4.454  -0.392  0.00  0.00    -0.369 OA
ATOM     18  C   UNL     1       0.826  -4.170  -0.014  0.00  0.00    +0.197 C 
ATOM     19  C   UNL     1       4.541  -4.267   0.083  0.00  0.00    +0.041 C 
ATOM     20  C   UNL     1       2.833  -3.858   1.863  0.00  0.00    +0.041 C 
ENDROOT
BRANCH   8  21
ATOM     21  N   UNL     1       0.878   4.252   0.013  0.00  0.00    -0.324 N 
ATOM     22  H   UNL     1      -0.082   4.113   0.022  0.00  0.00    +0.148 HD
BRANCH  21  23
ATOM     23  C   UNL     1       1.421   5.613   0.014  0.00  0.00    +0.134 C 
BRANCH  23  24
ATOM     24  C   UNL     1       0.270   6.621   0.029  0.00  0.00    +0.128 C 
ATOM     25  C   UNL     1       0.832   8.039  -0.096  0.00  0.00    +0.039 C 
BRANCH  24  26
ATOM     26  O   UNL     1      -0.452   6.502   1.256  0.00  0.00    -0.391 OA
ATOM     27  H   UNL     1       0.082   6.667   2.045  0.00  0.00    +0.210 HD
ENDBRANCH  24  26
ENDBRANCH  23  24
ENDBRANCH  21  23
ENDBRANCH   8  21
TORSDOF 4
