REMARK  Name = ZINC02658622
REMARK  8 active torsions:
REMARK  status: ('A' for Active; 'I' for Inactive)
REMARK    1  A    between atoms: C_1  and  S_2
REMARK    2  A    between atoms: S_2  and  C_3
REMARK    3  A    between atoms: C_7  and  C_9
REMARK    4  A    between atoms: C_9  and  O_11
REMARK    5  A    between atoms: O_11  and  C_12
REMARK    6  A    between atoms: C_12  and  C_13
REMARK    7  A    between atoms: C_13  and  C_15
REMARK    8  A    between atoms: C_15  and  C_25
REMARK                            x       y       z     vdW  Elec       q    Type
REMARK                         _______ _______ _______ _____ _____    ______ ____
ROOT
ATOM      1  C   UNL     1       3.622   6.295   0.000  0.00  0.00    +0.214 C 
ATOM      2  O   UNL     1       4.594   5.566  -0.012  0.00  0.00    -0.288 OA
ENDROOT
BRANCH   1   3
ATOM      3  C   UNL     1       3.791   7.690   0.006  0.00  0.00    +0.133 C 
ATOM      4  C   UNL     1       5.084   8.242  -0.004  0.00  0.00    +0.114 C 
ATOM      5  N   UNL     1       6.242   7.532  -0.012  0.00  0.00    -0.300 N 
ATOM      6  C   UNL     1       7.304   8.430  -0.022  0.00  0.00    +0.054 A 
ATOM      7  C   UNL     1       8.682   8.267  -0.035  0.00  0.00    +0.025 A 
ATOM      8  C   UNL     1       9.505   9.375  -0.036  0.00  0.00    +0.002 A 
ATOM      9  C   UNL     1       8.962  10.649  -0.025  0.00  0.00    +0.002 A 
ATOM     10  C   UNL     1       7.593  10.822  -0.013  0.00  0.00    +0.025 A 
ATOM     11  C   UNL     1       6.756   9.714  -0.011  0.00  0.00    +0.054 A 
ATOM     12  N   UNL     1       5.373   9.569   0.001  0.00  0.00    -0.300 N 
ATOM     13  H   UNL     1       6.316   6.565  -0.013  0.00  0.00    +0.153 HD
ATOM     14  H   UNL     1       4.726  10.292   0.010  0.00  0.00    +0.153 HD
BRANCH   3  15
ATOM     15  C   UNL     1       2.646   8.550   0.021  0.00  0.00    +0.106 C 
ATOM     16  N   UNL     1       1.737   9.232   0.033  0.00  0.00    -0.191 NA
ENDBRANCH   3  15
ENDBRANCH   1   3
BRANCH   1  17
ATOM     17  C   UNL     1       2.236   5.704   0.010  0.00  0.00    +0.312 C 
BRANCH  17  18
ATOM     18  O   UNL     1       2.328   4.255   0.002  0.00  0.00    -0.453 OA
BRANCH  18  19
ATOM     19  C   UNL     1       1.168   3.569   0.010  0.00  0.00    +0.341 C 
ATOM     20  O   UNL     1       0.110   4.165   0.022  0.00  0.00    -0.245 OA
BRANCH  19  25
ATOM     21  C   UNL     1       2.406   0.019  -0.021  0.00  0.00    +0.008 A 
ATOM     22  C   UNL     1       1.205  -0.683  -0.013  0.00  0.00    +0.016 A 
ATOM     23  C   UNL     1       0.002  -0.004   0.002  0.00  0.00    +0.022 A 
ATOM     24  C   UNL     1      -0.017   1.378   0.010  0.00  0.00    +0.055 A 
ATOM     25  C   UNL     1       1.184   2.092   0.002  0.00  0.00    +0.078 A 
ATOM     26  C   UNL     1       2.399   1.405  -0.014  0.00  0.00    +0.031 A 
ATOM     27 CL   UNL     1      -1.532   2.225   0.021  0.00  0.00    -0.083 Cl
BRANCH  21  29
ATOM     28  C   UNL     1       3.445  -2.601  -0.046  0.00  0.00    +0.090 C 
ATOM     29  S   UNL     1       3.936  -0.854  -0.041  0.00  0.00    -0.129 S 
ENDBRANCH  21  29
ENDBRANCH  19  25
ENDBRANCH  18  19
ENDBRANCH  17  18
ENDBRANCH   1  17
TORSDOF 7
