REMARK  Name = ZINC63478291
REMARK  6 active torsions:
REMARK  status: ('A' for Active; 'I' for Inactive)
REMARK    1  A    between atoms: C_1  and  C_2
REMARK    2  A    between atoms: C_2  and  C_3
REMARK    3  A    between atoms: C_3  and  C_5
REMARK    4  A    between atoms: C_3  and  N_6
REMARK    5  A    between atoms: C_11  and  C_29
REMARK    6  A    between atoms: C_29  and  C_30
REMARK                            x       y       z     vdW  Elec       q    Type
REMARK                         _______ _______ _______ _____ _____    ______ ____
ROOT
ATOM      1  N   UNL     1      -0.045  -0.096   2.266  0.00  0.00    -0.239 N 
ATOM      2  C   UNL     1      -1.263  -0.573   2.546  0.00  0.00    +0.227 C 
ATOM      3  O   UNL     1      -1.842  -1.430   1.913  0.00  0.00    -0.275 OA
ATOM      4  C   UNL     1      -1.806   0.121   3.775  0.00  0.00    +0.107 C 
ATOM      5  C   UNL     1      -2.994   1.018   3.367  0.00  0.00    +0.072 C 
ATOM      6  N   UNL     1      -2.749   2.312   4.059  0.00  0.00    -0.295 NA
ATOM      7  C   UNL     1      -1.290   2.502   3.963  0.00  0.00    +0.136 C 
ATOM      8  C   UNL     1      -0.663   1.100   4.165  0.00  0.00    +0.122 C 
ATOM      9  C   UNL     1       0.391   0.844   3.113  0.00  0.00    +0.228 C 
ATOM     10  O   UNL     1       1.463   1.405   3.045  0.00  0.00    -0.275 OA
ATOM     11  C   UNL     1      -0.901   3.105   2.643  0.00  0.00    +0.006 A 
ATOM     12  C   UNL     1      -1.066   2.708   1.334  0.00  0.00    +0.046 A 
ATOM     13  C   UNL     1      -0.588   3.501   0.304  0.00  0.00    +0.124 A 
ATOM     14  C   UNL     1       0.055   4.693   0.595  0.00  0.00    +0.040 A 
ATOM     15  C   UNL     1       0.222   5.092   1.904  0.00  0.00    +0.026 A 
ATOM     16  C   UNL     1      -0.256   4.300   2.945  0.00  0.00    +0.039 A 
ATOM     17  N   UNL     1      -0.209   4.486   4.330  0.00  0.00    -0.283 N 
ATOM     18  C   UNL     1      -0.794   3.474   4.998  0.00  0.00    +0.243 C 
ATOM     19  O   UNL     1      -0.901   3.367   6.202  0.00  0.00    -0.273 OA
ATOM     20  F   UNL     1      -0.748   3.113  -0.980  0.00  0.00    -0.205 F 
ATOM     21  H   UNL     1      -3.243   3.064   3.604  0.00  0.00    +0.124 HD
ATOM     22  H   UNL     1       0.199   5.255   4.759  0.00  0.00    +0.155 HD
ENDROOT
BRANCH   1  23
ATOM     23  C   UNL     1       0.749  -0.568   1.130  0.00  0.00    +0.081 C 
ATOM     24  C   UNL     1       1.065   0.608   0.204  0.00  0.00    +0.028 C 
BRANCH  23  26
ATOM     25  C   UNL     1       1.746  -2.437   2.455  0.00  0.00    +0.006 C 
ATOM     26  C   UNL     1       2.055  -1.180   1.640  0.00  0.00    +0.019 C 
ENDBRANCH  23  26
ENDBRANCH   1  23
BRANCH   5  27
ATOM     27  C   UNL     1      -4.313   0.401   3.837  0.00  0.00    +0.052 C 
BRANCH  27  28
ATOM     28  C   UNL     1      -5.465   1.226   3.324  0.00  0.00    -0.040 C 
ATOM     29  C   UNL     1      -6.185   1.007   2.201  0.00  0.00    -0.001 A 
ATOM     30  C   UNL     1      -6.115  -0.026   1.160  0.00  0.00    +0.010 A 
ATOM     31  C   UNL     1      -6.992   0.019   0.132  0.00  0.00    +0.001 A 
ATOM     32  C   UNL     1      -7.964   1.024   0.035  0.00  0.00    +0.002 A 
ATOM     33  C   UNL     1      -8.091   2.006   0.952  0.00  0.00    +0.026 A 
ATOM     34  C   UNL     1      -7.221   2.057   2.076  0.00  0.00    +0.043 A 
ATOM     35  N   UNL     1      -7.144   2.893   3.083  0.00  0.00    -0.380 N 
ATOM     36  C   UNL     1      -6.053   2.464   3.964  0.00  0.00    +0.144 C 
ATOM     37  H   UNL     1      -7.715   3.664   3.223  0.00  0.00    +0.160 HD
ENDBRANCH  27  28
ENDBRANCH   5  27
TORSDOF 4
