REMARK  Name = ZINC03848173
REMARK  3 active torsions:
REMARK  status: ('A' for Active; 'I' for Inactive)
REMARK    1  A    between atoms: C_4  and  N_7
REMARK    2  A    between atoms: N_10  and  C_11
REMARK    3  A    between atoms: C_17  and  C_19
REMARK                            x       y       z     vdW  Elec       q    Type
REMARK                         _______ _______ _______ _____ _____    ______ ____
ROOT
ATOM      1  N   UNL     1      -6.547   4.054   1.524  0.00  0.00    -0.269 N 
ATOM      2  C   UNL     1      -5.459   3.860   2.295  0.00  0.00    +0.317 C 
ATOM      3  O   UNL     1      -5.528   4.030   3.497  0.00  0.00    -0.251 OA
ATOM      4  N   UNL     1      -4.295   3.477   1.734  0.00  0.00    -0.193 N 
ATOM      5  C   UNL     1      -3.182   3.382   2.489  0.00  0.00    +0.235 C 
ATOM      6  O   UNL     1      -3.247   3.550   3.688  0.00  0.00    -0.274 OA
ATOM      7  H   UNL     1      -6.514   3.845   0.577  0.00  0.00    +0.156 HD
ENDROOT
BRANCH   5   8
ATOM      8  C   UNL     1      -1.858   3.069   1.843  0.00  0.00    +0.110 C 
ATOM      9  C   UNL     1      -0.695   3.030   2.825  0.00  0.00    +0.053 C 
ATOM     10  C   UNL     1      -0.575   1.562   2.512  0.00  0.00    -0.042 A 
ATOM     11  C   UNL     1      -1.627   1.598   1.623  0.00  0.00    -0.032 A 
ATOM     12  C   UNL     1      -2.012   0.441   0.960  0.00  0.00    +0.004 A 
ATOM     13  C   UNL     1      -1.349  -0.747   1.197  0.00  0.00    +0.000 A 
ATOM     14  C   UNL     1      -0.294  -0.782   2.089  0.00  0.00    +0.000 A 
ATOM     15  C   UNL     1       0.094   0.369   2.746  0.00  0.00    +0.004 A 
ENDBRANCH   5   8
BRANCH   1  19
ATOM     16  C   UNL     1     -10.052   5.553   3.205  0.00  0.00    +0.000 A 
ATOM     17  C   UNL     1     -10.119   4.636   2.172  0.00  0.00    +0.002 A 
ATOM     18  C   UNL     1      -8.959   4.138   1.613  0.00  0.00    +0.023 A 
ATOM     19  C   UNL     1      -7.724   4.558   2.088  0.00  0.00    +0.035 A 
ATOM     20  C   UNL     1      -7.660   5.476   3.129  0.00  0.00    +0.023 A 
ATOM     21  C   UNL     1      -8.823   5.974   3.681  0.00  0.00    +0.002 A 
ENDBRANCH   1  19
BRANCH   4  22
ATOM     22  C   UNL     1      -4.241   3.177   0.366  0.00  0.00    +0.045 A 
ATOM     23  C   UNL     1      -3.693   4.089  -0.525  0.00  0.00    +0.024 A 
ATOM     24  C   UNL     1      -3.638   3.788  -1.872  0.00  0.00    +0.002 A 
ATOM     25  C   UNL     1      -4.136   2.584  -2.334  0.00  0.00    +0.000 A 
ATOM     26  C   UNL     1      -4.688   1.676  -1.450  0.00  0.00    +0.002 A 
ATOM     27  C   UNL     1      -4.742   1.969  -0.101  0.00  0.00    +0.024 A 
ENDBRANCH   4  22
TORSDOF 3
