REMARK  Name = ZINC34171745
REMARK  3 active torsions:
REMARK  status: ('A' for Active; 'I' for Inactive)
REMARK    1  A    between atoms: N_9  and  C_12
REMARK    2  A    between atoms: C_12  and  C_13
REMARK    3  A    between atoms: C_13  and  O_19
REMARK                            x       y       z     vdW  Elec       q    Type
REMARK                         _______ _______ _______ _____ _____    ______ ____
ROOT
ATOM      1  C   UNL     1      -0.017   1.382   0.010  0.00  0.00    +0.001 A 
ATOM      2  C   UNL     1       1.165   2.099   0.002  0.00  0.00    +0.001 A 
ATOM      3  C   UNL     1       2.385   1.442  -0.013  0.00  0.00    +0.014 A 
ATOM      4  C   UNL     1       2.420   0.056  -0.021  0.00  0.00    +0.049 A 
ATOM      5  C   UNL     1       1.215  -0.675  -0.013  0.00  0.00    +0.049 A 
ATOM      6  C   UNL     1       0.002  -0.004   0.002  0.00  0.00    +0.014 A 
ATOM      7  C   UNL     1       1.606  -2.100  -0.025  0.00  0.00    +0.254 C 
ATOM      8  O   UNL     1       0.843  -3.045  -0.023  0.00  0.00    -0.270 OA
ATOM      9  N   UNL     1       2.949  -2.175  -0.039  0.00  0.00    -0.231 N 
ATOM     10  C   UNL     1       3.503  -0.949  -0.038  0.00  0.00    +0.254 C 
ATOM     11  O   UNL     1       4.693  -0.709  -0.049  0.00  0.00    -0.270 OA
ENDROOT
BRANCH   9  12
ATOM     12  C   UNL     1       3.709  -3.428  -0.053  0.00  0.00    +0.151 C 
BRANCH  12  13
ATOM     13  C   UNL     1       3.959  -3.857  -1.501  0.00  0.00    +0.082 C 
ATOM     14  C   UNL     1       2.624  -3.944  -2.244  0.00  0.00    +0.036 C 
ATOM     15  C   UNL     1       2.874  -4.372  -3.692  0.00  0.00    +0.003 C 
ATOM     16  C   UNL     1       3.558  -5.741  -3.708  0.00  0.00    +0.000 C 
ATOM     17  C   UNL     1       4.892  -5.654  -2.964  0.00  0.00    +0.003 C 
ATOM     18  C   UNL     1       4.642  -5.225  -1.516  0.00  0.00    +0.036 C 
BRANCH  13  19
ATOM     19  O   UNL     1       4.800  -2.897  -2.143  0.00  0.00    -0.387 OA
ATOM     20  H   UNL     1       4.429  -2.004  -2.170  0.00  0.00    +0.210 HD
ENDBRANCH  13  19
ENDBRANCH  12  13
ENDBRANCH   9  12
TORSDOF 3
