REMARK  Name = ZINC04926768
REMARK  5 active torsions:
REMARK  status: ('A' for Active; 'I' for Inactive)
REMARK    1  A    between atoms: C_10  and  C_13
REMARK    2  A    between atoms: C_13  and  C_14
REMARK    3  A    between atoms: N_16  and  N_17
REMARK    4  A    between atoms: C_18  and  C_19
REMARK    5  A    between atoms: C_22  and  O_25
REMARK                            x       y       z     vdW  Elec       q    Type
REMARK                         _______ _______ _______ _____ _____    ______ ____
ROOT
ATOM      1  C   UNL     1       3.875   4.367   2.838  0.00  0.00    +0.234 C 
ATOM      2  O   UNL     1       4.267   5.237   2.089  0.00  0.00    -0.274 OA
ATOM      3  N   UNL     1       3.723   4.628   4.152  0.00  0.00    -0.207 N 
ATOM      4  H   UNL     1       3.409   3.933   4.751  0.00  0.00    +0.177 HD
ENDROOT
BRANCH   3   5
ATOM      5  N   UNL     1       4.017   5.903   4.651  0.00  0.00    -0.188 NA
ATOM      6  C   UNL     1       3.871   6.155   5.916  0.00  0.00    +0.138 C 
BRANCH   6   7
ATOM      7  C   UNL     1       4.181   7.497   6.442  0.00  0.00    -0.005 A 
ATOM      8  C   UNL     1       4.638   8.498   5.581  0.00  0.00    +0.013 A 
ATOM      9  C   UNL     1       4.921   9.753   6.076  0.00  0.00    +0.046 A 
ATOM     10  C   UNL     1       4.764  10.019   7.430  0.00  0.00    +0.117 A 
ATOM     11  C   UNL     1       4.315   9.025   8.290  0.00  0.00    +0.046 A 
ATOM     12  C   UNL     1       4.024   7.769   7.803  0.00  0.00    +0.013 A 
BRANCH  10  13
ATOM     13  O   UNL     1       5.049  11.256   7.914  0.00  0.00    -0.507 OA
ATOM     14  H   UNL     1       5.966  11.364   8.201  0.00  0.00    +0.292 HD
ENDBRANCH  10  13
ENDBRANCH   6   7
ENDBRANCH   3   5
BRANCH   1  15
ATOM     15  C   UNL     1       3.558   2.995   2.301  0.00  0.00    +0.121 C 
BRANCH  15  25
ATOM     16  C   UNL     1      -1.220   1.746   0.017  0.00  0.00    +0.002 A 
ATOM     17  C   UNL     1      -1.253   3.129   0.030  0.00  0.00    +0.001 A 
ATOM     18  C   UNL     1      -0.071   3.846   0.017  0.00  0.00    +0.016 A 
ATOM     19  C   UNL     1       1.142   3.179  -0.003  0.00  0.00    +0.030 A 
ATOM     20  C   UNL     1       1.184   1.784   0.000  0.00  0.00    +0.047 A 
ATOM     21  C   UNL     1      -0.013   1.076   0.008  0.00  0.00    +0.024 A 
ATOM     22  N   UNL     1       2.389   1.087  -0.022  0.00  0.00    -0.284 N 
ATOM     23  C   UNL     1       3.592   1.572   0.266  0.00  0.00    +0.231 C 
ATOM     24  O   UNL     1       4.558   0.859   0.097  0.00  0.00    -0.274 OA
ATOM     25  C   UNL     1       3.814   2.967   0.793  0.00  0.00    +0.146 C 
ATOM     26  S   UNL     1       2.654   4.089  -0.047  0.00  0.00    -0.110 S 
ATOM     27  H   UNL     1       2.346   0.151  -0.273  0.00  0.00    +0.155 HD
ENDBRANCH  15  25
ENDBRANCH   1  15
TORSDOF 5
