REMARK  Name = ZINC04123644
REMARK  3 active torsions:
REMARK  status: ('A' for Active; 'I' for Inactive)
REMARK    1  A    between atoms: C_1  and  C_2
REMARK    2  A    between atoms: C_15  and  C_18
REMARK    3  A    between atoms: C_23  and  N_24
REMARK                            x       y       z     vdW  Elec       q    Type
REMARK                         _______ _______ _______ _____ _____    ______ ____
ROOT
ATOM      1  C   UNL     1      -0.667  -3.881   3.019  0.00  0.00    +0.044 C 
ATOM      2  C   UNL     1       0.104  -2.951   2.118  0.00  0.00    -0.050 A 
ATOM      3  C   UNL     1       0.224  -3.240   0.771  0.00  0.00    +0.005 A 
ATOM      4  C   UNL     1       0.930  -2.386  -0.052  0.00  0.00    +0.023 A 
ATOM      5  C   UNL     1       1.517  -1.241   0.474  0.00  0.00    +0.031 A 
ATOM      6  C   UNL     1       1.400  -0.948   1.824  0.00  0.00    -0.019 A 
ATOM      7  C   UNL     1       0.686  -1.815   2.640  0.00  0.00    +0.009 A 
ATOM      8  C   UNL     1       2.016   0.271   2.434  0.00  0.00    +0.049 C 
ATOM      9  C   UNL     1       0.977   1.325   2.732  0.00  0.00    -0.023 C 
ATOM     10  C   UNL     1       1.473   2.525   2.516  0.00  0.00    -0.030 C 
ATOM     11  C   UNL     1       2.913   2.429   2.049  0.00  0.00    +0.033 C 
ATOM     12  C   UNL     1       3.015   0.978   1.494  0.00  0.00    +0.029 C 
ATOM     13  C   UNL     1       2.460   0.995   0.067  0.00  0.00    +0.107 C 
ATOM     14  N   UNL     1       2.228  -0.385  -0.373  0.00  0.00    -0.336 N 
ATOM     15  H   UNL     1       2.560  -0.696  -1.230  0.00  0.00    +0.147 HD
ENDROOT
BRANCH  13  16
ATOM     16  C   UNL     1       1.161   1.758   0.040  0.00  0.00    +0.003 A 
ATOM     17  C   UNL     1      -0.031   1.103   0.290  0.00  0.00    +0.008 A 
ATOM     18  C   UNL     1      -1.223   1.802   0.260  0.00  0.00    +0.000 A 
ATOM     19  C   UNL     1      -1.223   3.158  -0.010  0.00  0.00    +0.002 A 
ATOM     20  C   UNL     1      -0.032   3.813  -0.259  0.00  0.00    +0.033 A 
ATOM     21  C   UNL     1       1.160   3.113  -0.234  0.00  0.00    +0.131 A 
BRANCH  21  22
ATOM     22  N   UNL     1       2.436   3.814  -0.501  0.00  0.00    +0.057 N 
ATOM     23  O   UNL     1       2.452   5.027  -0.619  0.00  0.00    -0.126 OA
ATOM     24  O   UNL     1       3.470   3.179  -0.603  0.00  0.00    -0.126 OA
ENDBRANCH  21  22
ENDBRANCH  13  16
TORSDOF 2
