REMARK  Name = ZINC14473973
REMARK  3 active torsions:
REMARK  status: ('A' for Active; 'I' for Inactive)
REMARK    1  A    between atoms: C_4  and  O_27
REMARK    2  A    between atoms: C_5  and  C_7
REMARK    3  A    between atoms: C_17  and  N_24
REMARK                            x       y       z     vdW  Elec       q    Type
REMARK                         _______ _______ _______ _____ _____    ______ ____
ROOT
ATOM      1  C   UNL     1       4.674  -0.007   0.497  0.00  0.00    +0.108 C 
ATOM      2  C   UNL     1       5.560   1.082  -0.112  0.00  0.00    +0.029 C 
ATOM      3  C   UNL     1       6.809   1.247   0.814  0.00  0.00    +0.033 C 
ATOM      4  C   UNL     1       6.320   2.158   1.923  0.00  0.00    -0.030 C 
ATOM      5  C   UNL     1       5.263   2.827   1.535  0.00  0.00    -0.023 C 
ATOM      6  C   UNL     1       4.892   2.455   0.118  0.00  0.00    +0.051 C 
ATOM      7  C   UNL     1       3.402   2.374  -0.037  0.00  0.00    +0.014 A 
ATOM      8  C   UNL     1       2.682   3.563  -0.041  0.00  0.00    +0.132 A 
ATOM      9  C   UNL     1       1.309   3.553  -0.176  0.00  0.00    +0.036 A 
ATOM     10  C   UNL     1       0.634   2.353  -0.308  0.00  0.00    +0.042 A 
ATOM     11  C   UNL     1       1.340   1.167  -0.305  0.00  0.00    +0.145 A 
ATOM     12  C   UNL     1       2.730   1.173  -0.172  0.00  0.00    +0.069 A 
ATOM     13  N   UNL     1       3.394  -0.054  -0.185  0.00  0.00    -0.334 N 
ATOM     14  F   UNL     1       0.682  -0.006  -0.433  0.00  0.00    -0.204 F 
ATOM     15  H   UNL     1       2.806  -0.788   0.180  0.00  0.00    +0.147 HD
ENDROOT
BRANCH   1  20
ATOM     16  C   UNL     1       3.151   1.405   3.651  0.00  0.00    +0.001 A 
ATOM     17  C   UNL     1       3.975   0.868   4.623  0.00  0.00    +0.004 A 
ATOM     18  C   UNL     1       5.026   0.048   4.264  0.00  0.00    +0.046 A 
ATOM     19  C   UNL     1       5.252  -0.242   2.926  0.00  0.00    +0.122 A 
ATOM     20  C   UNL     1       4.428   0.301   1.952  0.00  0.00    +0.014 A 
ATOM     21  C   UNL     1       3.378   1.122   2.317  0.00  0.00    +0.009 A 
BRANCH  19  22
ATOM     22  O   UNL     1       6.283  -1.054   2.570  0.00  0.00    -0.506 OA
ATOM     23  H   UNL     1       7.136  -0.604   2.511  0.00  0.00    +0.292 HD
ENDBRANCH  19  22
ENDBRANCH   1  20
BRANCH   8  24
ATOM     24  N   UNL     1       3.395   4.852   0.101  0.00  0.00    +0.057 N 
ATOM     25  O   UNL     1       2.770   5.897   0.098  0.00  0.00    -0.126 OA
ATOM     26  O   UNL     1       4.607   4.867   0.221  0.00  0.00    -0.126 OA
ENDBRANCH   8  24
TORSDOF 3
