REMARK  Name = ZINC40796581
REMARK  7 active torsions:
REMARK  status: ('A' for Active; 'I' for Inactive)
REMARK    1  A    between atoms: C_1  and  C_2
REMARK    2  A    between atoms: C_2  and  O_3
REMARK    3  A    between atoms: O_3  and  C_4
REMARK    4  A    between atoms: C_4  and  C_6
REMARK    5  A    between atoms: C_10  and  N_11
REMARK    6  A    between atoms: C_12  and  C_14
REMARK    7  A    between atoms: C_14  and  C_25
REMARK                            x       y       z     vdW  Elec       q    Type
REMARK                         _______ _______ _______ _____ _____    ______ ____
ROOT
ATOM      1  N   UNL     1      -3.033  -2.524   2.498  0.00  0.00    -0.276 N 
ATOM      2  C   UNL     1      -3.808  -2.867   3.546  0.00  0.00    +0.270 C 
ATOM      3  O   UNL     1      -4.910  -3.337   3.357  0.00  0.00    -0.271 OA
ATOM      4  H   UNL     1      -2.152  -2.147   2.650  0.00  0.00    +0.155 HD
ENDROOT
BRANCH   2   5
ATOM      5  C   UNL     1      -3.306  -2.666   4.953  0.00  0.00    +0.258 C 
ATOM      6  C   UNL     1      -4.480  -2.530   5.890  0.00  0.00    +0.270 C 
ATOM      7  O   UNL     1      -5.541  -3.049   5.616  0.00  0.00    -0.271 OA
ATOM      8  N   UNL     1      -4.344  -1.829   7.035  0.00  0.00    -0.279 N 
ATOM      9  C   UNL     1      -3.151  -1.132   7.273  0.00  0.00    +0.076 A 
ATOM     10  C   UNL     1      -2.887  -0.594   8.522  0.00  0.00    +0.027 A 
ATOM     11  C   UNL     1      -1.700   0.079   8.744  0.00  0.00    +0.002 A 
ATOM     12  C   UNL     1      -0.777   0.216   7.724  0.00  0.00    +0.004 A 
ATOM     13  C   UNL     1      -1.037  -0.314   6.473  0.00  0.00    +0.047 A 
ATOM     14  C   UNL     1      -2.226  -0.984   6.242  0.00  0.00    +0.144 A 
ATOM     15  O   UNL     1      -2.507  -1.482   5.008  0.00  0.00    -0.465 OA
ATOM     16  C   UNL     1      -2.461  -3.871   5.369  0.00  0.00    +0.076 C 
ATOM     17  H   UNL     1      -5.063  -1.807   7.685  0.00  0.00    +0.155 HD
ENDBRANCH   2   5
BRANCH   1  22
ATOM     18  C   UNL     1      -2.842  -2.416   0.016  0.00  0.00    +0.091 A 
ATOM     19  C   UNL     1      -3.548  -2.714  -1.219  0.00  0.00    -0.021 A 
ATOM     20  C   UNL     1      -4.777  -3.242  -1.039  0.00  0.00    -0.004 A 
ATOM     21  S   UNL     1      -4.974  -3.335   0.716  0.00  0.00    -0.077 S 
ATOM     22  C   UNL     1      -3.495  -2.708   1.205  0.00  0.00    +0.086 A 
ATOM     23  C   UNL     1      -5.745  -3.651  -2.106  0.00  0.00    +0.043 C 
ATOM     24  C   UNL     1      -5.287  -3.033  -3.435  0.00  0.00    +0.005 C 
ATOM     25  C   UNL     1      -3.790  -3.300  -3.616  0.00  0.00    +0.005 C 
ATOM     26  C   UNL     1      -2.988  -2.468  -2.612  0.00  0.00    +0.037 C 
BRANCH  18  27
ATOM     27  C   UNL     1      -1.497  -1.838   0.006  0.00  0.00    +0.342 C 
ATOM     28  O   UNL     1      -0.523  -2.566  -0.007  0.00  0.00    -0.245 OA
BRANCH  27  29
ATOM     29  O   UNL     1      -1.339  -0.499   0.012  0.00  0.00    -0.461 OA
BRANCH  29  31
ATOM     30  C   UNL     1      -0.019   1.526   0.010  0.00  0.00    +0.048 C 
ATOM     31  C   UNL     1       0.002  -0.004   0.002  0.00  0.00    +0.229 C 
ENDBRANCH  29  31
ENDBRANCH  27  29
ENDBRANCH  18  27
ENDBRANCH   1  22
TORSDOF 5
