REMARK  Name = ZINC09689836
REMARK  2 active torsions:
REMARK  status: ('A' for Active; 'I' for Inactive)
REMARK    1  A    between atoms: C_6  and  C_16
REMARK    2  A    between atoms: N_10  and  C_11
REMARK                            x       y       z     vdW  Elec       q    Type
REMARK                         _______ _______ _______ _____ _____    ______ ____
ROOT
ATOM      1  C   UNL     1      -0.720   3.599   0.029  0.00  0.00    +0.049 A 
ATOM      2  C   UNL     1      -1.046   2.280   0.029  0.00  0.00    +0.053 A 
ATOM      3  C   UNL     1      -0.016   1.319   0.009  0.00  0.00    +0.178 A 
ATOM      4  N   UNL     1       0.002  -0.004   0.002  0.00  0.00    -0.128 NA
ATOM      5  N   UNL     1       1.223  -0.412  -0.012  0.00  0.00    -0.123 NA
ATOM      6  C   UNL     1       2.041   0.612  -0.014  0.00  0.00    +0.258 A 
ATOM      7  N   UNL     1       1.292   1.735  -0.001  0.00  0.00    -0.187 N 
ATOM      8  N   UNL     1       1.593   3.099   0.004  0.00  0.00    -0.148 NA
ATOM      9  C   UNL     1       0.633   3.993   0.018  0.00  0.00    +0.140 A 
ATOM     10  N   UNL     1       0.954   5.346   0.022  0.00  0.00    -0.325 N 
ATOM     11  H   UNL     1       1.883   5.624   0.015  0.00  0.00    +0.148 HD
ENDROOT
BRANCH  10  12
ATOM     12  C   UNL     1      -0.111   6.352   0.038  0.00  0.00    +0.072 C 
ATOM     13  C   UNL     1      -0.560   6.669  -1.403  0.00  0.00    +0.022 C 
ATOM     14  C   UNL     1      -0.849   8.191  -1.384  0.00  0.00    +0.002 C 
ATOM     15  C   UNL     1       0.270   8.741  -0.464  0.00  0.00    +0.002 C 
ATOM     16  C   UNL     1       0.416   7.668   0.635  0.00  0.00    +0.022 C 
ENDBRANCH  10  12
BRANCH   6  17
ATOM     17  C   UNL     1       3.547   0.547  -0.029  0.00  0.00    +0.454 C 
ATOM     18  F   UNL     1       3.954  -0.744  -0.381  0.00  0.00    -0.163 F 
ATOM     19  F   UNL     1       4.043   1.464  -0.962  0.00  0.00    -0.163 F 
ATOM     20  F   UNL     1       4.040   0.862   1.242  0.00  0.00    -0.163 F 
ENDBRANCH   6  17
TORSDOF 2
