REMARK  Name = ZINC09468936
REMARK  8 active torsions:
REMARK  status: ('A' for Active; 'I' for Inactive)
REMARK    1  A    between atoms: C_1  and  C_2
REMARK    2  A    between atoms: C_2  and  N_3
REMARK    3  A    between atoms: C_5  and  C_14
REMARK    4  A    between atoms: C_14  and  N_58
REMARK    5  A    between atoms: C_15  and  N_58
REMARK    6  A    between atoms: C_16  and  C_17
REMARK    7  A    between atoms: C_16  and  N_58
REMARK    8  A    between atoms: C_23  and  C_28
REMARK                            x       y       z     vdW  Elec       q    Type
REMARK                         _______ _______ _______ _____ _____    ______ ____
ROOT
ATOM      1  C   UNL     1      -1.591   2.027  -0.019  0.00  0.00    -0.003 C 
ENDROOT
BRANCH   1   2
ATOM      2  C   UNL     1      -0.189   1.476  -0.045  0.00  0.00    +0.094 A 
ATOM      3  N   UNL     1       0.003   0.137   0.071  0.00  0.00    -0.312 N 
ATOM      4  H   UNL     1      -0.765  -0.447   0.172  0.00  0.00    +0.170 HD
ATOM      5  C   UNL     1       1.239  -0.397   0.048  0.00  0.00    +0.260 A 
ATOM      6  O   UNL     1       1.395  -1.601   0.154  0.00  0.00    -0.267 OA
ATOM      7  C   UNL     1       2.367   0.472  -0.102  0.00  0.00    +0.080 A 
ATOM      8  C   UNL     1       3.786   0.141  -0.155  0.00  0.00    +0.004 A 
ATOM      9  C   UNL     1       4.684   1.144  -0.304  0.00  0.00    +0.056 A 
ATOM     10  S   UNL     1       3.663   2.603  -0.382  0.00  0.00    -0.076 S 
ATOM     11  C   UNL     1       2.070   1.840  -0.215  0.00  0.00    +0.116 A 
ATOM     12  N   UNL     1       0.820   2.293  -0.183  0.00  0.00    -0.229 NA
BRANCH   8  13
ATOM     13  C   UNL     1       4.237  -1.267  -0.048  0.00  0.00    -0.017 A 
ATOM     14  C   UNL     1       3.772  -2.075   0.989  0.00  0.00    +0.008 A 
ATOM     15  C   UNL     1       4.192  -3.386   1.080  0.00  0.00    +0.001 A 
ATOM     16  C   UNL     1       5.081  -3.897   0.151  0.00  0.00    +0.000 A 
ATOM     17  C   UNL     1       5.550  -3.099  -0.877  0.00  0.00    +0.001 A 
ATOM     18  C   UNL     1       5.133  -1.788  -0.982  0.00  0.00    +0.008 A 
ENDBRANCH   8  13
ENDBRANCH   1   2
BRANCH   1  20
ATOM     19  C   UNL     1      -1.042   3.875  -1.485  0.00  0.00    -0.095 C 
ATOM     20  N   UNL     1      -1.527   3.499  -0.140  0.00  0.00    +0.385 N 
ATOM     21  H   UNL     1      -0.874   3.863   0.564  0.00  0.00    -0.081 HD
BRANCH  20  22
ATOM     22  C   UNL     1      -2.863   4.084   0.096  0.00  0.00    -0.032 C 
BRANCH  22  25
ATOM     23  N   UNL     1      -4.790   4.607   3.317  0.00  0.00    -0.324 N 
ATOM     24  C   UNL     1      -4.529   4.674   1.875  0.00  0.00    +0.147 C 
ATOM     25  C   UNL     1      -3.135   4.093   1.602  0.00  0.00    +0.174 C 
ATOM     26  O   UNL     1      -2.175   4.923   2.263  0.00  0.00    -0.487 OA
ATOM     27  C   UNL     1      -2.461   5.288   3.543  0.00  0.00    +0.142 A 
ATOM     28  C   UNL     1      -3.740   5.144   4.068  0.00  0.00    +0.072 A 
ATOM     29  C   UNL     1      -3.992   5.540   5.378  0.00  0.00    +0.027 A 
ATOM     30  C   UNL     1      -2.979   6.071   6.151  0.00  0.00    +0.002 A 
ATOM     31  C   UNL     1      -1.707   6.211   5.628  0.00  0.00    +0.004 A 
ATOM     32  C   UNL     1      -1.448   5.820   4.327  0.00  0.00    +0.047 A 
BRANCH  23  34
ATOM     33  C   UNL     1      -7.215   4.492   2.998  0.00  0.00    +0.024 C 
ATOM     34  C   UNL     1      -6.064   5.258   3.652  0.00  0.00    +0.102 C 
ENDBRANCH  23  34
ENDBRANCH  22  25
ENDBRANCH  20  22
ENDBRANCH   1  20
TORSDOF 6
