REMARK  Name = ZINC42376706
REMARK  3 active torsions:
REMARK  status: ('A' for Active; 'I' for Inactive)
REMARK    1  A    between atoms: C_1  and  C_2
REMARK    2  A    between atoms: C_7  and  C_10
REMARK    3  A    between atoms: C_12  and  N_18
REMARK                            x       y       z     vdW  Elec       q    Type
REMARK                         _______ _______ _______ _____ _____    ______ ____
ROOT
ATOM      1  C   UNL     1       0.000   1.517   0.032  0.00  0.00    +0.039 C 
ATOM      2  C   UNL     1       0.035  -0.013   0.033  0.00  0.00    +0.133 C 
ATOM      3  C   UNL     1       0.750  -0.510  -1.228  0.00  0.00    +0.138 C 
ATOM      4  N   UNL     1       2.169  -0.132  -1.136  0.00  0.00    -0.308 N 
ATOM      5  C   UNL     1       2.897  -0.471   0.097  0.00  0.00    +0.138 C 
ATOM      6  C   UNL     1       2.077   0.025   1.294  0.00  0.00    +0.133 C 
ATOM      7  O   UNL     1       0.740  -0.473   1.188  0.00  0.00    -0.371 OA
ATOM      8  C   UNL     1       2.710  -0.481   2.591  0.00  0.00    +0.039 C 
ATOM      9  C   UNL     1       2.804   0.525  -2.184  0.00  0.00    +0.152 A 
ATOM     10  C   UNL     1       3.509  -0.209  -3.133  0.00  0.00    +0.167 A 
ATOM     11  C   UNL     1       4.135   0.457  -4.170  0.00  0.00    +0.053 A 
ATOM     12  C   UNL     1       4.035   1.842  -4.225  0.00  0.00    +0.038 A 
ATOM     13  C   UNL     1       3.319   2.507  -3.249  0.00  0.00    +0.128 A 
ATOM     14  N   UNL     1       2.728   1.844  -2.273  0.00  0.00    -0.237 NA
ATOM     15 BR   UNL     1       4.872   2.806  -5.620  0.00  0.00    -0.049 Br
ENDROOT
BRANCH  10  16
ATOM     16  N   UNL     1       3.587  -1.684  -3.033  0.00  0.00    +0.060 N 
ATOM     17  O   UNL     1       4.286  -2.305  -3.799  0.00  0.00    -0.126 OA
ATOM     18  O   UNL     1       2.953  -2.267  -2.184  0.00  0.00    -0.126 OA
ENDBRANCH  10  16
TORSDOF 1
