REMARK  Name = ZINC41716357
REMARK  5 active torsions:
REMARK  status: ('A' for Active; 'I' for Inactive)
REMARK    1  A    between atoms: C_1  and  C_2
REMARK    2  A    between atoms: N_6  and  C_7
REMARK    3  A    between atoms: C_14  and  C_19
REMARK    4  A    between atoms: C_14  and  C_20
REMARK    5  A    between atoms: C_16  and  O_18
REMARK                            x       y       z     vdW  Elec       q    Type
REMARK                         _______ _______ _______ _____ _____    ______ ____
ROOT
ATOM      1  C   UNL     1      -0.018   1.503   0.010  0.00  0.00    +0.064 C 
ATOM      2  C   UNL     1       0.002  -0.004   0.002  0.00  0.00    +0.021 A 
ATOM      3  C   UNL     1       0.008  -0.790  -1.098  0.00  0.00    +0.029 A 
ATOM      4  C   UNL     1       0.029  -2.121  -0.658  0.00  0.00    +0.002 A 
ATOM      5  C   UNL     1       0.033  -2.107   0.695  0.00  0.00    +0.030 A 
ATOM      6  N   UNL     1       0.024  -0.811   1.105  0.00  0.00    -0.314 N 
ATOM      7  C   UNL     1       0.049  -3.348   1.553  0.00  0.00    +0.060 C 
ATOM      8  C   UNL     1      -0.355  -4.544   0.682  0.00  0.00    -0.027 C 
ATOM      9  C   UNL     1       0.478  -4.546  -0.603  0.00  0.00    +0.043 C 
ATOM     10  C   UNL     1       0.045  -3.375  -1.495  0.00  0.00    +0.147 C 
ATOM     11  C   UNL     1      -1.839  -4.437   0.326  0.00  0.00    +0.011 C 
ATOM     12  C   UNL     1      -0.107  -5.842   1.452  0.00  0.00    +0.011 C 
ENDROOT
BRANCH   6  13
ATOM     13  C   UNL     1       0.031  -0.372   2.444  0.00  0.00    +0.084 A 
ATOM     14  C   UNL     1       1.020   0.335   3.048  0.00  0.00    +0.131 A 
ATOM     15  N   UNL     1       0.642   0.557   4.327  0.00  0.00    -0.283 N 
ATOM     16  H   UNL     1       1.153   1.038   4.997  0.00  0.00    +0.188 HD
ATOM     17  N   UNL     1      -0.615  -0.032   4.516  0.00  0.00    -0.180 NA
ATOM     18  C   UNL     1      -0.984  -0.583   3.389  0.00  0.00    +0.160 A 
ENDBRANCH   6  13
BRANCH  10  19
ATOM     19  O   UNL     1       0.972  -3.223  -2.572  0.00  0.00    -0.387 OA
ATOM     20  H   UNL     1       0.766  -2.488  -3.167  0.00  0.00    +0.210 HD
ENDBRANCH  10  19
TORSDOF 2
