REMARK  Name = ZINC08285322
REMARK  6 active torsions:
REMARK  status: ('A' for Active; 'I' for Inactive)
REMARK    1  A    between atoms: C_1  and  N_2
REMARK    2  A    between atoms: N_2  and  C_3
REMARK    3  A    between atoms: C_3  and  C_4
REMARK    4  A    between atoms: N_6  and  C_7
REMARK    5  A    between atoms: C_14  and  C_16
REMARK    6  A    between atoms: C_16  and  C_17
REMARK                            x       y       z     vdW  Elec       q    Type
REMARK                         _______ _______ _______ _____ _____    ______ ____
ROOT
ATOM      1  C   UNL     1       3.129   8.062  -1.610  0.00  0.00    +0.132 C 
ATOM      2  N   UNL     1       3.339   7.435  -0.303  0.00  0.00    -0.296 N 
ATOM      3  C   UNL     1       3.266   8.178   0.820  0.00  0.00    +0.217 C 
ATOM      4  O   UNL     1       3.439   7.659   1.902  0.00  0.00    -0.276 OA
ENDROOT
BRANCH   2   5
ATOM      5  C   UNL     1       3.628   6.002  -0.216  0.00  0.00    +0.203 C 
BRANCH   5   6
ATOM      6  C   UNL     1       2.336   5.236  -0.094  0.00  0.00    +0.235 C 
ATOM      7  O   UNL     1       1.278   5.829  -0.082  0.00  0.00    -0.274 OA
ATOM      8  N   UNL     1       2.356   3.891   0.001  0.00  0.00    -0.283 N 
ATOM      9  H   UNL     1       3.202   3.423   0.071  0.00  0.00    +0.155 HD
BRANCH   8  10
ATOM     10  C   UNL     1       1.155   3.171  -0.004  0.00  0.00    +0.052 A 
ATOM     11  C   UNL     1       0.023   3.710  -0.599  0.00  0.00    +0.025 A 
ATOM     12  C   UNL     1      -1.161   2.998  -0.601  0.00  0.00    +0.002 A 
ATOM     13  C   UNL     1      -1.217   1.746  -0.015  0.00  0.00    +0.002 A 
ATOM     14  C   UNL     1      -0.093   1.208   0.583  0.00  0.00    +0.022 A 
ATOM     15  C   UNL     1       1.095   1.915   0.588  0.00  0.00    +0.062 A 
ATOM     16 CL   UNL     1       2.508   1.237   1.334  0.00  0.00    -0.082 Cl
ENDBRANCH   8  10
ENDBRANCH   5   6
ENDBRANCH   2   5
BRANCH   3  17
ATOM     17  C   UNL     1       2.969   9.652   0.730  0.00  0.00    +0.119 C 
BRANCH  17  18
ATOM     18  C   UNL     1       2.942  10.254   2.136  0.00  0.00    +0.146 C 
ATOM     19  C   UNL     1       2.550  11.706   2.059  0.00  0.00    +0.231 C 
ATOM     20  O   UNL     1       1.395  12.005   2.279  0.00  0.00    -0.274 OA
ATOM     21  N   UNL     1       3.407  12.677   1.760  0.00  0.00    -0.284 N 
ATOM     22  C   UNL     1       4.783  12.547   1.592  0.00  0.00    +0.047 A 
ATOM     23  C   UNL     1       5.485  13.558   0.943  0.00  0.00    +0.024 A 
ATOM     24  C   UNL     1       6.847  13.444   0.746  0.00  0.00    +0.002 A 
ATOM     25  C   UNL     1       7.529  12.326   1.191  0.00  0.00    +0.001 A 
ATOM     26  C   UNL     1       6.844  11.315   1.841  0.00  0.00    +0.016 A 
ATOM     27  C   UNL     1       5.479  11.426   2.044  0.00  0.00    +0.030 A 
ATOM     28  S   UNL     1       4.599  10.143   2.880  0.00  0.00    -0.110 S 
ATOM     29  H   UNL     1       3.037  13.566   1.648  0.00  0.00    +0.155 HD
ENDBRANCH  17  18
ENDBRANCH   3  17
TORSDOF 5
