REMARK  Name = ZINC56054353
REMARK  5 active torsions:
REMARK  status: ('A' for Active; 'I' for Inactive)
REMARK    1  A    between atoms: C_3  and  C_6
REMARK    2  A    between atoms: C_6  and  C_8
REMARK    3  A    between atoms: C_10  and  C_22
REMARK    4  A    between atoms: C_16  and  C_17
REMARK    5  A    between atoms: C_16  and  O_21
REMARK                            x       y       z     vdW  Elec       q    Type
REMARK                         _______ _______ _______ _____ _____    ______ ____
ROOT
ATOM      1  C   UNL     1       4.560   0.043   0.206  0.00  0.00    +0.147 C 
ATOM      2  C   UNL     1       5.569  -0.572  -0.769  0.00  0.00    +0.118 C 
ATOM      3  N   UNL     1       6.925  -0.238  -0.330  0.00  0.00    -0.319 N 
ATOM      4  C   UNL     1       7.210  -0.037   0.966  0.00  0.00    +0.133 C 
ATOM      5  S   UNL     1       8.822   0.336   1.405  0.00  0.00    -0.019 S 
ATOM      6  N   UNL     1       6.281  -0.117   1.930  0.00  0.00    -0.291 N 
ATOM      7  C   UNL     1       4.884  -0.445   1.622  0.00  0.00    +0.241 C 
ATOM      8  H   UNL     1       7.633  -0.160  -0.989  0.00  0.00    +0.148 HD
ATOM      9  H   UNL     1       6.538   0.045   2.852  0.00  0.00    +0.151 HD
ENDROOT
BRANCH   2  10
ATOM     10  C   UNL     1       5.335  -0.020  -2.151  0.00  0.00    -0.026 A 
ATOM     11  C   UNL     1       5.997   1.123  -2.559  0.00  0.00    +0.008 A 
ATOM     12  C   UNL     1       5.784   1.630  -3.827  0.00  0.00    +0.038 A 
ATOM     13  C   UNL     1       4.907   0.993  -4.689  0.00  0.00    +0.123 A 
ATOM     14  C   UNL     1       4.245  -0.152  -4.279  0.00  0.00    +0.038 A 
ATOM     15  C   UNL     1       4.464  -0.660  -3.012  0.00  0.00    +0.008 A 
ATOM     16  F   UNL     1       4.697   1.488  -5.928  0.00  0.00    -0.205 F 
ENDBRANCH   2  10
BRANCH   7  17
ATOM     17  C   UNL     1       4.685  -1.960   1.700  0.00  0.00    +0.436 C 
ATOM     18  F   UNL     1       5.536  -2.589   0.785  0.00  0.00    -0.166 F 
ATOM     19  F   UNL     1       4.982  -2.403   2.994  0.00  0.00    -0.166 F 
ATOM     20  F   UNL     1       3.357  -2.272   1.393  0.00  0.00    -0.166 F 
ENDBRANCH   7  17
BRANCH   1  21
ATOM     21  C   UNL     1       4.656   1.546   0.153  0.00  0.00    +0.208 C 
ATOM     22  O   UNL     1       5.733   2.079  -0.021  0.00  0.00    -0.288 OA
BRANCH  21  25
ATOM     23  C   UNL     1       2.092   4.060   0.472  0.00  0.00    +0.042 A 
ATOM     24  C   UNL     1       3.436   3.713   0.280  0.00  0.00    +0.053 A 
ATOM     25  C   UNL     1       3.493   2.334   0.307  0.00  0.00    +0.170 A 
ATOM     26  O   UNL     1       2.240   1.873   0.505  0.00  0.00    -0.460 OA
ATOM     27  C   UNL     1       1.396   2.907   0.605  0.00  0.00    +0.196 A 
ENDBRANCH  21  25
ENDBRANCH   1  21
BRANCH   7  28
ATOM     28  O   UNL     1       4.019   0.201   2.559  0.00  0.00    -0.364 OA
ATOM     29  H   UNL     1       4.169  -0.061   3.478  0.00  0.00    +0.212 HD
ENDBRANCH   7  28
TORSDOF 5
