REMARK  Name = ZINC39523276
REMARK  4 active torsions:
REMARK  status: ('A' for Active; 'I' for Inactive)
REMARK    1  A    between atoms: C_4  and  O_7
REMARK    2  A    between atoms: O_7  and  S_8
REMARK    3  A    between atoms: S_8  and  C_11
REMARK    4  A    between atoms: N_23  and  O_24
REMARK                            x       y       z     vdW  Elec       q    Type
REMARK                         _______ _______ _______ _____ _____    ______ ____
ROOT
ATOM      1  C   UNL     1       3.008  -2.422   1.830  0.00  0.00    +0.173 C 
ATOM      2  C   UNL     1       1.538  -2.094   1.562  0.00  0.00    +0.030 C 
ATOM      3  C   UNL     1       0.669  -3.292   1.952  0.00  0.00    +0.004 C 
ATOM      4  C   UNL     1       0.860  -3.599   3.438  0.00  0.00    +0.025 C 
ATOM      5  C   UNL     1       2.330  -3.926   3.708  0.00  0.00    +0.050 C 
ATOM      6  C   UNL     1       3.199  -2.729   3.317  0.00  0.00    +0.054 C 
ATOM      7  C   UNL     1       2.520  -4.229   5.196  0.00  0.00    +0.025 C 
ATOM      8  C   UNL     1       1.667  -5.440   5.579  0.00  0.00    +0.004 C 
ATOM      9  C   UNL     1       2.066  -6.633   4.706  0.00  0.00    +0.033 C 
ATOM     10  C   UNL     1       1.887  -6.261   3.232  0.00  0.00    +0.152 C 
ATOM     11  N   UNL     1       2.725  -5.097   2.914  0.00  0.00    -0.171 NA
ATOM     12 BR   UNL     1       2.422  -7.780   2.104  0.00  0.00    -0.069 Br
ENDROOT
BRANCH   1  13
ATOM     13  S   UNL     1       4.038  -1.003   1.368  0.00  0.00    +0.124 S 
ATOM     14  O   UNL     1       5.411  -1.369   1.384  0.00  0.00    -0.136 OA
ATOM     15  O   UNL     1       3.593   0.166   2.042  0.00  0.00    -0.136 OA
BRANCH  13  16
ATOM     16  O   UNL     1       3.720  -0.750  -0.099  0.00  0.00    -0.346 OA
BRANCH  16  20
ATOM     17  C   UNL     1       5.414  -3.486  -2.680  0.00  0.00    +0.000 A 
ATOM     18  C   UNL     1       4.144  -3.704  -2.179  0.00  0.00    +0.004 A 
ATOM     19  C   UNL     1       3.575  -2.790  -1.315  0.00  0.00    +0.048 A 
ATOM     20  C   UNL     1       4.279  -1.652  -0.949  0.00  0.00    +0.156 A 
ATOM     21  C   UNL     1       5.553  -1.435  -1.452  0.00  0.00    +0.048 A 
ATOM     22  C   UNL     1       6.118  -2.353  -2.317  0.00  0.00    +0.004 A 
ENDBRANCH  16  20
ENDBRANCH  13  16
ENDBRANCH   1  13
BRANCH  11  23
ATOM     23  O   UNL     1       2.686  -4.798   1.483  0.00  0.00    -0.311 OA
ATOM     24  H   UNL     1       2.939  -5.542   0.919  0.00  0.00    +0.237 HD
ENDBRANCH  11  23
TORSDOF 4
