REMARK  Name = ZINC03045434
REMARK  6 active torsions:
REMARK  status: ('A' for Active; 'I' for Inactive)
REMARK    1  A    between atoms: C_1  and  C_2
REMARK    2  A    between atoms: C_5  and  S_13
REMARK    3  A    between atoms: C_10  and  C_11
REMARK    4  A    between atoms: S_13  and  N_16
REMARK    5  A    between atoms: N_16  and  C_17
REMARK    6  A    between atoms: C_17  and  C_18
REMARK                            x       y       z     vdW  Elec       q    Type
REMARK                         _______ _______ _______ _____ _____    ______ ____
ROOT
ATOM      1  C   UNL     1       4.361  -1.751  -0.050  0.00  0.00    +0.048 C 
ATOM      2  C   UNL     1       3.802  -0.352  -0.036  0.00  0.00    +0.010 A 
ATOM      3  C   UNL     1       2.391   0.032  -0.021  0.00  0.00    +0.026 A 
ATOM      4  C   UNL     1       1.189  -0.680  -0.013  0.00  0.00    +0.040 A 
ATOM      5  C   UNL     1       0.002  -0.004   0.002  0.00  0.00    +0.106 A 
ATOM      6  C   UNL     1      -0.017   1.384   0.010  0.00  0.00    +0.032 A 
ATOM      7  C   UNL     1       1.158   2.105   0.002  0.00  0.00    +0.049 A 
ATOM      8  C   UNL     1       2.378   1.439  -0.013  0.00  0.00    +0.136 A 
ATOM      9  O   UNL     1       3.658   1.859  -0.023  0.00  0.00    -0.448 OA
ATOM     10  C   UNL     1       4.508   0.810  -0.037  0.00  0.00    +0.220 A 
ENDROOT
BRANCH  10  11
ATOM     11  C   UNL     1       5.972   0.909  -0.050  0.00  0.00    +0.421 C 
ATOM     12  O   UNL     1       6.650  -0.100  -0.061  0.00  0.00    -0.237 OA
ATOM     13  O   UNL     1       6.566   2.120  -0.049  0.00  0.00    -0.237 OA
ENDBRANCH  10  11
BRANCH   5  14
ATOM     14  S   UNL     1      -1.515  -0.900   0.012  0.00  0.00    +0.059 S 
ATOM     15  O   UNL     1      -1.226  -2.182   0.553  0.00  0.00    -0.153 OA
ATOM     16  O   UNL     1      -2.493  -0.037   0.578  0.00  0.00    -0.153 OA
BRANCH  14  17
ATOM     17  N   UNL     1      -1.953  -1.140  -1.567  0.00  0.00    -0.186 NA
ATOM     18  H   UNL     1      -2.759  -0.728  -1.915  0.00  0.00    +0.148 HD
BRANCH  17  19
ATOM     19  C   UNL     1      -1.122  -1.976  -2.438  0.00  0.00    +0.142 C 
BRANCH  19  20
ATOM     20  C   UNL     1      -1.899  -2.337  -3.677  0.00  0.00    -0.014 A 
ATOM     21  C   UNL     1      -2.496  -3.579  -3.782  0.00  0.00    +0.006 A 
ATOM     22  C   UNL     1      -3.213  -3.909  -4.917  0.00  0.00    +0.000 A 
ATOM     23  C   UNL     1      -3.325  -2.999  -5.953  0.00  0.00    +0.001 A 
ATOM     24  C   UNL     1      -2.724  -1.759  -5.852  0.00  0.00    +0.020 A 
ATOM     25  C   UNL     1      -2.010  -1.427  -4.714  0.00  0.00    +0.045 A 
ATOM     26 CL   UNL     1      -1.255   0.131  -4.586  0.00  0.00    -0.083 Cl
ENDBRANCH  19  20
ENDBRANCH  17  19
ENDBRANCH  14  17
ENDBRANCH   5  14
TORSDOF 5
