REMARK  Name = ZINC32755523
REMARK  10 active torsions:
REMARK  status: ('A' for Active; 'I' for Inactive)
REMARK    1  A    between atoms: C_1  and  C_2
REMARK    2  A    between atoms: C_2  and  N_3
REMARK    3  A    between atoms: N_3  and  C_4
REMARK    4  A    between atoms: N_3  and  S_18
REMARK    5  A    between atoms: C_4  and  C_5
REMARK    6  A    between atoms: N_7  and  C_8
REMARK    7  A    between atoms: C_13  and  C_14
REMARK    8  A    between atoms: S_18  and  N_21
REMARK    9  A    between atoms: C_23  and  C_30
REMARK   10  A    between atoms: C_26  and  C_29
REMARK                            x       y       z     vdW  Elec       q    Type
REMARK                         _______ _______ _______ _____ _____    ______ ____
ROOT
ATOM      1  N   UNL     1       2.406   1.042   0.006  0.00  0.00    +0.445 N 
ATOM      2  H   UNL     1       1.933   1.321   0.959  0.00  0.00    -0.043 HD
ENDROOT
BRANCH   1   3
ATOM      3  S   UNL     1       3.119   0.621  -1.429  0.00  0.00    +0.016 S 
ATOM      4  O   UNL     1       3.738  -0.641  -1.220  0.00  0.00    -0.173 OA
ATOM      5  O   UNL     1       2.146   0.833  -2.443  0.00  0.00    -0.173 OA
BRANCH   3   6
ATOM      6  N   UNL     1       4.338   1.706  -1.707  0.00  0.00    -0.193 NA
ATOM      7  C   UNL     1       4.082   2.942  -2.459  0.00  0.00    +0.110 C 
ATOM      8  C   UNL     1       4.561   4.135  -1.617  0.00  0.00    +0.002 C 
ATOM      9  C   UNL     1       6.027   3.925  -1.233  0.00  0.00    +0.009 C 
ATOM     10  C   UNL     1       6.159   2.655  -0.389  0.00  0.00    +0.002 C 
ATOM     11  C   UNL     1       5.697   1.449  -1.213  0.00  0.00    +0.110 C 
ATOM     12  C   UNL     1       5.288   2.782   0.863  0.00  0.00    +0.009 C 
ATOM     13  C   UNL     1       4.426   5.421  -2.433  0.00  0.00    +0.009 C 
ENDBRANCH   3   6
ENDBRANCH   1   3
BRANCH   1  15
ATOM     14  C   UNL     1       2.072  -0.754   1.632  0.00  0.00    -0.014 C 
ATOM     15  C   UNL     1       2.902   0.477   1.263  0.00  0.00    -0.046 C 
ENDBRANCH   1  15
BRANCH   1  16
ATOM     16  C   UNL     1       1.280   1.979   0.017  0.00  0.00    +0.054 C 
BRANCH  16  17
ATOM     17  C   UNL     1      -0.015   1.208   0.014  0.00  0.00    +0.204 C 
ATOM     18  O   UNL     1       0.001  -0.004   0.004  0.00  0.00    -0.277 OA
ATOM     19  N   UNL     1      -1.191   1.867   0.018  0.00  0.00    -0.286 N 
ATOM     20  H   UNL     1      -1.207   2.963   0.102  0.00  0.00    +0.155 HD
BRANCH  19  21
ATOM     21  C   UNL     1      -2.391   1.155  -0.086  0.00  0.00    +0.045 A 
ATOM     22  C   UNL     1      -2.510  -0.099   0.499  0.00  0.00    +0.024 A 
ATOM     23  C   UNL     1      -3.697  -0.796   0.400  0.00  0.00    +0.002 A 
ATOM     24  C   UNL     1      -4.765  -0.252  -0.291  0.00  0.00    +0.001 A 
ATOM     25  C   UNL     1      -4.648   0.994  -0.880  0.00  0.00    +0.014 A 
ATOM     26  C   UNL     1      -3.464   1.699  -0.779  0.00  0.00    +0.076 A 
BRANCH  26  27
ATOM     27  C   UNL     1      -3.338   3.057  -1.420  0.00  0.00    +0.419 C 
ATOM     28  F   UNL     1      -4.541   3.387  -2.055  0.00  0.00    -0.166 F 
ATOM     29  F   UNL     1      -3.052   4.011  -0.438  0.00  0.00    -0.166 F 
ATOM     30  F   UNL     1      -2.305   3.033  -2.363  0.00  0.00    -0.166 F 
ENDBRANCH  26  27
ENDBRANCH  19  21
ENDBRANCH  16  17
ENDBRANCH   1  16
TORSDOF 7
