REMARK  Name = ZINC48985510
REMARK  4 active torsions:
REMARK  status: ('A' for Active; 'I' for Inactive)
REMARK    1  A    between atoms: C_7  and  C_13
REMARK    2  A    between atoms: C_13  and  N_14
REMARK    3  A    between atoms: C_15  and  C_17
REMARK    4  A    between atoms: C_17  and  N_18
REMARK                            x       y       z     vdW  Elec       q    Type
REMARK                         _______ _______ _______ _____ _____    ______ ____
ROOT
ATOM      1  N   UNL     1       0.377  -4.384  -0.026  0.00  0.00    -0.308 N 
ATOM      2  C   UNL     1      -0.601  -5.312  -0.021  0.00  0.00    +0.233 C 
ATOM      3  O   UNL     1      -1.763  -4.967  -0.008  0.00  0.00    -0.274 OA
ATOM      4  H   UNL     1       1.307  -4.660  -0.037  0.00  0.00    +0.149 HD
ENDROOT
BRANCH   1   5
ATOM      5  C   UNL     1       0.036  -2.959  -0.014  0.00  0.00    +0.162 C 
BRANCH   5  12
ATOM      6  C   UNL     1      -0.017   1.363   0.009  0.00  0.00    +0.001 A 
ATOM      7  C   UNL     1       1.165   2.092   0.002  0.00  0.00    +0.001 A 
ATOM      8  C   UNL     1       2.386   1.454  -0.013  0.00  0.00    +0.014 A 
ATOM      9  C   UNL     1       2.429   0.060  -0.021  0.00  0.00    +0.050 A 
ATOM     10  C   UNL     1       1.224  -0.679  -0.013  0.00  0.00    +0.012 A 
ATOM     11  C   UNL     1       0.002  -0.004   0.002  0.00  0.00    +0.010 A 
ATOM     12  C   UNL     1       1.300  -2.140  -0.022  0.00  0.00    +0.086 A 
ATOM     13  N   UNL     1       2.458  -2.731  -0.037  0.00  0.00    -0.174 NA
ATOM     14  N   UNL     1       3.663  -2.028  -0.045  0.00  0.00    -0.242 N 
ATOM     15  H   UNL     1       4.497  -2.522  -0.056  0.00  0.00    +0.192 HD
ATOM     16  C   UNL     1       3.698  -0.679  -0.038  0.00  0.00    +0.272 A 
ATOM     17  O   UNL     1       4.762  -0.086  -0.046  0.00  0.00    -0.266 OA
ENDBRANCH   5  12
ENDBRANCH   1   5
BRANCH   2  18
ATOM     18  C   UNL     1      -0.249  -6.777  -0.033  0.00  0.00    +0.224 C 
BRANCH  18  19
ATOM     19  N   UNL     1      -1.478  -7.574  -0.025  0.00  0.00    -0.265 N 
ATOM     20  C   UNL     1      -2.162  -8.024   1.104  0.00  0.00    +0.091 A 
ATOM     21  C   UNL     1      -1.942  -7.891   2.466  0.00  0.00    +0.030 A 
ATOM     22  C   UNL     1      -2.820  -8.467   3.363  0.00  0.00    +0.002 A 
ATOM     23  C   UNL     1      -3.917  -9.176   2.906  0.00  0.00    +0.004 A 
ATOM     24  C   UNL     1      -4.143  -9.313   1.550  0.00  0.00    +0.048 A 
ATOM     25  C   UNL     1      -3.268  -8.738   0.642  0.00  0.00    +0.157 A 
ATOM     26  O   UNL     1      -3.230  -8.706  -0.713  0.00  0.00    -0.407 OA
ATOM     27  C   UNL     1      -2.158  -8.001  -1.108  0.00  0.00    +0.422 A 
ATOM     28  O   UNL     1      -1.847  -7.784  -2.263  0.00  0.00    -0.223 OA
ENDBRANCH  18  19
ENDBRANCH   2  18
TORSDOF 4
