REMARK  Name = ZINC09151784
REMARK  8 active torsions:
REMARK  status: ('A' for Active; 'I' for Inactive)
REMARK    1  A    between atoms: C_1  and  C_2
REMARK    2  A    between atoms: C_4  and  N_9
REMARK    3  A    between atoms: C_10  and  C_12
REMARK    4  A    between atoms: C_12  and  C_13
REMARK    5  A    between atoms: C_13  and  C_15
REMARK    6  A    between atoms: C_13  and  S_16
REMARK    7  A    between atoms: S_16  and  C_19
REMARK    8  A    between atoms: C_24  and  C_25
REMARK                            x       y       z     vdW  Elec       q    Type
REMARK                         _______ _______ _______ _____ _____    ______ ____
ROOT
ATOM      1  S   UNL     1       0.507   1.440   0.016  0.00  0.00    +0.000 S 
ATOM      2  O   UNL     1       0.574   0.021   0.006  0.00  0.00    -0.169 OA
ATOM      3  O   UNL     1       1.684   2.220   0.182  0.00  0.00    -0.169 OA
ENDROOT
BRANCH   1   4
ATOM      4  C   UNL     1      -0.097   1.873  -1.582  0.00  0.00    +0.095 A 
ATOM      5  C   UNL     1       0.573   2.817  -2.340  0.00  0.00    +0.074 A 
ATOM      6  C   UNL     1       0.098   3.157  -3.594  0.00  0.00    +0.144 A 
ATOM      7  C   UNL     1      -1.054   2.548  -4.089  0.00  0.00    +0.076 A 
ATOM      8  C   UNL     1      -1.720   1.604  -3.325  0.00  0.00    +0.032 A 
ATOM      9  C   UNL     1      -1.236   1.265  -2.075  0.00  0.00    -0.024 A 
ATOM     10  C   UNL     1      -1.957   0.234  -1.245  0.00  0.00    +0.046 C 
ATOM     11  N   UNL     1      -1.525   2.903  -5.361  0.00  0.00    -0.280 N 
ATOM     12  C   UNL     1      -0.705   3.573  -6.199  0.00  0.00    +0.255 C 
ATOM     13  O   UNL     1      -1.100   3.917  -7.293  0.00  0.00    -0.272 OA
ATOM     14  C   UNL     1       0.705   3.891  -5.770  0.00  0.00    +0.325 C 
ATOM     15  O   UNL     1       0.745   4.081  -4.353  0.00  0.00    -0.481 OA
ATOM     16  H   UNL     1      -2.426   2.670  -5.635  0.00  0.00    +0.155 HD
ENDBRANCH   1   4
BRANCH   1  17
ATOM     17  C   UNL     1      -0.779   1.997   1.168  0.00  0.00    +0.142 C 
ATOM     18  C   UNL     1      -1.059   3.484   0.940  0.00  0.00    +0.032 C 
BRANCH  17  19
ATOM     19  C   UNL     1      -0.303   1.783   2.606  0.00  0.00    +0.122 C 
BRANCH  19  21
ATOM     20  N   UNL     1       0.269  -0.122   4.077  0.00  0.00    -0.285 N 
ATOM     21  C   UNL     1      -0.144   0.307   2.868  0.00  0.00    +0.219 C 
ATOM     22  O   UNL     1      -0.388  -0.494   1.991  0.00  0.00    -0.275 OA
ATOM     23  H   UNL     1       0.537   0.519   4.754  0.00  0.00    +0.155 HD
BRANCH  20  27
ATOM     24  C   UNL     1       2.388  -3.907   6.391  0.00  0.00    +0.045 C 
ATOM     25  C   UNL     1       1.327  -3.354   5.475  0.00  0.00    -0.035 A 
ATOM     26  C   UNL     1       1.288  -2.001   5.201  0.00  0.00    +0.027 A 
ATOM     27  C   UNL     1       0.310  -1.493   4.356  0.00  0.00    +0.034 A 
ATOM     28  C   UNL     1      -0.630  -2.346   3.794  0.00  0.00    +0.024 A 
ATOM     29  C   UNL     1      -0.583  -3.699   4.067  0.00  0.00    +0.017 A 
ATOM     30  C   UNL     1       0.392  -4.203   4.909  0.00  0.00    +0.021 A 
ATOM     31 BR   UNL     1       0.449  -6.055   5.286  0.00  0.00    -0.050 Br
ENDBRANCH  20  27
ENDBRANCH  19  21
ENDBRANCH  17  19
ENDBRANCH   1  17
TORSDOF 5
