REMARK  Name = ZINC01320714
REMARK  6 active torsions:
REMARK  status: ('A' for Active; 'I' for Inactive)
REMARK    1  A    between atoms: C_1  and  O_2
REMARK    2  A    between atoms: O_2  and  C_3
REMARK    3  A    between atoms: C_3  and  C_5
REMARK    4  A    between atoms: C_5  and  N_6
REMARK    5  A    between atoms: C_14  and  C_15
REMARK    6  A    between atoms: C_14  and  C_17
REMARK                            x       y       z     vdW  Elec       q    Type
REMARK                         _______ _______ _______ _____ _____    ______ ____
ROOT
ATOM      1  N   UNL     1      -2.430   0.973   0.019  0.00  0.00    -0.256 N 
ATOM      2  C   UNL     1      -3.028   0.465  -1.130  0.00  0.00    +0.045 A 
ATOM      3  C   UNL     1      -2.777   0.692  -2.478  0.00  0.00    +0.025 A 
ATOM      4  C   UNL     1      -3.526   0.044  -3.442  0.00  0.00    +0.017 A 
ATOM      5  C   UNL     1      -4.529  -0.841  -3.081  0.00  0.00    +0.019 A 
ATOM      6  C   UNL     1      -4.792  -1.084  -1.748  0.00  0.00    +0.025 A 
ATOM      7  C   UNL     1      -4.042  -0.435  -0.767  0.00  0.00    +0.012 A 
ATOM      8  C   UNL     1      -4.065  -0.469   0.707  0.00  0.00    +0.074 C 
ATOM      9  C   UNL     1      -4.903  -1.213   1.521  0.00  0.00    +0.141 C 
ATOM     10  C   UNL     1      -2.994   0.467   1.129  0.00  0.00    +0.254 C 
ATOM     11  O   UNL     1      -2.683   0.730   2.274  0.00  0.00    -0.270 OA
ATOM     12 BR   UNL     1      -5.541  -1.716  -4.417  0.00  0.00    -0.050 Br
ENDROOT
BRANCH   9  13
ATOM     13  C   UNL     1      -4.784  -1.122   2.945  0.00  0.00    +0.111 C 
ATOM     14  N   UNL     1      -4.690  -1.050   4.075  0.00  0.00    -0.190 NA
ENDBRANCH   9  13
BRANCH   9  15
ATOM     15  C   UNL     1      -5.888  -2.073   0.938  0.00  0.00    +0.111 C 
ATOM     16  N   UNL     1      -6.670  -2.755   0.476  0.00  0.00    -0.190 NA
ENDBRANCH   9  15
BRANCH   1  17
ATOM     17  C   UNL     1      -1.329   1.940   0.019  0.00  0.00    +0.234 C 
BRANCH  17  18
ATOM     18  C   UNL     1      -0.014   1.204   0.009  0.00  0.00    +0.325 C 
ATOM     19  O   UNL     1       0.002  -0.004   0.002  0.00  0.00    -0.249 OA
BRANCH  18  21
ATOM     20  C   UNL     1       2.367   1.117  -0.015  0.00  0.00    +0.280 C 
ATOM     21  O   UNL     1       1.139   1.891   0.001  0.00  0.00    -0.467 OA
ENDBRANCH  18  21
ENDBRANCH  17  18
ENDBRANCH   1  17
TORSDOF 5
