REMARK  Name = ZINC01158382
REMARK  8 active torsions:
REMARK  status: ('A' for Active; 'I' for Inactive)
REMARK    1  A    between atoms: C_1  and  C_2
REMARK    2  A    between atoms: C_2  and  O_3
REMARK    3  A    between atoms: O_3  and  C_4
REMARK    4  A    between atoms: C_7  and  C_10
REMARK    5  A    between atoms: C_12  and  C_19
REMARK    6  A    between atoms: C_13  and  C_18
REMARK    7  A    between atoms: N_21  and  C_22
REMARK    8  A    between atoms: C_25  and  C_28
REMARK                            x       y       z     vdW  Elec       q    Type
REMARK                         _______ _______ _______ _____ _____    ______ ____
ROOT
ATOM      1  C   UNL     1       1.467  -4.973  -0.040  0.00  0.00    +0.142 C 
ATOM      2  C   UNL     1       2.811  -4.277   0.036  0.00  0.00    +0.056 C 
ATOM      3  C   UNL     1       3.914  -5.049   0.126  0.00  0.00    +0.019 C 
ATOM      4  N   UNL     1       3.821  -6.413   0.141  0.00  0.00    -0.273 N 
ATOM      5  C   UNL     1       2.662  -7.079   0.071  0.00  0.00    +0.304 C 
ATOM      6  O   UNL     1       2.679  -8.294   0.092  0.00  0.00    -0.252 OA
ATOM      7  N   UNL     1       1.476  -6.446  -0.022  0.00  0.00    -0.288 N 
ATOM      8  C   UNL     1       5.270  -4.397   0.210  0.00  0.00    +0.061 C 
ATOM      9  H   UNL     1       4.641  -6.927   0.206  0.00  0.00    +0.156 HD
ATOM     10  H   UNL     1       0.647  -6.948  -0.072  0.00  0.00    +0.151 HD
ENDROOT
BRANCH   1  14
ATOM     11  C   UNL     1      -0.461  -3.725  -3.644  0.00  0.00    +0.121 A 
ATOM     12  C   UNL     1      -0.839  -3.175  -2.428  0.00  0.00    +0.046 A 
ATOM     13  C   UNL     1      -0.214  -3.580  -1.264  0.00  0.00    +0.009 A 
ATOM     14  C   UNL     1       0.787  -4.533  -1.311  0.00  0.00    -0.022 A 
ATOM     15  C   UNL     1       1.169  -5.078  -2.522  0.00  0.00    +0.009 A 
ATOM     16  C   UNL     1       0.544  -4.681  -3.688  0.00  0.00    +0.046 A 
BRANCH  11  17
ATOM     17  O   UNL     1      -1.073  -3.327  -4.790  0.00  0.00    -0.492 OA
BRANCH  17  19
ATOM     18  C   UNL     1      -1.431  -3.366  -7.180  0.00  0.00    +0.048 C 
ATOM     19  C   UNL     1      -0.633  -3.936  -6.006  0.00  0.00    +0.225 C 
ENDBRANCH  17  19
ENDBRANCH  11  17
ENDBRANCH   1  14
BRANCH   2  20
ATOM     20  C   UNL     1       2.905  -2.864   0.020  0.00  0.00    +0.248 C 
ATOM     21  O   UNL     1       2.590  -2.221   1.005  0.00  0.00    -0.270 OA
ATOM     22  N   UNL     1       3.344  -2.231  -1.086  0.00  0.00    -0.282 N 
ATOM     23  H   UNL     1       3.476  -2.727  -1.909  0.00  0.00    +0.155 HD
BRANCH  22  24
ATOM     24  C   UNL     1       3.608  -0.858  -1.047  0.00  0.00    +0.034 A 
ATOM     25  C   UNL     1       4.619  -0.321  -1.833  0.00  0.00    +0.023 A 
ATOM     26  C   UNL     1       4.877   1.035  -1.793  0.00  0.00    +0.005 A 
ATOM     27  C   UNL     1       4.130   1.858  -0.971  0.00  0.00    -0.050 A 
ATOM     28  C   UNL     1       3.123   1.327  -0.186  0.00  0.00    +0.005 A 
ATOM     29  C   UNL     1       2.860  -0.028  -0.222  0.00  0.00    +0.023 A 
ATOM     30  C   UNL     1       4.415   3.338  -0.929  0.00  0.00    +0.044 C 
ENDBRANCH  22  24
ENDBRANCH   2  20
TORSDOF 5
