REMARK  Name = ZINC12470632
REMARK  3 active torsions:
REMARK  status: ('A' for Active; 'I' for Inactive)
REMARK    1  A    between atoms: C_1  and  N_2
REMARK    2  A    between atoms: N_5  and  O_21
REMARK    3  A    between atoms: C_6  and  C_15
REMARK                            x       y       z     vdW  Elec       q    Type
REMARK                         _______ _______ _______ _____ _____    ______ ____
ROOT
ATOM      1  C   UNL     1      -0.028   1.470   0.021  0.00  0.00    +0.172 C 
ATOM      2  N   UNL     1      -0.001   0.006   0.034  0.00  0.00    -0.273 NA
ATOM      3  C   UNL     1      -1.121  -0.669   0.027  0.00  0.00    +0.124 C 
ATOM      4  C   UNL     1      -0.971  -2.154   0.048  0.00  0.00    +0.222 C 
ATOM      5  N   UNL     1      -2.015  -2.758   0.873  0.00  0.00    -0.247 N 
ATOM      6  C   UNL     1      -3.314  -2.678   0.551  0.00  0.00    +0.081 C 
ATOM      7  C   UNL     1      -4.012  -1.622  -0.023  0.00  0.00    +0.026 A 
ATOM      8  C   UNL     1      -5.347  -1.858  -0.437  0.00  0.00    +0.032 A 
ATOM      9  C   UNL     1      -6.112  -0.839  -0.907  0.00  0.00    +0.042 A 
ATOM     10  C   UNL     1      -5.604   0.452  -1.016  0.00  0.00    +0.022 A 
ATOM     11  C   UNL     1      -4.316   0.731  -0.687  0.00  0.00    +0.028 A 
ATOM     12  C   UNL     1      -3.458  -0.286  -0.206  0.00  0.00    +0.050 A 
ATOM     13  N   UNL     1      -2.189   0.041   0.009  0.00  0.00    -0.342 N 
ATOM     14 CL   UNL     1      -7.753  -1.153  -1.381  0.00  0.00    -0.084 Cl
ATOM     15  H   UNL     1      -2.043   0.985   0.177  0.00  0.00    +0.167 HD
ENDROOT
BRANCH   6  16
ATOM     16  C   UNL     1      -4.113  -3.877   0.846  0.00  0.00    +0.001 A 
ATOM     17  C   UNL     1      -3.872  -5.071   0.156  0.00  0.00    +0.010 A 
ATOM     18  C   UNL     1      -4.625  -6.190   0.439  0.00  0.00    +0.001 A 
ATOM     19  C   UNL     1      -5.617  -6.136   1.403  0.00  0.00    +0.000 A 
ATOM     20  C   UNL     1      -5.862  -4.959   2.090  0.00  0.00    +0.001 A 
ATOM     21  C   UNL     1      -5.115  -3.832   1.823  0.00  0.00    +0.010 A 
ENDBRANCH   6  16
BRANCH   5  22
ATOM     22  O   UNL     1      -1.643  -3.450   2.051  0.00  0.00    -0.286 OA
ATOM     23  H   UNL     1      -0.690  -3.465   2.214  0.00  0.00    +0.244 HD
ENDBRANCH   5  22
TORSDOF 2
