REMARK  Name = ZINC04902937
REMARK  2 active torsions:
REMARK  status: ('A' for Active; 'I' for Inactive)
REMARK    1  A    between atoms: C_13  and  N_17
REMARK    2  A    between atoms: C_18  and  C_20
REMARK                            x       y       z     vdW  Elec       q    Type
REMARK                         _______ _______ _______ _____ _____    ______ ____
ROOT
ATOM      1  C   UNL     1       9.452   5.874   0.401  0.00  0.00    +0.001 A 
ATOM      2  C   UNL     1       8.211   6.480   0.326  0.00  0.00    +0.001 A 
ATOM      3  C   UNL     1       7.061   5.714   0.243  0.00  0.00    +0.012 A 
ATOM      4  C   UNL     1       7.151   4.325   0.235  0.00  0.00    +0.033 A 
ATOM      5  C   UNL     1       8.413   3.709   0.311  0.00  0.00    +0.033 A 
ATOM      6  C   UNL     1       9.559   4.494   0.394  0.00  0.00    +0.012 A 
ATOM      7  C   UNL     1       8.517   2.235   0.315  0.00  0.00    +0.195 C 
ATOM      8  O   UNL     1       9.607   1.702   0.381  0.00  0.00    -0.287 OA
ATOM      9  C   UNL     1       7.294   1.411   0.220  0.00  0.00    +0.035 A 
ATOM     10  C   UNL     1       7.383   0.023   0.205  0.00  0.00    +0.012 A 
ATOM     11  C   UNL     1       6.234  -0.747   0.115  0.00  0.00    +0.003 A 
ATOM     12  C   UNL     1       4.994  -0.149   0.040  0.00  0.00    +0.024 A 
ATOM     13  C   UNL     1       4.880   1.240   0.054  0.00  0.00    +0.045 A 
ATOM     14  C   UNL     1       6.033   2.030   0.138  0.00  0.00    +0.054 A 
ATOM     15  C   UNL     1       5.928   3.499   0.147  0.00  0.00    +0.196 C 
ATOM     16  O   UNL     1       4.838   4.032   0.081  0.00  0.00    -0.287 OA
ENDROOT
BRANCH  13  17
ATOM     17  N   UNL     1       3.627   1.839  -0.022  0.00  0.00    -0.281 N 
ATOM     18  C   UNL     1       2.567   1.260   0.575  0.00  0.00    +0.250 C 
ATOM     19  O   UNL     1       2.687   0.175   1.108  0.00  0.00    -0.270 OA
ATOM     20  H   UNL     1       3.517   2.674  -0.503  0.00  0.00    +0.155 HD
BRANCH  18  21
ATOM     21  C   UNL     1       1.257   1.945   0.580  0.00  0.00    +0.055 A 
ATOM     22  C   UNL     1       0.147   1.354   1.196  0.00  0.00    +0.016 A 
ATOM     23  C   UNL     1      -1.058   2.034   1.169  0.00  0.00    +0.020 A 
ATOM     24  C   UNL     1      -1.124   3.269   0.549  0.00  0.00    +0.111 A 
ATOM     25  N   UNL     1      -0.061   3.802  -0.024  0.00  0.00    -0.263 NA
ATOM     26  C   UNL     1       1.106   3.191  -0.029  0.00  0.00    +0.123 A 
ENDBRANCH  18  21
ENDBRANCH  13  17
TORSDOF 2
