REMARK  Name = ZINC64773842
REMARK  8 active torsions:
REMARK  status: ('A' for Active; 'I' for Inactive)
REMARK    1  A    between atoms: C_1  and  C_2
REMARK    2  A    between atoms: C_6  and  C_8
REMARK    3  A    between atoms: C_8  and  S_9
REMARK    4  A    between atoms: S_9  and  C_10
REMARK    5  A    between atoms: C_16  and  C_24
REMARK    6  A    between atoms: C_27  and  O_31
REMARK    7  A    between atoms: C_28  and  O_30
REMARK    8  A    between atoms: O_31  and  C_32
REMARK                            x       y       z     vdW  Elec       q    Type
REMARK                         _______ _______ _______ _____ _____    ______ ____
ROOT
ATOM      1  C   UNL     1       1.622  -4.015   4.517  0.00  0.00    +0.182 C 
ATOM      2  N   UNL     1       0.401  -4.285   4.947  0.00  0.00    -0.154 NA
ATOM      3  C   UNL     1       0.178  -4.894   6.114  0.00  0.00    +0.249 C 
ATOM      4  O   UNL     1      -0.947  -5.162   6.488  0.00  0.00    -0.273 OA
ATOM      5  C   UNL     1       1.396  -5.234   6.947  0.00  0.00    +0.148 C 
ATOM      6  C   UNL     1       1.361  -6.732   7.257  0.00  0.00    +0.047 C 
ATOM      7  C   UNL     1       2.490  -7.054   8.239  0.00  0.00    +0.105 C 
ATOM      8  C   UNL     1       3.792  -6.466   7.776  0.00  0.00    +0.219 C 
ATOM      9  O   UNL     1       4.823  -6.909   8.234  0.00  0.00    -0.275 OA
ATOM     10  N   UNL     1       3.864  -5.471   6.876  0.00  0.00    -0.273 N 
ATOM     11  C   UNL     1       2.740  -4.968   6.295  0.00  0.00    +0.117 C 
ATOM     12  N   UNL     1       2.753  -4.367   5.138  0.00  0.00    -0.212 NA
ATOM     13  H   UNL     1       4.727  -5.094   6.646  0.00  0.00    +0.156 HD
ENDROOT
BRANCH   6  14
ATOM     14  C   UNL     1       0.033  -7.090   7.872  0.00  0.00    -0.039 A 
ATOM     15  C   UNL     1      -0.364  -6.492   9.053  0.00  0.00    +0.008 A 
ATOM     16  C   UNL     1      -1.581  -6.818   9.622  0.00  0.00    +0.049 A 
ATOM     17  C   UNL     1      -2.407  -7.745   9.007  0.00  0.00    +0.161 A 
ATOM     18  C   UNL     1      -2.007  -8.347   7.817  0.00  0.00    +0.159 A 
ATOM     19  C   UNL     1      -0.788  -8.013   7.251  0.00  0.00    +0.053 A 
BRANCH  18  20
ATOM     20  O   UNL     1      -2.814  -9.258   7.210  0.00  0.00    -0.503 OA
ATOM     21  H   UNL     1      -3.435  -8.873   6.577  0.00  0.00    +0.292 HD
ENDBRANCH  18  20
BRANCH  17  22
ATOM     22  O   UNL     1      -3.604  -8.067   9.565  0.00  0.00    -0.491 OA
ATOM     23  C   UNL     1      -3.949  -7.410  10.786  0.00  0.00    +0.277 C 
ENDBRANCH  17  22
ENDBRANCH   6  14
BRANCH   1  24
ATOM     24  S   UNL     1       1.770  -3.127   3.002  0.00  0.00    -0.084 S 
BRANCH  24  25
ATOM     25  C   UNL     1       0.054  -2.845   2.489  0.00  0.00    +0.112 C 
BRANCH  25  31
ATOM     26  C   UNL     1      -0.018   1.503   0.010  0.00  0.00    +0.044 C 
ATOM     27  C   UNL     1       0.002  -0.004   0.002  0.00  0.00    -0.050 A 
ATOM     28  C   UNL     1       0.006  -0.689  -1.199  0.00  0.00    +0.003 A 
ATOM     29  C   UNL     1       0.025  -2.071  -1.207  0.00  0.00    +0.001 A 
ATOM     30  C   UNL     1       0.040  -2.768  -0.013  0.00  0.00    +0.004 A 
ATOM     31  C   UNL     1       0.037  -2.084   1.188  0.00  0.00    -0.037 A 
ATOM     32  C   UNL     1       0.023  -0.702   1.195  0.00  0.00    +0.007 A 
ENDBRANCH  25  31
ENDBRANCH  24  25
ENDBRANCH   1  24
TORSDOF 6
