REMARK  Name = ZINC17319924
REMARK  9 active torsions:
REMARK  status: ('A' for Active; 'I' for Inactive)
REMARK    1  A    between atoms: C_1  and  C_2
REMARK    2  A    between atoms: C_9  and  C_11
REMARK    3  A    between atoms: N_13  and  N_14
REMARK    4  A    between atoms: N_14  and  S_15
REMARK    5  A    between atoms: S_15  and  C_18
REMARK    6  A    between atoms: C_20  and  O_27
REMARK    7  A    between atoms: C_21  and  O_25
REMARK    8  A    between atoms: O_25  and  C_26
REMARK    9  A    between atoms: O_27  and  C_28
REMARK                            x       y       z     vdW  Elec       q    Type
REMARK                         _______ _______ _______ _____ _____    ______ ____
ROOT
ATOM      1  N   UNL     1      -0.973   2.654   7.249  0.00  0.00    -0.108 NA
ATOM      2  H   UNL     1      -1.313   3.545   7.425  0.00  0.00    +0.172 HD
ENDROOT
BRANCH   1   5
ATOM      3  C   UNL     1      -1.214   2.531   4.884  0.00  0.00    +0.265 C 
ATOM      4  O   UNL     1      -2.338   2.984   4.988  0.00  0.00    -0.268 OA
ATOM      5  N   UNL     1      -0.461   2.336   5.984  0.00  0.00    -0.227 N 
ATOM      6  H   UNL     1       0.436   1.975   5.901  0.00  0.00    +0.171 HD
BRANCH   3  14
ATOM      7  C   UNL     1      -0.726   1.330  -2.579  0.00  0.00    +0.008 C 
ATOM      8  C   UNL     1      -0.291   1.119  -1.128  0.00  0.00    -0.009 C 
ATOM      9  C   UNL     1       1.197   1.453  -0.990  0.00  0.00    +0.009 C 
ATOM     10  C   UNL     1       1.682   0.984   0.389  0.00  0.00    +0.043 C 
ATOM     11  C   UNL     1       0.708   1.460   1.421  0.00  0.00    -0.006 A 
ATOM     12  C   UNL     1      -0.555   1.936   1.203  0.00  0.00    -0.036 A 
ATOM     13  C   UNL     1      -1.277   2.322   2.321  0.00  0.00    +0.024 A 
ATOM     14  C   UNL     1      -0.677   2.199   3.560  0.00  0.00    +0.076 A 
ATOM     15  S   UNL     1       0.920   1.532   3.128  0.00  0.00    -0.088 S 
ATOM     16  C   UNL     1      -1.116   2.025  -0.214  0.00  0.00    +0.039 C 
ENDBRANCH   3  14
ENDBRANCH   1   5
BRANCH   1  17
ATOM     17  S   UNL     1      -0.999   1.507   8.444  0.00  0.00    +0.075 S 
ATOM     18  O   UNL     1       0.320   0.986   8.535  0.00  0.00    -0.152 OA
ATOM     19  O   UNL     1      -1.665   2.092   9.554  0.00  0.00    -0.152 OA
BRANCH  17  20
ATOM     20  C   UNL     1      -2.022   0.189   7.879  0.00  0.00    +0.124 A 
ATOM     21  C   UNL     1      -1.478  -1.063   7.662  0.00  0.00    +0.079 A 
ATOM     22  C   UNL     1      -2.281  -2.101   7.219  0.00  0.00    +0.163 A 
ATOM     23  C   UNL     1      -3.637  -1.880   6.992  0.00  0.00    +0.163 A 
ATOM     24  C   UNL     1      -4.177  -0.623   7.211  0.00  0.00    +0.066 A 
ATOM     25  C   UNL     1      -3.370   0.408   7.659  0.00  0.00    +0.048 A 
ATOM     26 BR   UNL     1      -4.110   2.121   7.965  0.00  0.00    -0.048 Br
BRANCH  23  27
ATOM     27  O   UNL     1      -4.429  -2.896   6.556  0.00  0.00    -0.491 OA
ATOM     28  C   UNL     1      -5.810  -2.596   6.345  0.00  0.00    +0.277 C 
ENDBRANCH  23  27
BRANCH  22  29
ATOM     29  O   UNL     1      -1.747  -3.333   7.005  0.00  0.00    -0.491 OA
ATOM     30  C   UNL     1      -0.349  -3.487   7.257  0.00  0.00    +0.277 C 
ENDBRANCH  22  29
ENDBRANCH  17  20
ENDBRANCH   1  17
TORSDOF 6
