REMARK  Name = ZINC21166246
REMARK  9 active torsions:
REMARK  status: ('A' for Active; 'I' for Inactive)
REMARK    1  A    between atoms: C_1  and  C_2
REMARK    2  A    between atoms: C_2  and  C_3
REMARK    3  A    between atoms: C_3  and  C_5
REMARK    4  A    between atoms: C_3  and  N_17
REMARK    5  A    between atoms: N_7  and  C_8
REMARK    6  A    between atoms: C_11  and  O_15
REMARK    7  A    between atoms: O_15  and  C_16
REMARK    8  A    between atoms: C_24  and  C_32
REMARK    9  A    between atoms: C_29  and  C_31
REMARK                            x       y       z     vdW  Elec       q    Type
REMARK                         _______ _______ _______ _____ _____    ______ ____
ROOT
ATOM      1  C   UNL     1      -2.351   0.059   4.175  0.00  0.00    +0.197 C 
ENDROOT
BRANCH   1   2
ATOM      2  N   UNL     1      -1.846   1.083   3.257  0.00  0.00    -0.214 N 
ATOM      3  C   UNL     1      -2.015   2.393   3.547  0.00  0.00    +0.292 A 
ATOM      4  O   UNL     1      -2.584   2.741   4.565  0.00  0.00    -0.264 OA
ATOM      5  C   UNL     1      -1.490   3.385   2.595  0.00  0.00    +0.115 A 
ATOM      6  C   UNL     1      -1.496   4.743   2.591  0.00  0.00    +0.041 A 
ATOM      7  C   UNL     1      -0.842   5.174   1.413  0.00  0.00    +0.001 A 
ATOM      8  C   UNL     1      -0.553   6.438   0.880  0.00  0.00    +0.013 A 
ATOM      9  C   UNL     1       0.108   6.538  -0.308  0.00  0.00    -0.050 A 
ATOM     10  C   UNL     1       0.499   5.398  -1.000  0.00  0.00    +0.005 A 
ATOM     11  C   UNL     1       0.227   4.146  -0.498  0.00  0.00    +0.027 A 
ATOM     12  C   UNL     1      -0.447   4.016   0.714  0.00  0.00    +0.056 A 
ATOM     13  N   UNL     1      -0.847   2.928   1.455  0.00  0.00    -0.291 N 
ATOM     14  C   UNL     1      -0.728   1.568   1.244  0.00  0.00    +0.132 A 
ATOM     15  N   UNL     1      -1.190   0.706   2.082  0.00  0.00    -0.154 NA
ATOM     16  C   UNL     1      -0.032   1.079  -0.000  0.00  0.00    +0.088 C 
ATOM     17  C   UNL     1       0.416   7.899  -0.878  0.00  0.00    +0.044 C 
ENDBRANCH   1   2
BRANCH   1  18
ATOM     18  C   UNL     1      -1.205  -0.793   4.656  0.00  0.00    +0.242 C 
ATOM     19  O   UNL     1      -0.078  -0.568   4.270  0.00  0.00    -0.273 OA
ATOM     20  N   UNL     1      -1.433  -1.807   5.515  0.00  0.00    -0.284 N 
ATOM     21  H   UNL     1      -2.442  -1.964   5.924  0.00  0.00    +0.155 HD
BRANCH  20  22
ATOM     22  C   UNL     1      -0.385  -2.659   5.886  0.00  0.00    +0.035 A 
ATOM     23  C   UNL     1      -0.635  -4.005   6.119  0.00  0.00    +0.027 A 
ATOM     24  C   UNL     1       0.399  -4.847   6.480  0.00  0.00    +0.049 A 
ATOM     25  C   UNL     1       1.685  -4.346   6.621  0.00  0.00    +0.138 A 
ATOM     26  C   UNL     1       1.934  -2.999   6.394  0.00  0.00    +0.084 A 
ATOM     27  C   UNL     1       0.901  -2.158   6.028  0.00  0.00    +0.047 A 
ATOM     28 CL   UNL     1       3.544  -2.373   6.571  0.00  0.00    -0.080 Cl
BRANCH  25  29
ATOM     29  O   UNL     1       2.701  -5.174   6.982  0.00  0.00    -0.494 OA
ATOM     30  C   UNL     1       2.373  -6.548   7.199  0.00  0.00    +0.277 C 
ENDBRANCH  25  29
ENDBRANCH  20  22
ENDBRANCH   1  18
BRANCH   1  32
ATOM     31  C   UNL     1      -4.591   0.022   3.069  0.00  0.00    +0.006 C 
ATOM     32  C   UNL     1      -3.371  -0.820   3.448  0.00  0.00    +0.033 C 
ENDBRANCH   1  32
TORSDOF 5
