REMARK  Name = ZINC58491021
REMARK  2 active torsions:
REMARK  status: ('A' for Active; 'I' for Inactive)
REMARK    1  A    between atoms: C_16  and  C_18
REMARK    2  A    between atoms: C_18  and  N_19
REMARK                            x       y       z     vdW  Elec       q    Type
REMARK                         _______ _______ _______ _____ _____    ______ ____
ROOT
ATOM      1  C   UNL     1      -0.017   1.385   0.010  0.00  0.00    +0.022 A 
ATOM      2  C   UNL     1       1.159   2.103   0.002  0.00  0.00    +0.027 A 
ATOM      3  C   UNL     1       2.380   1.437  -0.013  0.00  0.00    +0.047 A 
ATOM      4  C   UNL     1       2.401   0.029  -0.022  0.00  0.00    +0.006 A 
ATOM      5  C   UNL     1       1.200  -0.684  -0.013  0.00  0.00    +0.030 A 
ATOM      6  C   UNL     1       0.002  -0.004   0.002  0.00  0.00    +0.042 A 
ATOM      7 CL   UNL     1      -1.492  -0.888   0.012  0.00  0.00    -0.084 Cl
ATOM      8  C   UNL     1       3.809  -0.347  -0.040  0.00  0.00    -0.002 A 
ATOM      9  C   UNL     1       4.533   0.789  -0.043  0.00  0.00    +0.023 A 
ATOM     10  N   UNL     1       3.690   1.865  -0.024  0.00  0.00    -0.358 N 
ATOM     11  H   UNL     1       3.972   2.793  -0.019  0.00  0.00    +0.166 HD
ATOM     12  C   UNL     1       6.043   0.829  -0.070  0.00  0.00    +0.072 C 
ATOM     13  C   UNL     1       6.586  -0.537   0.365  0.00  0.00    +0.114 C 
ATOM     14  N   UNL     1       5.841  -1.596  -0.331  0.00  0.00    -0.295 N 
ATOM     15  C   UNL     1       4.401  -1.735  -0.049  0.00  0.00    +0.145 C 
ATOM     16  C   UNL     1       6.458  -2.417  -1.204  0.00  0.00    +0.236 C 
ATOM     17  O   UNL     1       5.828  -3.286  -1.770  0.00  0.00    -0.274 OA
ENDROOT
BRANCH  16  18
ATOM     18  C   UNL     1       7.931  -2.256  -1.478  0.00  0.00    +0.222 C 
BRANCH  18  19
ATOM     19  N   UNL     1       8.359  -3.261  -2.455  0.00  0.00    -0.292 N 
ATOM     20  C   UNL     1       8.799  -4.482  -2.022  0.00  0.00    +0.096 A 
ATOM     21  C   UNL     1       9.192  -5.408  -2.923  0.00  0.00    +0.088 A 
ATOM     22  C   UNL     1       9.142  -5.093  -4.302  0.00  0.00    +0.254 A 
ATOM     23  O   UNL     1       9.491  -5.912  -5.133  0.00  0.00    -0.268 OA
ATOM     24  N   UNL     1       8.702  -3.878  -4.688  0.00  0.00    -0.275 N 
ATOM     25  H   UNL     1       8.665  -3.655  -5.631  0.00  0.00    +0.173 HD
ATOM     26  C   UNL     1       8.311  -2.975  -3.769  0.00  0.00    +0.330 A 
ATOM     27  O   UNL     1       7.912  -1.885  -4.131  0.00  0.00    -0.246 OA
ENDBRANCH  18  19
ENDBRANCH  16  18
TORSDOF 2
