REMARK  Name = ZINC22400601
REMARK  12 active torsions:
REMARK  status: ('A' for Active; 'I' for Inactive)
REMARK    1  A    between atoms: C_1  and  C_2
REMARK    2  A    between atoms: C_4  and  C_32
REMARK    3  A    between atoms: C_5  and  N_9
REMARK    4  A    between atoms: C_6  and  C_8
REMARK    5  A    between atoms: N_9  and  C_10
REMARK    6  A    between atoms: N_9  and  S_28
REMARK    7  A    between atoms: C_10  and  C_11
REMARK    8  A    between atoms: C_20  and  S_22
REMARK    9  A    between atoms: S_22  and  N_25
REMARK   10  A    between atoms: N_25  and  C_26
REMARK   11  A    between atoms: N_25  and  C_27
REMARK   12  A    between atoms: S_28  and  C_31
REMARK                            x       y       z     vdW  Elec       q    Type
REMARK                         _______ _______ _______ _____ _____    ______ ____
ROOT
ATOM      1  C   UNL     1      -4.427   1.127   1.488  0.00  0.00    +0.239 C 
ATOM      2  O   UNL     1      -4.698   2.208   1.010  0.00  0.00    -0.273 OA
ATOM      3  N   UNL     1      -5.267   0.550   2.369  0.00  0.00    -0.269 N 
ATOM      4  C   UNL     1      -5.052  -0.752   3.007  0.00  0.00    +0.118 C 
ATOM      5  C   UNL     1      -6.272  -0.961   3.918  0.00  0.00    +0.056 C 
ATOM      6  C   UNL     1      -7.118   0.275   3.712  0.00  0.00    -0.023 A 
ATOM      7  C   UNL     1      -6.475   1.103   2.805  0.00  0.00    +0.040 A 
ATOM      8  C   UNL     1      -7.071   2.316   2.454  0.00  0.00    +0.026 A 
ATOM      9  C   UNL     1      -8.282   2.680   3.004  0.00  0.00    +0.030 A 
ATOM     10  C   UNL     1      -8.915   1.848   3.908  0.00  0.00    +0.106 A 
ATOM     11  C   UNL     1      -8.331   0.645   4.261  0.00  0.00    +0.034 A 
ENDROOT
BRANCH  10  12
ATOM     12  S   UNL     1     -10.462   2.318   4.609  0.00  0.00    +0.060 S 
ATOM     13  O   UNL     1     -10.580   1.616   5.838  0.00  0.00    -0.153 OA
ATOM     14  O   UNL     1     -10.529   3.735   4.530  0.00  0.00    -0.153 OA
BRANCH  12  15
ATOM     15  N   UNL     1     -11.648   1.732   3.613  0.00  0.00    -0.183 NA
ATOM     16  C   UNL     1     -12.200   0.394   3.839  0.00  0.00    +0.131 C 
ATOM     17  C   UNL     1     -12.147   2.553   2.507  0.00  0.00    +0.131 C 
ENDBRANCH  12  15
ENDBRANCH  10  12
BRANCH   1  18
ATOM     18  C   UNL     1      -3.150   0.428   1.095  0.00  0.00    +0.227 C 
BRANCH  18  19
ATOM     19  N   UNL     1      -2.350   1.314   0.246  0.00  0.00    -0.198 N 
BRANCH  19  24
ATOM     20  C   UNL     1       1.067   5.171   2.612  0.00  0.00    +0.044 C 
ATOM     21  C   UNL     1       0.161   4.146   1.981  0.00  0.00    -0.050 A 
ATOM     22  C   UNL     1      -0.938   4.555   1.248  0.00  0.00    +0.008 A 
ATOM     23  C   UNL     1      -1.771   3.619   0.667  0.00  0.00    -0.027 A 
ATOM     24  C   UNL     1      -1.507   2.264   0.826  0.00  0.00    +0.057 A 
ATOM     25  C   UNL     1      -0.399   1.857   1.558  0.00  0.00    -0.027 A 
ATOM     26  C   UNL     1       0.429   2.799   2.136  0.00  0.00    +0.008 A 
ATOM     27  C   UNL     1      -0.105   0.388   1.728  0.00  0.00    +0.046 C 
ATOM     28  C   UNL     1      -2.968   4.065  -0.132  0.00  0.00    +0.046 C 
ENDBRANCH  19  24
BRANCH  19  29
ATOM     29  S   UNL     1      -2.446   1.188  -1.403  0.00  0.00    +0.043 S 
ATOM     30  O   UNL     1      -3.793   0.818  -1.661  0.00  0.00    -0.155 OA
ATOM     31  O   UNL     1      -1.926   2.418  -1.890  0.00  0.00    -0.155 OA
ATOM     32  C   UNL     1      -1.329  -0.176  -1.831  0.00  0.00    +0.218 C 
ENDBRANCH  19  29
ENDBRANCH  18  19
ENDBRANCH   1  18
TORSDOF 6
