REMARK  Name = ZINC39664595
REMARK  10 active torsions:
REMARK  status: ('A' for Active; 'I' for Inactive)
REMARK    1  A    between atoms: C_1  and  N_2
REMARK    2  A    between atoms: N_2  and  C_3
REMARK    3  A    between atoms: N_2  and  C_4
REMARK    4  A    between atoms: C_4  and  C_5
REMARK    5  A    between atoms: C_5  and  C_7
REMARK    6  A    between atoms: C_5  and  N_13
REMARK    7  A    between atoms: C_14  and  C_16
REMARK    8  A    between atoms: C_27  and  C_29
REMARK    9  A    between atoms: C_34  and  O_35
REMARK   10  A    between atoms: O_35  and  C_36
REMARK                            x       y       z     vdW  Elec       q    Type
REMARK                         _______ _______ _______ _____ _____    ______ ____
ROOT
ATOM      1  C   UNL     1       1.246  -2.874  -2.534  0.00  0.00    +0.100 C 
ATOM      2  C   UNL     1       0.695  -4.210  -3.080  0.00  0.00    +0.121 C 
ATOM      3  N   UNL     1       1.875  -4.891  -3.664  0.00  0.00    -0.296 N 
ATOM      4  C   UNL     1       2.976  -4.597  -2.716  0.00  0.00    +0.115 C 
ATOM      5  C   UNL     1       2.743  -3.132  -2.296  0.00  0.00    -0.004 C 
ATOM      6  C   UNL     1       3.083  -2.947  -0.820  0.00  0.00    -0.010 C 
ATOM      7  C   UNL     1       4.587  -3.152  -0.617  0.00  0.00    -0.082 C 
ATOM      8  N   UNL     1       5.329  -2.185  -1.436  0.00  0.00    +0.379 N 
ATOM      9  C   UNL     1       5.069  -2.431  -2.860  0.00  0.00    -0.082 C 
ATOM     10  C   UNL     1       3.585  -2.195  -3.157  0.00  0.00    -0.010 C 
ATOM     11  C   UNL     1       1.933  -5.614  -4.800  0.00  0.00    +0.250 C 
ATOM     12  O   UNL     1       0.961  -5.684  -5.527  0.00  0.00    -0.270 OA
ATOM     13  H   UNL     1       5.036  -1.250  -1.198  0.00  0.00    -0.086 HD
ATOM     14  H   UNL     1       6.317  -2.282  -1.255  0.00  0.00    -0.086 HD
ENDROOT
BRANCH  11  15
ATOM     15  C   UNL     1       3.176  -6.321  -5.161  0.00  0.00    +0.078 A 
ATOM     16  C   UNL     1       3.984  -6.876  -4.165  0.00  0.00    +0.017 A 
ATOM     17  C   UNL     1       5.143  -7.536  -4.509  0.00  0.00    +0.001 A 
ATOM     18  C   UNL     1       5.513  -7.652  -5.839  0.00  0.00    +0.004 A 
ATOM     19  C   UNL     1       4.725  -7.108  -6.833  0.00  0.00    +0.046 A 
ATOM     20  C   UNL     1       3.551  -6.445  -6.505  0.00  0.00    +0.132 A 
BRANCH  20  21
ATOM     21  O   UNL     1       2.773  -5.915  -7.482  0.00  0.00    -0.494 OA
ATOM     22  C   UNL     1       3.219  -6.081  -8.829  0.00  0.00    +0.277 C 
ENDBRANCH  20  21
ENDBRANCH  11  15
BRANCH   1  24
ATOM     23  N   UNL     1       0.463  -3.428  -0.254  0.00  0.00    -0.310 N 
ATOM     24  C   UNL     1       0.563  -2.514  -1.240  0.00  0.00    +0.219 C 
ATOM     25  O   UNL     1       0.103  -1.403  -1.085  0.00  0.00    -0.275 OA
ATOM     26  H   UNL     1       0.882  -4.297  -0.354  0.00  0.00    +0.149 HD
BRANCH  23  27
ATOM     27  C   UNL     1      -0.278  -3.108   0.968  0.00  0.00    +0.087 C 
BRANCH  27  28
ATOM     28  C   UNL     1       0.470  -3.642   2.163  0.00  0.00    -0.029 A 
ATOM     29  C   UNL     1       1.089  -4.876   2.097  0.00  0.00    +0.005 A 
ATOM     30  C   UNL     1       1.775  -5.365   3.193  0.00  0.00    +0.000 A 
ATOM     31  C   UNL     1       1.842  -4.620   4.355  0.00  0.00    +0.000 A 
ATOM     32  C   UNL     1       1.224  -3.385   4.421  0.00  0.00    +0.000 A 
ATOM     33  C   UNL     1       0.542  -2.894   3.324  0.00  0.00    +0.005 A 
ENDBRANCH  27  28
BRANCH  27  34
ATOM     34  C   UNL     1      -1.665  -3.751   0.906  0.00  0.00    -0.052 C 
BRANCH  34  36
ATOM     35  C   UNL     1      -3.627  -4.019  -0.448  0.00  0.00    -0.097 C 
ATOM     36  N   UNL     1      -2.379  -3.263  -0.281  0.00  0.00    +0.377 N 
ATOM     37  C   UNL     1      -2.688  -1.836  -0.114  0.00  0.00    -0.097 C 
ATOM     38  H   UNL     1      -1.798  -3.387  -1.097  0.00  0.00    -0.083 HD
ENDBRANCH  34  36
ENDBRANCH  27  34
ENDBRANCH  23  27
ENDBRANCH   1  24
TORSDOF 7
