REMARK  Name = ZINC41479450
REMARK  3 active torsions:
REMARK  status: ('A' for Active; 'I' for Inactive)
REMARK    1  A    between atoms: C_1  and  N_2
REMARK    2  A    between atoms: C_3  and  C_5
REMARK    3  A    between atoms: C_5  and  C_6
REMARK                            x       y       z     vdW  Elec       q    Type
REMARK                         _______ _______ _______ _____ _____    ______ ____
ROOT
ATOM      1  C   UNL     1      -2.526  -2.838  -0.034  0.00  0.00    +0.035 C 
ATOM      2  C   UNL     1      -2.397  -4.352   0.155  0.00  0.00    +0.056 C 
ATOM      3  C   UNL     1      -3.745  -4.997  -0.181  0.00  0.00    +0.111 C 
ATOM      4  C   UNL     1      -4.844  -4.362   0.672  0.00  0.00    +0.048 C 
ATOM      5  C   UNL     1      -6.189  -5.008   0.334  0.00  0.00    +0.004 C 
ATOM      6  C   UNL     1      -6.121  -6.509   0.621  0.00  0.00    +0.000 C 
ATOM      7  C   UNL     1      -5.024  -7.143  -0.236  0.00  0.00    +0.004 C 
ATOM      8  C   UNL     1      -3.677  -6.498   0.102  0.00  0.00    +0.048 C 
ATOM      9  O   UNL     1      -4.022  -4.779  -1.564  0.00  0.00    -0.485 OA
ATOM     10  C   UNL     1      -3.888  -3.516  -2.047  0.00  0.00    +0.125 A 
ATOM     11  C   UNL     1      -3.178  -2.546  -1.361  0.00  0.00    +0.001 A 
ATOM     12  C   UNL     1      -3.059  -1.274  -1.896  0.00  0.00    +0.045 A 
ATOM     13  C   UNL     1      -3.649  -0.969  -3.109  0.00  0.00    +0.124 A 
ATOM     14  C   UNL     1      -4.363  -1.937  -3.793  0.00  0.00    +0.042 A 
ATOM     15  C   UNL     1      -4.484  -3.204  -3.264  0.00  0.00    +0.049 A 
ATOM     16  F   UNL     1      -3.528   0.274  -3.626  0.00  0.00    -0.205 F 
ENDROOT
BRANCH   1  17
ATOM     17  C   UNL     1      -1.135  -2.201   0.001  0.00  0.00    +0.104 C 
BRANCH  17  20
ATOM     18  C   UNL     1       1.307  -2.147   2.948  0.00  0.00    +0.128 C 
ATOM     19  N   UNL     1       0.731  -1.988   1.611  0.00  0.00    -0.318 N 
ATOM     20  C   UNL     1      -0.542  -2.365   1.377  0.00  0.00    +0.213 C 
ATOM     21  O   UNL     1      -1.210  -2.836   2.273  0.00  0.00    -0.276 OA
ATOM     22  H   UNL     1       1.265  -1.611   0.894  0.00  0.00    +0.148 HD
ENDBRANCH  17  20
ENDBRANCH   1  17
TORSDOF 2
