REMARK  Name = ZINC02349839
REMARK  5 active torsions:
REMARK  status: ('A' for Active; 'I' for Inactive)
REMARK    1  A    between atoms: C_1  and  O_2
REMARK    2  A    between atoms: O_2  and  C_3
REMARK    3  A    between atoms: C_5  and  S_10
REMARK    4  A    between atoms: S_10  and  N_13
REMARK    5  A    between atoms: N_16  and  C_19
REMARK                            x       y       z     vdW  Elec       q    Type
REMARK                         _______ _______ _______ _____ _____    ______ ____
ROOT
ATOM      1  N   UNL     1      -5.504   0.670  -1.540  0.00  0.00    -0.174 NA
ATOM      2  C   UNL     1      -5.004   1.847  -2.263  0.00  0.00    +0.128 C 
ATOM      3  C   UNL     1      -4.300   1.374  -3.541  0.00  0.00    +0.122 C 
ATOM      4  N   UNL     1      -5.184   0.434  -4.244  0.00  0.00    -0.327 N 
ATOM      5  C   UNL     1      -5.685  -0.743  -3.520  0.00  0.00    +0.122 C 
ATOM      6  C   UNL     1      -6.384  -0.273  -2.244  0.00  0.00    +0.128 C 
ENDROOT
BRANCH   4   7
ATOM      7  C   UNL     1      -5.544   0.656  -5.577  0.00  0.00    +0.030 A 
ATOM      8  C   UNL     1      -6.285  -0.296  -6.265  0.00  0.00    +0.026 A 
ATOM      9  C   UNL     1      -6.639  -0.074  -7.581  0.00  0.00    +0.040 A 
ATOM     10  C   UNL     1      -6.256   1.096  -8.215  0.00  0.00    +0.124 A 
ATOM     11  C   UNL     1      -5.517   2.046  -7.531  0.00  0.00    +0.040 A 
ATOM     12  C   UNL     1      -5.165   1.831  -6.213  0.00  0.00    +0.026 A 
ATOM     13  F   UNL     1      -6.604   1.310  -9.503  0.00  0.00    -0.205 F 
ENDBRANCH   4   7
BRANCH   1  14
ATOM     14  S   UNL     1      -5.078   0.407   0.039  0.00  0.00    +0.061 S 
ATOM     15  O   UNL     1      -6.091  -0.416   0.601  0.00  0.00    -0.153 OA
ATOM     16  O   UNL     1      -4.737   1.674   0.584  0.00  0.00    -0.153 OA
BRANCH  14  19
ATOM     17  C   UNL     1      -1.206  -0.676   0.005  0.00  0.00    +0.140 A 
ATOM     18  C   UNL     1      -2.370   0.078   0.014  0.00  0.00    +0.075 A 
ATOM     19  C   UNL     1      -3.599  -0.551   0.027  0.00  0.00    +0.109 A 
ATOM     20  C   UNL     1      -3.671  -1.932   0.031  0.00  0.00    +0.030 A 
ATOM     21  C   UNL     1      -2.513  -2.687   0.022  0.00  0.00    +0.025 A 
ATOM     22  C   UNL     1      -1.280  -2.062   0.003  0.00  0.00    +0.083 A 
ATOM     23 CL   UNL     1       0.174  -3.010  -0.015  0.00  0.00    -0.080 Cl
BRANCH  17  25
ATOM     24  C   UNL     1       0.005   1.370  -0.005  0.00  0.00    +0.277 C 
ATOM     25  O   UNL     1       0.005  -0.059  -0.008  0.00  0.00    -0.494 OA
ENDBRANCH  17  25
ENDBRANCH  14  19
ENDBRANCH   1  14
TORSDOF 4
