REMARK  Name = ZINC55107399
REMARK  6 active torsions:
REMARK  status: ('A' for Active; 'I' for Inactive)
REMARK    1  A    between atoms: C_1  and  C_2
REMARK    2  A    between atoms: C_2  and  C_3
REMARK    3  A    between atoms: C_2  and  C_4
REMARK    4  A    between atoms: C_2  and  C_5
REMARK    5  A    between atoms: C_5  and  N_6
REMARK    6  A    between atoms: N_19  and  C_22
REMARK                            x       y       z     vdW  Elec       q    Type
REMARK                         _______ _______ _______ _____ _____    ______ ____
ROOT
ATOM      1  N   UNL     1       1.967   0.034  -1.143  0.00  0.00    -0.267 N 
ATOM      2  C   UNL     1       2.144   1.360  -1.556  0.00  0.00    +0.057 A 
ATOM      3  C   UNL     1       1.055   2.194  -1.747  0.00  0.00    +0.025 A 
ATOM      4  C   UNL     1       1.250   3.500  -2.159  0.00  0.00    +0.002 A 
ATOM      5  C   UNL     1       2.529   3.978  -2.382  0.00  0.00    +0.002 A 
ATOM      6  C   UNL     1       3.623   3.153  -2.193  0.00  0.00    +0.025 A 
ATOM      7  C   UNL     1       3.434   1.847  -1.779  0.00  0.00    +0.050 A 
ATOM      8  N   UNL     1       4.524   0.989  -1.573  0.00  0.00    -0.329 N 
ATOM      9  C   UNL     1       4.380  -0.083  -0.578  0.00  0.00    +0.106 C 
ATOM     10  C   UNL     1       3.008  -0.691  -0.691  0.00  0.00    +0.243 C 
ATOM     11  O   UNL     1       2.838  -1.849  -0.375  0.00  0.00    -0.273 OA
ATOM     12  C   UNL     1       5.442  -1.155  -0.831  0.00  0.00    +0.016 C 
ATOM     13  C   UNL     1       6.832  -0.546  -0.633  0.00  0.00    -0.076 C 
ATOM     14  N   UNL     1       6.958  -0.044   0.740  0.00  0.00    +0.382 N 
ATOM     15  C   UNL     1       5.993   1.038   0.965  0.00  0.00    -0.076 C 
ATOM     16  C   UNL     1       4.569   0.495   0.826  0.00  0.00    +0.016 C 
ATOM     17  H   UNL     1       5.348   1.099  -2.072  0.00  0.00    +0.147 HD
ATOM     18  H   UNL     1       6.777  -0.795   1.390  0.00  0.00    -0.081 HD
ENDROOT
BRANCH  14  19
ATOM     19  C   UNL     1       8.320   0.464   0.952  0.00  0.00    -0.069 C 
ATOM     20  C   UNL     1       9.342  -0.681   0.798  0.00  0.00    -0.015 C 
ATOM     21  C   UNL     1      10.416  -0.379   1.872  0.00  0.00    -0.002 C 
ATOM     22  C   UNL     1       9.573   0.153   3.058  0.00  0.00    -0.002 C 
ATOM     23  C   UNL     1       8.467   0.994   2.389  0.00  0.00    -0.015 C 
ENDBRANCH  14  19
BRANCH   1  24
ATOM     24  C   UNL     1       0.633  -0.569  -1.198  0.00  0.00    +0.120 C 
BRANCH  24  26
ATOM     25  C   UNL     1       1.392  -2.387  -2.735  0.00  0.00    +0.012 C 
ATOM     26  C   UNL     1       0.422  -1.215  -2.569  0.00  0.00    -0.022 C 
ATOM     27  C   UNL     1       0.679  -0.180  -3.666  0.00  0.00    +0.012 C 
ATOM     28  C   UNL     1      -1.017  -1.725  -2.676  0.00  0.00    +0.012 C 
ENDBRANCH  24  26
ENDBRANCH   1  24
TORSDOF 3
