REMARK  Name = ZINC13838415
REMARK  6 active torsions:
REMARK  status: ('A' for Active; 'I' for Inactive)
REMARK    1  A    between atoms: C_1  and  C_2
REMARK    2  A    between atoms: C_3  and  C_12
REMARK    3  A    between atoms: N_22  and  C_23
REMARK    4  A    between atoms: C_23  and  C_24
REMARK    5  A    between atoms: C_28  and  C_35
REMARK    6  A    between atoms: C_31  and  C_34
REMARK                            x       y       z     vdW  Elec       q    Type
REMARK                         _______ _______ _______ _____ _____    ______ ____
ROOT
ATOM      1  C   UNL     1      -0.459   2.837  -1.872  0.00  0.00    +0.140 C 
ATOM      2  C   UNL     1      -1.430   2.896  -3.025  0.00  0.00    -0.010 A 
ATOM      3  C   UNL     1      -1.663   3.822  -4.016  0.00  0.00    +0.006 A 
ATOM      4  C   UNL     1      -2.649   3.592  -4.960  0.00  0.00    +0.000 A 
ATOM      5  C   UNL     1      -3.403   2.433  -4.910  0.00  0.00    +0.001 A 
ATOM      6  C   UNL     1      -3.179   1.498  -3.921  0.00  0.00    +0.013 A 
ATOM      7  C   UNL     1      -2.185   1.722  -2.966  0.00  0.00    +0.042 A 
ATOM      8  C   UNL     1      -1.715   0.927  -1.815  0.00  0.00    +0.248 C 
ATOM      9  O   UNL     1      -2.163  -0.155  -1.489  0.00  0.00    -0.270 OA
ATOM     10  N   UNL     1      -0.721   1.571  -1.179  0.00  0.00    -0.278 N 
ENDROOT
BRANCH   1  13
ATOM     11  C   UNL     1       0.995   0.520  -3.339  0.00  0.00    +0.063 C 
ATOM     12  C   UNL     1       1.594   1.866  -3.022  0.00  0.00    +0.019 A 
ATOM     13  C   UNL     1       0.957   2.863  -2.387  0.00  0.00    +0.005 A 
ATOM     14  C   UNL     1       1.902   3.977  -2.283  0.00  0.00    +0.005 A 
ATOM     15  C   UNL     1       1.833   5.260  -1.735  0.00  0.00    +0.010 A 
ATOM     16  C   UNL     1       2.921   6.084  -1.801  0.00  0.00    +0.001 A 
ATOM     17  C   UNL     1       4.094   5.658  -2.409  0.00  0.00    +0.002 A 
ATOM     18  C   UNL     1       4.183   4.396  -2.955  0.00  0.00    +0.026 A 
ATOM     19  C   UNL     1       3.088   3.540  -2.900  0.00  0.00    +0.047 A 
ATOM     20  N   UNL     1       2.866   2.255  -3.341  0.00  0.00    -0.358 N 
ATOM     21  H   UNL     1       3.517   1.705  -3.805  0.00  0.00    +0.166 HD
ENDBRANCH   1  13
BRANCH  10  22
ATOM     22  C   UNL     1      -0.013   1.086   0.008  0.00  0.00    +0.204 C 
BRANCH  22  23
ATOM     23  C   UNL     1      -0.718   1.572   1.248  0.00  0.00    +0.233 C 
ATOM     24  O   UNL     1      -1.714   2.256   1.150  0.00  0.00    -0.274 OA
ATOM     25  N   UNL     1      -0.242   1.246   2.466  0.00  0.00    -0.300 N 
ATOM     26  C   UNL     1       0.961   0.413   2.601  0.00  0.00    +0.111 C 
ATOM     27  C   UNL     1       1.965   1.147   3.502  0.00  0.00    +0.004 C 
ATOM     28  C   UNL     1       1.290   1.495   4.830  0.00  0.00    +0.009 C 
ATOM     29  C   UNL     1       0.104   2.427   4.573  0.00  0.00    +0.004 C 
ATOM     30  C   UNL     1      -0.918   1.712   3.684  0.00  0.00    +0.111 C 
ATOM     31  C   UNL     1       0.594   3.695   3.870  0.00  0.00    +0.009 C 
ATOM     32  C   UNL     1       3.171   0.241   3.764  0.00  0.00    +0.009 C 
ENDBRANCH  22  23
ENDBRANCH  10  22
TORSDOF 3
