REMARK  Name = ZINC19721109
REMARK  5 active torsions:
REMARK  status: ('A' for Active; 'I' for Inactive)
REMARK    1  A    between atoms: C_10  and  C_11
REMARK    2  A    between atoms: C_11  and  N_12
REMARK    3  A    between atoms: N_15  and  C_18
REMARK    4  A    between atoms: N_26  and  C_29
REMARK    5  A    between atoms: C_29  and  C_30
REMARK                            x       y       z     vdW  Elec       q    Type
REMARK                         _______ _______ _______ _____ _____    ______ ____
ROOT
ATOM      1  N   UNL     1       2.115   0.129   1.279  0.00  0.00    -0.295 NA
ATOM      2  C   UNL     1       0.747  -0.409   1.256  0.00  0.00    +0.103 C 
ATOM      3  C   UNL     1      -0.018   0.199   0.078  0.00  0.00    +0.120 C 
ATOM      4  N   UNL     1      -0.033   1.663   0.210  0.00  0.00    -0.327 N 
ATOM      5  C   UNL     1       1.335   2.201   0.233  0.00  0.00    +0.120 C 
ATOM      6  C   UNL     1       2.100   1.593   1.411  0.00  0.00    +0.103 C 
ENDROOT
BRANCH   4   7
ATOM      7  C   UNL     1      -0.779   2.245  -0.803  0.00  0.00    +0.043 A 
ATOM      8  C   UNL     1      -0.419   2.057  -2.140  0.00  0.00    +0.024 A 
ATOM      9  C   UNL     1      -1.159   2.635  -3.148  0.00  0.00    +0.003 A 
ATOM     10  C   UNL     1      -2.273   3.411  -2.853  0.00  0.00    +0.014 A 
ATOM     11  C   UNL     1      -2.647   3.610  -1.536  0.00  0.00    +0.051 A 
ATOM     12  C   UNL     1      -1.897   3.018  -0.496  0.00  0.00    +0.070 A 
ATOM     13  C   UNL     1      -2.560   3.418   0.757  0.00  0.00    +0.256 C 
ATOM     14  O   UNL     1      -2.205   3.107   1.877  0.00  0.00    -0.269 OA
ATOM     15  N   UNL     1      -3.623   4.185   0.456  0.00  0.00    -0.230 N 
ATOM     16  C   UNL     1      -3.739   4.352  -0.874  0.00  0.00    +0.254 C 
ATOM     17  O   UNL     1      -4.603   4.995  -1.436  0.00  0.00    -0.270 OA
BRANCH  15  18
ATOM     18  C   UNL     1      -4.530   4.771   1.447  0.00  0.00    +0.152 C 
BRANCH  18  19
ATOM     19  C   UNL     1      -4.022   6.131   1.851  0.00  0.00    -0.023 A 
ATOM     20  C   UNL     1      -4.422   7.261   1.163  0.00  0.00    +0.013 A 
ATOM     21  C   UNL     1      -3.946   8.470   1.552  0.00  0.00    +0.045 A 
ATOM     22  S   UNL     1      -2.900   8.029   2.929  0.00  0.00    -0.105 S 
ATOM     23  C   UNL     1      -3.171   6.265   2.897  0.00  0.00    +0.050 A 
ENDBRANCH  18  19
ENDBRANCH  15  18
ENDBRANCH   4   7
BRANCH   1  24
ATOM     24  C   UNL     1       2.905  -0.488   2.352  0.00  0.00    +0.120 C 
BRANCH  24  34
ATOM     25  C   UNL     1       6.473  -2.264  -0.861  0.00  0.00    +0.001 A 
ATOM     26  C   UNL     1       5.119  -2.526  -0.656  0.00  0.00    +0.001 A 
ATOM     27  C   UNL     1       4.416  -1.872   0.308  0.00  0.00    +0.009 A 
ATOM     28  C   UNL     1       5.063  -0.919   1.115  0.00  0.00    -0.013 A 
ATOM     29  C   UNL     1       6.439  -0.649   0.904  0.00  0.00    -0.018 A 
ATOM     30  C   UNL     1       7.131  -1.346  -0.102  0.00  0.00    +0.008 A 
ATOM     31  C   UNL     1       7.084   0.306   1.707  0.00  0.00    +0.008 A 
ATOM     32  C   UNL     1       6.381   0.961   2.671  0.00  0.00    +0.001 A 
ATOM     33  C   UNL     1       5.028   0.699   2.875  0.00  0.00    +0.005 A 
ATOM     34  C   UNL     1       4.369  -0.219   2.116  0.00  0.00    -0.026 A 
ENDBRANCH  24  34
ENDBRANCH   1  24
TORSDOF 5
