REMARK  Name = ZINC19957623
REMARK  7 active torsions:
REMARK  status: ('A' for Active; 'I' for Inactive)
REMARK    1  A    between atoms: C_1  and  N_2
REMARK    2  A    between atoms: C_6  and  C_7
REMARK    3  A    between atoms: C_7  and  N_8
REMARK    4  A    between atoms: N_8  and  C_9
REMARK    5  A    between atoms: N_8  and  C_10
REMARK    6  A    between atoms: N_21  and  C_24
REMARK    7  A    between atoms: C_24  and  C_25
REMARK                            x       y       z     vdW  Elec       q    Type
REMARK                         _______ _______ _______ _____ _____    ______ ____
ROOT
ATOM      1  C   UNL     1       3.963   3.034   2.644  0.00  0.00    +0.062 C 
ATOM      2  C   UNL     1       4.537   4.400   2.257  0.00  0.00    +0.024 C 
ATOM      3  C   UNL     1       6.016   4.468   2.639  0.00  0.00    +0.038 C 
ATOM      4  C   UNL     1       6.165   4.090   4.110  0.00  0.00    -0.023 A 
ATOM      5  C   UNL     1       5.180   3.414   4.749  0.00  0.00    -0.003 A 
ATOM      6  S   UNL     1       5.771   3.193   6.409  0.00  0.00    -0.073 S 
ATOM      7  C   UNL     1       7.330   4.003   6.242  0.00  0.00    +0.116 A 
ATOM      8  C   UNL     1       7.341   4.421   4.894  0.00  0.00    +0.076 A 
ATOM      9  C   UNL     1       8.506   5.126   4.439  0.00  0.00    +0.263 A 
ATOM     10  O   UNL     1       8.614   5.530   3.294  0.00  0.00    -0.267 OA
ATOM     11  N   UNL     1       9.476   5.314   5.364  0.00  0.00    -0.294 N 
ATOM     12  C   UNL     1       9.375   4.875   6.642  0.00  0.00    +0.203 A 
ATOM     13  N   UNL     1       8.325   4.226   7.095  0.00  0.00    -0.230 NA
ATOM     14  C   UNL     1       3.876   2.954   4.175  0.00  0.00    +0.061 C 
ENDROOT
BRANCH   1  15
ATOM     15  N   UNL     1       2.621   2.881   2.066  0.00  0.00    -0.295 NA
ATOM     16  C   UNL     1       2.155   1.493   2.178  0.00  0.00    +0.105 C 
BRANCH  15  17
ATOM     17  C   UNL     1       1.669   3.808   2.692  0.00  0.00    +0.156 C 
BRANCH  17  23
ATOM     18  C   UNL     1      -0.763   1.952   3.183  0.00  0.00    +0.150 C 
ATOM     19  N   UNL     1      -0.673   2.984   2.146  0.00  0.00    -0.338 N 
ATOM     20  C   UNL     1      -1.637   3.295   1.225  0.00  0.00    +0.104 A 
ATOM     21  C   UNL     1      -1.146   4.297   0.471  0.00  0.00    +0.101 A 
ATOM     22  N   UNL     1       0.087   4.584   0.914  0.00  0.00    -0.349 N 
ATOM     23  C   UNL     1       0.377   3.801   1.917  0.00  0.00    +0.101 A 
ATOM     24  H   UNL     1       0.675   5.378   0.430  0.00  0.00    +0.166 HD
ENDBRANCH  17  23
ENDBRANCH  15  17
ENDBRANCH   1  15
BRANCH  11  25
ATOM     25  C   UNL     1      10.693   6.027   4.965  0.00  0.00    +0.163 C 
BRANCH  25  26
ATOM     26  C   UNL     1      11.653   5.059   4.323  0.00  0.00    -0.009 A 
ATOM     27  C   UNL     1      11.721   4.964   2.945  0.00  0.00    +0.007 A 
ATOM     28  C   UNL     1      12.601   4.076   2.356  0.00  0.00    +0.000 A 
ATOM     29  C   UNL     1      13.416   3.284   3.143  0.00  0.00    +0.001 A 
ATOM     30  C   UNL     1      13.350   3.379   4.521  0.00  0.00    +0.020 A 
ATOM     31  C   UNL     1      12.472   4.270   5.111  0.00  0.00    +0.046 A 
ATOM     32 CL   UNL     1      12.394   4.395   6.841  0.00  0.00    -0.083 Cl
ENDBRANCH  25  26
ENDBRANCH  11  25
TORSDOF 5
