REMARK  Name = ZINC65112254
REMARK  5 active torsions:
REMARK  status: ('A' for Active; 'I' for Inactive)
REMARK    1  A    between atoms: C_1  and  C_2
REMARK    2  A    between atoms: C_7  and  C_8
REMARK    3  A    between atoms: C_10  and  C_13
REMARK    4  A    between atoms: N_16  and  S_19
REMARK    5  A    between atoms: S_19  and  C_22
REMARK                            x       y       z     vdW  Elec       q    Type
REMARK                         _______ _______ _______ _____ _____    ______ ____
ROOT
ATOM      1  C   UNL     1       0.592   0.530   5.986  0.00  0.00    +0.063 C 
ATOM      2  C   UNL     1      -0.635   1.067   6.727  0.00  0.00    +0.028 C 
ATOM      3  C   UNL     1      -0.438   0.881   8.235  0.00  0.00    +0.110 C 
ATOM      4  N   UNL     1       0.829   1.514   8.627  0.00  0.00    -0.177 NA
ATOM      5  C   UNL     1       2.058   1.136   7.915  0.00  0.00    +0.110 C 
ATOM      6  C   UNL     1       1.832   1.319   6.411  0.00  0.00    +0.028 C 
ENDROOT
BRANCH   1   9
ATOM      7  C   UNL     1       0.172   0.152   2.407  0.00  0.00    +0.259 A 
ATOM      8  N   UNL     1       0.375  -0.320   3.616  0.00  0.00    -0.192 NA
ATOM      9  C   UNL     1       0.387   0.679   4.500  0.00  0.00    +0.175 A 
ATOM     10  N   UNL     1       0.192   1.806   3.874  0.00  0.00    -0.061 NA
ATOM     11  O   UNL     1       0.052   1.488   2.497  0.00  0.00    -0.333 OA
BRANCH   7  18
ATOM     12  C   UNL     1      -1.964   0.650   0.519  0.00  0.00    +0.044 C 
ATOM     13  C   UNL     1      -0.931  -0.413   0.246  0.00  0.00    -0.038 A 
ATOM     14  C   UNL     1      -0.995  -1.157  -0.914  0.00  0.00    +0.004 A 
ATOM     15  C   UNL     1      -0.048  -2.134  -1.166  0.00  0.00    +0.000 A 
ATOM     16  C   UNL     1       0.968  -2.372  -0.258  0.00  0.00    +0.001 A 
ATOM     17  C   UNL     1       1.043  -1.635   0.906  0.00  0.00    +0.013 A 
ATOM     18  C   UNL     1       0.094  -0.644   1.164  0.00  0.00    +0.042 A 
ENDBRANCH   7  18
ENDBRANCH   1   9
BRANCH   4  19
ATOM     19  S   UNL     1       0.871   2.632   9.848  0.00  0.00    +0.061 S 
ATOM     20  O   UNL     1       2.022   3.434   9.625  0.00  0.00    -0.153 OA
ATOM     21  O   UNL     1      -0.436   3.183   9.938  0.00  0.00    -0.153 OA
BRANCH  19  22
ATOM     22  C   UNL     1       1.152   1.754  11.349  0.00  0.00    +0.107 A 
ATOM     23  C   UNL     1       0.081   1.284  12.086  0.00  0.00    +0.028 A 
ATOM     24  C   UNL     1       0.301   0.595  13.264  0.00  0.00    +0.003 A 
ATOM     25  C   UNL     1       1.592   0.375  13.706  0.00  0.00    +0.020 A 
ATOM     26  C   UNL     1       2.664   0.845  12.969  0.00  0.00    +0.043 A 
ATOM     27  C   UNL     1       2.444   1.530  11.787  0.00  0.00    +0.048 A 
ATOM     28 CL   UNL     1       4.286   0.570  13.524  0.00  0.00    -0.083 Cl
ENDBRANCH  19  22
ENDBRANCH   4  19
TORSDOF 4
