REMARK  Name = ZINC63351247
REMARK  5 active torsions:
REMARK  status: ('A' for Active; 'I' for Inactive)
REMARK    1  A    between atoms: C_1  and  O_2
REMARK    2  A    between atoms: O_2  and  C_3
REMARK    3  A    between atoms: C_6  and  C_9
REMARK    4  A    between atoms: N_27  and  C_30
REMARK    5  A    between atoms: C_30  and  C_31
REMARK                            x       y       z     vdW  Elec       q    Type
REMARK                         _______ _______ _______ _____ _____    ______ ____
ROOT
ATOM      1  C   UNL     1      -4.981  -2.629   0.035  0.00  0.00    +0.135 C 
ATOM      2  C   UNL     1      -5.247  -3.232   1.422  0.00  0.00    +0.131 C 
ATOM      3  C   UNL     1      -4.343  -4.450   1.560  0.00  0.00    -0.034 C 
ATOM      4  C   UNL     1      -3.609  -4.249   2.649  0.00  0.00    -0.001 A 
ATOM      5  C   UNL     1      -2.609  -5.092   3.324  0.00  0.00    +0.010 A 
ATOM      6  C   UNL     1      -2.030  -4.563   4.435  0.00  0.00    +0.001 A 
ATOM      7  C   UNL     1      -2.343  -3.295   4.935  0.00  0.00    +0.002 A 
ATOM      8  C   UNL     1      -3.252  -2.454   4.381  0.00  0.00    +0.026 A 
ATOM      9  C   UNL     1      -3.929  -2.901   3.209  0.00  0.00    +0.043 A 
ATOM     10  N   UNL     1      -4.864  -2.306   2.490  0.00  0.00    -0.375 N 
ATOM     11  C   UNL     1      -4.314  -5.578   0.555  0.00  0.00    +0.065 C 
ATOM     12  C   UNL     1      -4.091  -4.931  -0.823  0.00  0.00    +0.169 C 
ATOM     13  N   UNL     1      -4.967  -3.744  -0.921  0.00  0.00    -0.264 N 
ATOM     14  C   UNL     1      -5.729  -3.911  -2.009  0.00  0.00    +0.313 C 
ATOM     15  O   UNL     1      -6.482  -3.063  -2.447  0.00  0.00    -0.252 OA
ATOM     16  N   UNL     1      -5.566  -5.122  -2.560  0.00  0.00    -0.220 N 
ATOM     17  C   UNL     1      -4.598  -5.852  -1.912  0.00  0.00    +0.244 C 
ATOM     18  O   UNL     1      -4.227  -6.982  -2.147  0.00  0.00    -0.273 OA
ATOM     19  H   UNL     1      -5.231  -1.419   2.630  0.00  0.00    +0.160 HD
ENDROOT
BRANCH   1  23
ATOM     20  C   UNL     1      -1.200  -0.637   0.010  0.00  0.00    +0.120 A 
ATOM     21  C   UNL     1      -2.371   0.092  -0.136  0.00  0.00    +0.046 A 
ATOM     22  C   UNL     1      -3.592  -0.554  -0.128  0.00  0.00    +0.009 A 
ATOM     23  C   UNL     1      -3.648  -1.927   0.026  0.00  0.00    -0.024 A 
ATOM     24  C   UNL     1      -2.482  -2.656   0.172  0.00  0.00    +0.009 A 
ATOM     25  C   UNL     1      -1.259  -2.016   0.158  0.00  0.00    +0.046 A 
BRANCH  20  27
ATOM     26  C   UNL     1      -0.014   1.416  -0.155  0.00  0.00    +0.277 C 
ATOM     27  O   UNL     1       0.002  -0.004   0.002  0.00  0.00    -0.495 OA
ENDBRANCH  20  27
ENDBRANCH   1  23
BRANCH  16  28
ATOM     28  C   UNL     1      -6.320  -5.608  -3.719  0.00  0.00    +0.153 C 
BRANCH  28  29
ATOM     29  C   UNL     1      -5.585  -5.246  -4.984  0.00  0.00    -0.030 A 
ATOM     30  C   UNL     1      -5.838  -4.040  -5.609  0.00  0.00    +0.005 A 
ATOM     31  C   UNL     1      -5.164  -3.708  -6.770  0.00  0.00    +0.000 A 
ATOM     32  C   UNL     1      -4.236  -4.582  -7.304  0.00  0.00    +0.000 A 
ATOM     33  C   UNL     1      -3.982  -5.788  -6.678  0.00  0.00    +0.000 A 
ATOM     34  C   UNL     1      -4.653  -6.118  -5.515  0.00  0.00    +0.005 A 
ENDBRANCH  28  29
ENDBRANCH  16  28
TORSDOF 4
