REMARK  Name = ZINC04339809
REMARK  2 active torsions:
REMARK  status: ('A' for Active; 'I' for Inactive)
REMARK    1  A    between atoms: C_19  and  C_20
REMARK    2  A    between atoms: C_19  and  C_22
REMARK                            x       y       z     vdW  Elec       q    Type
REMARK                         _______ _______ _______ _____ _____    ______ ____
ROOT
ATOM      1  C   UNL     1       3.071   3.399   0.308  0.00  0.00    +0.011 A 
ATOM      2  C   UNL     1       1.726   3.259   0.362  0.00  0.00    +0.030 A 
ATOM      3  C   UNL     1       1.204   1.880   0.284  0.00  0.00    +0.082 A 
ATOM      4  N   UNL     1      -0.016   1.451   0.368  0.00  0.00    -0.256 NA
ATOM      5  C   UNL     1       0.002  -0.006   0.308  0.00  0.00    +0.134 C 
ATOM      6  C   UNL     1      -0.392  -0.611   1.651  0.00  0.00    +0.051 C 
ATOM      7  C   UNL     1      -1.860  -0.292   1.946  0.00  0.00    +0.004 C 
ATOM      8  C   UNL     1      -2.739  -0.870   0.835  0.00  0.00    +0.001 C 
ATOM      9  C   UNL     1      -2.347  -0.245  -0.505  0.00  0.00    +0.008 C 
ATOM     10  C   UNL     1      -0.882  -0.564  -0.809  0.00  0.00    +0.039 C 
ATOM     11  C   UNL     1      -0.686  -2.078  -0.855  0.00  0.00    +0.039 C 
ATOM     12  C   UNL     1       0.772  -2.478  -0.889  0.00  0.00    -0.052 C 
ATOM     13  C   UNL     1       1.728  -1.670  -0.480  0.00  0.00    +0.013 C 
ATOM     14  N   UNL     1       1.382  -0.396  -0.036  0.00  0.00    -0.276 N 
ATOM     15  C   UNL     1       2.136   0.729   0.094  0.00  0.00    +0.062 A 
ATOM     16  C   UNL     1       3.483   0.924   0.054  0.00  0.00    +0.035 A 
ATOM     17  C   UNL     1       3.962   2.249   0.177  0.00  0.00    -0.001 A 
ATOM     18  C   UNL     1       5.351   2.467   0.172  0.00  0.00    +0.120 C 
ATOM     19  C   UNL     1       3.190  -2.024  -0.484  0.00  0.00    +0.051 C 
ATOM     20  C   UNL     1       3.390  -3.530  -0.629  0.00  0.00    +0.006 C 
ATOM     21  C   UNL     1       2.531  -4.005  -1.809  0.00  0.00    +0.005 C 
ATOM     22  C   UNL     1       1.065  -3.867  -1.411  0.00  0.00    +0.032 C 
ENDROOT
BRANCH  18  23
ATOM     23  C   UNL     1       5.878   3.837   0.179  0.00  0.00    +0.252 C 
ATOM     24  O   UNL     1       6.168   4.383  -0.870  0.00  0.00    -0.270 OA
ATOM     25  N   UNL     1       6.041   4.491   1.346  0.00  0.00    -0.325 N 
ATOM     26  H   UNL     1       5.810   4.056   2.182  0.00  0.00    +0.145 HD
ATOM     27  H   UNL     1       6.389   5.396   1.350  0.00  0.00    +0.145 HD
ENDBRANCH  18  23
BRANCH  18  28
ATOM     28  C   UNL     1       6.251   1.354   0.161  0.00  0.00    +0.105 C 
ATOM     29  N   UNL     1       6.965   0.470   0.152  0.00  0.00    -0.191 NA
ENDBRANCH  18  28
TORSDOF 2
