REMARK  Name = ZINC66632693
REMARK  7 active torsions:
REMARK  status: ('A' for Active; 'I' for Inactive)
REMARK    1  A    between atoms: C_1  and  C_2
REMARK    2  A    between atoms: C_2  and  C_3
REMARK    3  A    between atoms: C_2  and  C_4
REMARK    4  A    between atoms: C_4  and  N_5
REMARK    5  A    between atoms: N_8  and  N_9
REMARK    6  A    between atoms: C_10  and  C_12
REMARK    7  A    between atoms: C_24  and  C_26
REMARK                            x       y       z     vdW  Elec       q    Type
REMARK                         _______ _______ _______ _____ _____    ______ ____
ROOT
ATOM      1  C   UNL     1      -3.766   1.645  -5.487  0.00  0.00    +0.164 C 
ATOM      2  C   UNL     1      -3.978   3.106  -5.003  0.00  0.00    +0.037 C 
ATOM      3  C   UNL     1      -4.992   3.633  -6.030  0.00  0.00    +0.012 C 
ATOM      4  C   UNL     1      -4.971   5.136  -6.248  0.00  0.00    +0.005 C 
ATOM      5  C   UNL     1      -5.952   5.446  -7.390  0.00  0.00    +0.000 C 
ATOM      6  C   UNL     1      -5.577   4.699  -8.667  0.00  0.00    +0.002 C 
ATOM      7  C   UNL     1      -5.463   3.186  -8.419  0.00  0.00    +0.023 C 
ATOM      8  C   UNL     1      -4.447   2.967  -7.322  0.00  0.00    +0.080 C 
ATOM      9  N   UNL     1      -4.143   1.599  -6.920  0.00  0.00    -0.283 N 
ATOM     10  C   UNL     1      -4.196   0.501  -7.699  0.00  0.00    +0.247 C 
ATOM     11  O   UNL     1      -4.618   0.582  -8.836  0.00  0.00    -0.270 OA
ENDROOT
BRANCH  10  12
ATOM     12  C   UNL     1      -3.740  -0.803  -7.171  0.00  0.00    +0.037 A 
ATOM     13  C   UNL     1      -3.086  -0.870  -5.940  0.00  0.00    +0.013 A 
ATOM     14  C   UNL     1      -2.663  -2.090  -5.453  0.00  0.00    +0.001 A 
ATOM     15  C   UNL     1      -2.887  -3.244  -6.182  0.00  0.00    +0.000 A 
ATOM     16  C   UNL     1      -3.535  -3.185  -7.403  0.00  0.00    +0.001 A 
ATOM     17  C   UNL     1      -3.968  -1.972  -7.899  0.00  0.00    +0.013 A 
ENDBRANCH  10  12
BRANCH   1  19
ATOM     18  N   UNL     1      -4.262   0.307  -3.467  0.00  0.00    -0.232 N 
ATOM     19  C   UNL     1      -4.643   0.709  -4.695  0.00  0.00    +0.250 C 
ATOM     20  O   UNL     1      -5.691   0.318  -5.164  0.00  0.00    -0.272 OA
ATOM     21  H   UNL     1      -3.424   0.620  -3.092  0.00  0.00    +0.173 HD
BRANCH  18  25
ATOM     22  N   UNL     1      -3.531  -0.530  -0.981  0.00  0.00    -0.298 N 
ATOM     23  C   UNL     1      -4.696  -0.964  -1.502  0.00  0.00    +0.316 C 
ATOM     24  O   UNL     1      -5.403  -1.719  -0.863  0.00  0.00    -0.251 OA
ATOM     25  N   UNL     1      -5.077  -0.562  -2.730  0.00  0.00    -0.218 N 
ATOM     26  H   UNL     1      -2.967   0.072  -1.491  0.00  0.00    +0.150 HD
ATOM     27  H   UNL     1      -5.915  -0.875  -3.105  0.00  0.00    +0.174 HD
BRANCH  22  28
ATOM     28  C   UNL     1      -3.117  -0.967   0.354  0.00  0.00    +0.108 C 
BRANCH  28  30
ATOM     29  C   UNL     1      -1.930   1.185   0.806  0.00  0.00    +0.009 C 
ATOM     30  C   UNL     1      -1.769  -0.333   0.703  0.00  0.00    -0.000 C 
ATOM     31  C   UNL     1      -1.277  -0.886   2.042  0.00  0.00    +0.009 C 
ENDBRANCH  28  30
ENDBRANCH  22  28
ENDBRANCH  18  25
ENDBRANCH   1  19
TORSDOF 5
