REMARK  Name = ZINC12612829
REMARK  7 active torsions:
REMARK  status: ('A' for Active; 'I' for Inactive)
REMARK    1  A    between atoms: C_1  and  C_2
REMARK    2  A    between atoms: C_2  and  C_3
REMARK    3  A    between atoms: C_2  and  C_4
REMARK    4  A    between atoms: C_4  and  C_5
REMARK    5  A    between atoms: C_7  and  C_13
REMARK    6  A    between atoms: N_15  and  C_16
REMARK    7  A    between atoms: N_25  and  C_26
REMARK                            x       y       z     vdW  Elec       q    Type
REMARK                         _______ _______ _______ _____ _____    ______ ____
ROOT
ATOM      1  C   UNL     1      -1.263   2.185   0.227  0.00  0.00    +0.107 C 
ATOM      2  C   UNL     1      -2.474   1.272   0.010  0.00  0.00    +0.027 C 
ATOM      3  C   UNL     1      -2.340   0.023   0.885  0.00  0.00    +0.008 C 
ATOM      4  C   UNL     1      -1.210  -0.862   0.345  0.00  0.00    +0.056 C 
ATOM      5  C   UNL     1       0.012  -0.002   0.144  0.00  0.00    +0.050 A 
ATOM      6  C   UNL     1      -0.010   1.355   0.096  0.00  0.00    +0.014 A 
ATOM      7  C   UNL     1       1.296   1.800  -0.096  0.00  0.00    +0.140 A 
ATOM      8  N   UNL     1       2.079   0.751  -0.163  0.00  0.00    -0.174 NA
ATOM      9  N   UNL     1       1.288  -0.398  -0.014  0.00  0.00    -0.234 N 
ENDROOT
BRANCH   9  10
ATOM     10  C   UNL     1       1.747  -1.725  -0.029  0.00  0.00    +0.101 A 
ATOM     11  C   UNL     1       1.092  -2.678  -0.796  0.00  0.00    +0.033 A 
ATOM     12  C   UNL     1       1.548  -3.982  -0.814  0.00  0.00    +0.040 A 
ATOM     13  C   UNL     1       2.650  -4.342  -0.057  0.00  0.00    +0.126 A 
ATOM     14  C   UNL     1       3.303  -3.395   0.714  0.00  0.00    +0.078 A 
ATOM     15  C   UNL     1       2.853  -2.087   0.731  0.00  0.00    +0.151 A 
ATOM     16  F   UNL     1       3.489  -1.163   1.483  0.00  0.00    -0.203 F 
ATOM     17  F   UNL     1       3.090  -5.619  -0.071  0.00  0.00    -0.205 F 
ENDBRANCH   9  10
BRANCH   1  20
ATOM     18  C   UNL     1      -0.619   4.411  -0.524  0.00  0.00    +0.263 C 
ATOM     19  O   UNL     1      -0.050   4.573   0.537  0.00  0.00    -0.269 OA
ATOM     20  N   UNL     1      -1.256   3.251  -0.777  0.00  0.00    -0.303 N 
ATOM     21  H   UNL     1      -1.710   3.122  -1.625  0.00  0.00    +0.150 HD
BRANCH  18  24
ATOM     22  C   UNL     1       0.042   7.681  -2.236  0.00  0.00    +0.023 A 
ATOM     23  C   UNL     1       0.051   6.706  -1.285  0.00  0.00    +0.054 A 
ATOM     24  C   UNL     1      -0.611   5.495  -1.544  0.00  0.00    +0.132 A 
ATOM     25  N   UNL     1      -1.225   5.322  -2.704  0.00  0.00    -0.188 NA
ATOM     26  C   UNL     1      -1.229   6.290  -3.624  0.00  0.00    +0.347 A 
ATOM     27  O   UNL     1      -1.806   6.108  -4.683  0.00  0.00    -0.245 OA
ATOM     28  N   UNL     1      -0.602   7.460  -3.404  0.00  0.00    -0.310 N 
ATOM     29  H   UNL     1      -0.614   8.149  -4.086  0.00  0.00    +0.170 HD
BRANCH  22  30
ATOM     30  C   UNL     1       0.743   8.992  -1.990  0.00  0.00    +0.056 C 
BRANCH  30  32
ATOM     31  C   UNL     1       2.059   8.807  -4.106  0.00  0.00    +0.007 C 
ATOM     32  C   UNL     1       2.152   8.937  -2.585  0.00  0.00    -0.011 C 
ATOM     33  C   UNL     1       2.907  10.219  -2.227  0.00  0.00    +0.007 C 
ENDBRANCH  30  32
ENDBRANCH  22  30
ENDBRANCH  18  24
ENDBRANCH   1  20
TORSDOF 5
