REMARK  Name = ZINC49177731
REMARK  6 active torsions:
REMARK  status: ('A' for Active; 'I' for Inactive)
REMARK    1  A    between atoms: C_1  and  C_2
REMARK    2  A    between atoms: C_4  and  C_21
REMARK    3  A    between atoms: C_6  and  N_8
REMARK    4  A    between atoms: C_13  and  C_20
REMARK    5  A    between atoms: C_16  and  C_18
REMARK    6  A    between atoms: C_16  and  C_19
REMARK                            x       y       z     vdW  Elec       q    Type
REMARK                         _______ _______ _______ _____ _____    ______ ____
ROOT
ATOM      1  N   UNL     1       0.020  -2.797   2.396  0.00  0.00    -0.269 N 
ATOM      2  C   UNL     1       0.148  -2.135   3.562  0.00  0.00    +0.307 C 
ATOM      3  O   UNL     1       0.160  -0.919   3.573  0.00  0.00    -0.252 OA
ATOM      4  N   UNL     1       0.264  -2.819   4.718  0.00  0.00    -0.280 N 
ATOM      5  C   UNL     1       0.401  -4.285   4.719  0.00  0.00    +0.140 C 
ATOM      6  C   UNL     1      -0.631  -4.865   5.694  0.00  0.00    +0.133 C 
ATOM      7  O   UNL     1      -0.501  -4.214   6.960  0.00  0.00    -0.368 OA
ATOM      8  C   UNL     1      -0.767  -2.810   6.926  0.00  0.00    +0.080 C 
ATOM      9  C   UNL     1       0.263  -2.123   6.014  0.00  0.00    +0.143 C 
ATOM     10  C   UNL     1      -0.659  -2.235   8.339  0.00  0.00    +0.043 C 
ATOM     11  C   UNL     1      -2.177  -2.570   6.382  0.00  0.00    +0.043 C 
ATOM     12  C   UNL     1      -0.386  -6.366   5.862  0.00  0.00    +0.039 C 
ATOM     13  H   UNL     1      -0.128  -3.756   2.397  0.00  0.00    +0.156 HD
ENDROOT
BRANCH   1  19
ATOM     14  C   UNL     1      -0.353   1.425  -0.095  0.00  0.00    +0.044 C 
ATOM     15  C   UNL     1      -0.075  -0.056  -0.052  0.00  0.00    -0.048 A 
ATOM     16  C   UNL     1       0.258  -0.729  -1.213  0.00  0.00    +0.006 A 
ATOM     17  C   UNL     1       0.514  -2.088  -1.178  0.00  0.00    -0.048 A 
ATOM     18  C   UNL     1       0.435  -2.776   0.017  0.00  0.00    +0.026 A 
ATOM     19  C   UNL     1       0.100  -2.103   1.184  0.00  0.00    +0.035 A 
ATOM     20  C   UNL     1      -0.149  -0.737   1.147  0.00  0.00    +0.026 A 
ATOM     21  C   UNL     1       0.877  -2.818  -2.445  0.00  0.00    +0.044 C 
ENDBRANCH   1  19
TORSDOF 1
