REMARK  Name = ZINC50669843
REMARK  6 active torsions:
REMARK  status: ('A' for Active; 'I' for Inactive)
REMARK    1  A    between atoms: C_1  and  C_2
REMARK    2  A    between atoms: C_8  and  C_10
REMARK    3  A    between atoms: C_10  and  N_11
REMARK    4  A    between atoms: N_11  and  S_12
REMARK    5  A    between atoms: S_12  and  C_15
REMARK    6  A    between atoms: C_16  and  N_23
REMARK                            x       y       z     vdW  Elec       q    Type
REMARK                         _______ _______ _______ _____ _____    ______ ____
ROOT
ATOM      1  S   UNL     1       0.353   0.030   5.185  0.00  0.00    +0.078 S 
ATOM      2  O   UNL     1       1.087  -0.756   6.114  0.00  0.00    -0.151 OA
ATOM      3  O   UNL     1       0.521   1.437   5.077  0.00  0.00    -0.151 OA
ENDROOT
BRANCH   1   4
ATOM      4  C   UNL     1      -1.353  -0.250   5.525  0.00  0.00    +0.220 A 
ATOM      5  C   UNL     1      -2.372   0.580   5.221  0.00  0.00    +0.163 A 
ATOM      6  N   UNL     1      -3.516   0.013   5.641  0.00  0.00    -0.205 NA
ATOM      7  C   UNL     1      -3.244  -1.135   6.194  0.00  0.00    +0.181 A 
ATOM      8  N   UNL     1      -1.896  -1.374   6.154  0.00  0.00    -0.276 N 
ATOM      9  C   UNL     1      -1.455  -2.559   6.699  0.00  0.00    +0.102 A 
ATOM     10  C   UNL     1      -2.315  -3.425   7.235  0.00  0.00    +0.067 A 
ATOM     11  S   UNL     1      -3.874  -2.585   7.006  0.00  0.00    -0.058 S 
BRANCH   5  12
ATOM     12  N   UNL     1      -2.258   1.821   4.576  0.00  0.00    -0.340 N 
ATOM     13  H   UNL     1      -1.385   2.149   4.307  0.00  0.00    +0.144 HD
ATOM     14  H   UNL     1      -3.051   2.350   4.398  0.00  0.00    +0.144 HD
ENDBRANCH   5  12
ENDBRANCH   1   4
BRANCH   1  15
ATOM     15  N   UNL     1       0.663  -0.600   3.684  0.00  0.00    -0.188 NA
ATOM     16  H   UNL     1       1.266  -1.353   3.590  0.00  0.00    +0.148 HD
BRANCH  15  17
ATOM     17  C   UNL     1       0.026  -0.018   2.500  0.00  0.00    +0.109 C 
BRANCH  17  24
ATOM     18  C   UNL     1      -0.019   1.526   0.010  0.00  0.00    +0.008 C 
ATOM     19  C   UNL     1       0.002  -0.004   0.002  0.00  0.00    -0.010 C 
ATOM     20  C   UNL     1       0.718  -0.497  -1.257  0.00  0.00    +0.003 C 
ATOM     21  C   UNL     1       2.154   0.032  -1.268  0.00  0.00    +0.000 C 
ATOM     22  C   UNL     1       2.894  -0.475  -0.028  0.00  0.00    +0.000 C 
ATOM     23  C   UNL     1       2.178   0.019   1.231  0.00  0.00    +0.005 C 
ATOM     24  C   UNL     1       0.742  -0.511   1.242  0.00  0.00    +0.007 C 
ENDBRANCH  17  24
ENDBRANCH  15  17
ENDBRANCH   1  15
TORSDOF 5
