REMARK  Name = ZINC05042490
REMARK  13 active torsions:
REMARK  status: ('A' for Active; 'I' for Inactive)
REMARK    1  A    between atoms: C_1  and  C_2
REMARK    2  A    between atoms: C_4  and  C_24
REMARK    3  A    between atoms: C_6  and  C_14
REMARK    4  A    between atoms: C_8  and  C_13
REMARK    5  A    between atoms: N_11  and  O_12
REMARK    6  A    between atoms: C_17  and  O_22
REMARK    7  A    between atoms: C_18  and  O_20
REMARK    8  A    between atoms: O_20  and  C_21
REMARK    9  A    between atoms: O_22  and  C_23
REMARK   10  A    between atoms: C_27  and  O_32
REMARK   11  A    between atoms: C_28  and  O_30
REMARK   12  A    between atoms: O_30  and  C_31
REMARK   13  A    between atoms: O_32  and  C_33
REMARK                            x       y       z     vdW  Elec       q    Type
REMARK                         _______ _______ _______ _____ _____    ______ ____
ROOT
ATOM      1  C   UNL     1       0.381   2.986  -2.962  0.00  0.00    +0.012 C 
ATOM      2  C   UNL     1       0.527   1.484  -2.709  0.00  0.00    +0.024 C 
ATOM      3  C   UNL     1      -0.617   0.996  -1.814  0.00  0.00    -0.031 C 
ATOM      4  C   UNL     1       0.722   1.150   0.205  0.00  0.00    -0.031 C 
ATOM      5  C   UNL     1       1.958   1.648  -0.553  0.00  0.00    +0.024 C 
ATOM      6  C   UNL     1       1.836   1.210  -1.998  0.00  0.00    +0.061 C 
ATOM      7  N   UNL     1       2.805   0.629  -2.597  0.00  0.00    -0.096 NA
ATOM      8  C   UNL     1       2.028   3.174  -0.480  0.00  0.00    +0.012 C 
ATOM      9  N   UNL     1      -0.500   1.616  -0.479  0.00  0.00    +0.389 N 
ATOM     10  H   UNL     1      -1.320   1.362   0.084  0.00  0.00    -0.084 HD
ATOM     11  H   UNL     1      -0.460   2.637  -0.583  0.00  0.00    -0.084 HD
ENDROOT
BRANCH   4  12
ATOM     12  C   UNL     1       0.739   1.698   1.609  0.00  0.00    -0.057 A 
ATOM     13  C   UNL     1       0.322   2.994   1.848  0.00  0.00    +0.006 A 
ATOM     14  C   UNL     1       0.336   3.502   3.134  0.00  0.00    +0.049 A 
ATOM     15  C   UNL     1       0.768   2.711   4.186  0.00  0.00    +0.161 A 
ATOM     16  C   UNL     1       1.187   1.406   3.946  0.00  0.00    +0.162 A 
ATOM     17  C   UNL     1       1.166   0.902   2.655  0.00  0.00    +0.051 A 
BRANCH  16  18
ATOM     18  O   UNL     1       1.612   0.626   4.976  0.00  0.00    -0.491 OA
ATOM     19  C   UNL     1       2.028  -0.703   4.654  0.00  0.00    +0.277 C 
ENDBRANCH  16  18
BRANCH  15  20
ATOM     20  O   UNL     1       0.782   3.209   5.452  0.00  0.00    -0.491 OA
ATOM     21  C   UNL     1       0.339   4.557   5.624  0.00  0.00    +0.277 C 
ENDBRANCH  15  20
ENDBRANCH   4  12
BRANCH   3  22
ATOM     22  C   UNL     1      -1.937   1.392  -2.425  0.00  0.00    -0.057 A 
ATOM     23  C   UNL     1      -2.410   2.682  -2.269  0.00  0.00    +0.006 A 
ATOM     24  C   UNL     1      -3.620   3.050  -2.827  0.00  0.00    +0.049 A 
ATOM     25  C   UNL     1      -4.361   2.125  -3.545  0.00  0.00    +0.161 A 
ATOM     26  C   UNL     1      -3.885   0.827  -3.702  0.00  0.00    +0.162 A 
ATOM     27  C   UNL     1      -2.669   0.466  -3.144  0.00  0.00    +0.051 A 
BRANCH  26  28
ATOM     28  O   UNL     1      -4.610  -0.084  -4.405  0.00  0.00    -0.491 OA
ATOM     29  C   UNL     1      -4.059  -1.397  -4.525  0.00  0.00    +0.277 C 
ENDBRANCH  26  28
BRANCH  25  30
ATOM     30  O   UNL     1      -5.552   2.486  -4.095  0.00  0.00    -0.491 OA
ATOM     31  C   UNL     1      -5.978   3.834  -3.893  0.00  0.00    +0.277 C 
ENDBRANCH  25  30
ENDBRANCH   3  22
BRANCH   7  32
ATOM     32  O   UNL     1       2.665   0.230  -3.948  0.00  0.00    -0.409 OA
ATOM     33  H   UNL     1       3.450  -0.201  -4.314  0.00  0.00    +0.328 HD
ENDBRANCH   7  32
TORSDOF 7
