REMARK  Name = ZINC47339238
REMARK  6 active torsions:
REMARK  status: ('A' for Active; 'I' for Inactive)
REMARK    1  A    between atoms: C_1  and  N_2
REMARK    2  A    between atoms: N_2  and  C_3
REMARK    3  A    between atoms: N_2  and  C_24
REMARK    4  A    between atoms: C_3  and  C_4
REMARK    5  A    between atoms: C_9  and  N_10
REMARK    6  A    between atoms: C_11  and  C_13
REMARK                            x       y       z     vdW  Elec       q    Type
REMARK                         _______ _______ _______ _____ _____    ______ ____
ROOT
ATOM      1  C   UNL     1       2.147  -0.049  -1.148  0.00  0.00    -0.043 A 
ATOM      2  C   UNL     1       2.576   1.066  -1.842  0.00  0.00    +0.003 A 
ATOM      3  C   UNL     1       3.903   1.450  -1.784  0.00  0.00    +0.000 A 
ATOM      4  C   UNL     1       4.805   0.721  -1.032  0.00  0.00    +0.002 A 
ATOM      5  C   UNL     1       4.384  -0.395  -0.336  0.00  0.00    +0.023 A 
ATOM      6  C   UNL     1       3.050  -0.781  -0.387  0.00  0.00    +0.035 A 
ENDROOT
BRANCH   6   7
ATOM      7  N   UNL     1       2.619  -1.907   0.321  0.00  0.00    -0.281 N 
ATOM      8  C   UNL     1       3.433  -2.973   0.453  0.00  0.00    +0.255 C 
ATOM      9  O   UNL     1       4.571  -2.925   0.026  0.00  0.00    -0.270 OA
ATOM     10  H   UNL     1       1.733  -1.921   0.717  0.00  0.00    +0.155 HD
BRANCH   8  11
ATOM     11  C   UNL     1       2.945  -4.194   1.115  0.00  0.00    +0.122 A 
ATOM     12  C   UNL     1       3.763  -5.305   1.272  0.00  0.00    +0.031 A 
ATOM     13  C   UNL     1       3.212  -6.457   1.892  0.00  0.00    +0.018 A 
ATOM     14  C   UNL     1       4.036  -7.531   2.256  0.00  0.00    +0.011 A 
ATOM     15  C   UNL     1       3.498  -8.614   2.890  0.00  0.00    +0.001 A 
ATOM     16  C   UNL     1       2.139  -8.665   3.170  0.00  0.00    +0.004 A 
ATOM     17  C   UNL     1       1.306  -7.628   2.802  0.00  0.00    +0.047 A 
ATOM     18  C   UNL     1       1.830  -6.520   2.151  0.00  0.00    +0.139 A 
ATOM     19  O   UNL     1       1.017  -5.515   1.747  0.00  0.00    -0.422 OA
ATOM     20  C   UNL     1       1.572  -4.283   1.644  0.00  0.00    +0.350 A 
ATOM     21  O   UNL     1       0.959  -3.284   1.974  0.00  0.00    -0.244 OA
ENDBRANCH   8  11
ENDBRANCH   6   7
BRANCH   1  22
ATOM     22  C   UNL     1       0.701  -0.467  -1.211  0.00  0.00    -0.041 C 
BRANCH  22  24
ATOM     23  C   UNL     1      -0.016   1.466   0.015  0.00  0.00    -0.095 C 
ATOM     24  N   UNL     1       0.004  -0.002  -0.004  0.00  0.00    +0.382 N 
ATOM     25  H   UNL     1       0.486  -0.343   0.815  0.00  0.00    -0.081 HD
BRANCH  24  26
ATOM     26  C   UNL     1      -1.374  -0.511  -0.008  0.00  0.00    -0.069 C 
ATOM     27  C   UNL     1      -2.100  -0.027   1.249  0.00  0.00    -0.015 C 
ATOM     28  C   UNL     1      -3.535  -0.557   1.245  0.00  0.00    -0.002 C 
ATOM     29  C   UNL     1      -3.514  -2.087   1.225  0.00  0.00    -0.000 C 
ATOM     30  C   UNL     1      -2.788  -2.571  -0.032  0.00  0.00    -0.002 C 
ATOM     31  C   UNL     1      -1.353  -2.041  -0.028  0.00  0.00    -0.015 C 
ENDBRANCH  24  26
ENDBRANCH  22  24
ENDBRANCH   1  22
TORSDOF 5
