REMARK  Name = ZINC00543561
REMARK  4 active torsions:
REMARK  status: ('A' for Active; 'I' for Inactive)
REMARK    1  A    between atoms: C_3  and  C_6
REMARK    2  A    between atoms: C_6  and  O_8
REMARK    3  A    between atoms: O_8  and  C_9
REMARK    4  A    between atoms: C_17  and  C_18
REMARK                            x       y       z     vdW  Elec       q    Type
REMARK                         _______ _______ _______ _____ _____    ______ ____
ROOT
ATOM      1  C   UNL     1       0.607  -2.643   0.721  0.00  0.00    +0.136 A 
ATOM      2  C   UNL     1      -0.694  -2.223   0.986  0.00  0.00    +0.047 A 
ATOM      3  C   UNL     1      -1.012  -0.895   0.940  0.00  0.00    +0.019 A 
ATOM      4  C   UNL     1      -0.029   0.043   0.627  0.00  0.00    +0.068 A 
ATOM      5  C   UNL     1       1.287  -0.368   0.359  0.00  0.00    +0.143 A 
ATOM      6  C   UNL     1       1.594  -1.722   0.409  0.00  0.00    +0.093 A 
ATOM      7  O   UNL     1       2.037   0.721   0.087  0.00  0.00    -0.451 OA
ATOM      8  C   UNL     1       1.303   1.857   0.155  0.00  0.00    +0.177 C 
ATOM      9  C   UNL     1       1.768   3.120  -0.066  0.00  0.00    +0.065 C 
ATOM     10  C   UNL     1      -0.031   1.511   0.496  0.00  0.00    +0.231 C 
ATOM     11  O   UNL     1      -0.978   2.267   0.644  0.00  0.00    -0.283 OA
ENDROOT
BRANCH   9  12
ATOM     12  C   UNL     1       0.863   4.203  -0.138  0.00  0.00    +0.016 A 
ATOM     13  C   UNL     1       1.034   5.519   0.284  0.00  0.00    +0.015 A 
ATOM     14  C   UNL     1      -0.020   6.375   0.092  0.00  0.00    +0.008 A 
ATOM     15  C   UNL     1      -1.158   5.909  -0.488  0.00  0.00    +0.046 A 
ATOM     16  S   UNL     1      -0.793   4.243  -0.798  0.00  0.00    -0.097 S 
ENDBRANCH   9  12
BRANCH   1  17
ATOM     17  O   UNL     1       0.911  -3.965   0.769  0.00  0.00    -0.420 OA
BRANCH  17  18
ATOM     18  C   UNL     1       0.536  -4.739  -0.270  0.00  0.00    +0.380 C 
ATOM     19  O   UNL     1      -0.133  -4.268  -1.169  0.00  0.00    -0.241 OA
BRANCH  18  22
ATOM     20  C   UNL     1       1.206  -8.263  -0.940  0.00  0.00    +0.042 A 
ATOM     21  C   UNL     1       0.624  -7.039  -1.303  0.00  0.00    +0.056 A 
ATOM     22  C   UNL     1       0.934  -6.148  -0.315  0.00  0.00    +0.212 A 
ATOM     23  O   UNL     1       1.677  -6.792   0.610  0.00  0.00    -0.456 OA
ATOM     24  C   UNL     1       1.838  -8.069   0.239  0.00  0.00    +0.196 A 
ENDBRANCH  18  22
ENDBRANCH  17  18
ENDBRANCH   1  17
TORSDOF 4
