REMARK  Name = ZINC04132383
REMARK  5 active torsions:
REMARK  status: ('A' for Active; 'I' for Inactive)
REMARK    1  A    between atoms: C_1  and  C_2
REMARK    2  A    between atoms: C_2  and  O_3
REMARK    3  A    between atoms: O_3  and  C_4
REMARK    4  A    between atoms: C_8  and  N_10
REMARK    5  A    between atoms: C_14  and  C_23
REMARK                            x       y       z     vdW  Elec       q    Type
REMARK                         _______ _______ _______ _____ _____    ______ ____
ROOT
ATOM      1  C   UNL     1       0.652   4.937  -1.268  0.00  0.00    +0.123 A 
ATOM      2  C   UNL     1       0.444   3.700  -0.675  0.00  0.00    +0.051 A 
ATOM      3  C   UNL     1       1.472   2.786  -0.586  0.00  0.00    -0.014 A 
ATOM      4  C   UNL     1       2.735   3.086  -1.103  0.00  0.00    +0.062 A 
ATOM      5  C   UNL     1       2.933   4.336  -1.690  0.00  0.00    +0.151 A 
ATOM      6  C   UNL     1       1.906   5.250  -1.771  0.00  0.00    +0.080 A 
ATOM      7  N   UNL     1       3.814   2.200  -1.092  0.00  0.00    -0.335 N 
ATOM      8  C   UNL     1       3.610   0.917  -0.401  0.00  0.00    +0.105 C 
ATOM      9  C   UNL     1       2.200   0.461  -0.713  0.00  0.00    +0.029 C 
ATOM     10  C   UNL     1       1.283   1.465   0.053  0.00  0.00    +0.049 C 
ATOM     11  C   UNL     1      -0.027   0.770   0.080  0.00  0.00    -0.023 C 
ATOM     12  C   UNL     1       0.189  -0.540   0.049  0.00  0.00    -0.030 C 
ATOM     13  C   UNL     1       1.692  -0.819  -0.041  0.00  0.00    +0.033 C 
ATOM     14  H   UNL     1       4.653   2.656  -0.768  0.00  0.00    +0.147 HD
ENDROOT
BRANCH   8  15
ATOM     15  C   UNL     1       3.772   1.103   1.086  0.00  0.00    -0.027 A 
ATOM     16  C   UNL     1       3.582   2.351   1.651  0.00  0.00    +0.007 A 
ATOM     17  C   UNL     1       3.724   2.521   3.015  0.00  0.00    +0.020 A 
ATOM     18  C   UNL     1       4.070   1.446   3.814  0.00  0.00    +0.041 A 
ATOM     19  C   UNL     1       4.266   0.199   3.247  0.00  0.00    +0.020 A 
ATOM     20  C   UNL     1       4.117   0.028   1.884  0.00  0.00    +0.007 A 
ATOM     21 CL   UNL     1       4.257   1.661   5.526  0.00  0.00    -0.084 Cl
ENDBRANCH   8  15
BRANCH   5  22
ATOM     22  N   UNL     1       4.266   4.685  -2.231  0.00  0.00    +0.058 N 
ATOM     23  O   UNL     1       4.448   5.774  -2.745  0.00  0.00    -0.126 OA
ATOM     24  O   UNL     1       5.180   3.883  -2.163  0.00  0.00    -0.126 OA
ENDBRANCH   5  22
BRANCH   1  25
ATOM     25  O   UNL     1      -0.365   5.835  -1.355  0.00  0.00    -0.492 OA
BRANCH  25  27
ATOM     26  C   UNL     1      -1.330   7.959  -1.984  0.00  0.00    +0.048 C 
ATOM     27  C   UNL     1      -0.073   7.087  -1.978  0.00  0.00    +0.225 C 
ENDBRANCH  25  27
ENDBRANCH   1  25
TORSDOF 4
