REMARK  Name = ZINC21527712
REMARK  6 active torsions:
REMARK  status: ('A' for Active; 'I' for Inactive)
REMARK    1  A    between atoms: C_1  and  O_2
REMARK    2  A    between atoms: O_2  and  C_3
REMARK    3  A    between atoms: C_6  and  C_9
REMARK    4  A    between atoms: C_11  and  C_29
REMARK    5  A    between atoms: C_15  and  C_18
REMARK    6  A    between atoms: N_20  and  C_21
REMARK                            x       y       z     vdW  Elec       q    Type
REMARK                         _______ _______ _______ _____ _____    ______ ____
ROOT
ATOM      1  C   UNL     1       2.488  -2.487  -4.354  0.00  0.00    +0.053 C 
ATOM      2  C   UNL     1       2.529  -3.988  -4.403  0.00  0.00    +0.087 C 
ATOM      3  C   UNL     1       2.449  -4.498  -5.845  0.00  0.00    +0.145 C 
ATOM      4  N   UNL     1       3.314  -3.653  -6.675  0.00  0.00    -0.238 N 
ATOM      5  C   UNL     1       3.547  -2.338  -6.375  0.00  0.00    +0.164 A 
ATOM      6  C   UNL     1       4.386  -1.839  -7.363  0.00  0.00    +0.100 A 
ATOM      7  C   UNL     1       4.650  -2.905  -8.254  0.00  0.00    +0.149 A 
ATOM      8  N   UNL     1       4.013  -3.968  -7.833  0.00  0.00    -0.176 NA
ATOM      9  N   UNL     1       3.014  -1.740  -5.291  0.00  0.00    -0.232 NA
ENDROOT
BRANCH   3  10
ATOM     10  C   UNL     1       2.922  -5.928  -5.907  0.00  0.00    -0.022 A 
ATOM     11  C   UNL     1       4.207  -6.248  -5.509  0.00  0.00    +0.008 A 
ATOM     12  C   UNL     1       4.641  -7.559  -5.564  0.00  0.00    +0.038 A 
ATOM     13  C   UNL     1       3.790  -8.551  -6.018  0.00  0.00    +0.123 A 
ATOM     14  C   UNL     1       2.503  -8.229  -6.417  0.00  0.00    +0.038 A 
ATOM     15  C   UNL     1       2.069  -6.919  -6.355  0.00  0.00    +0.008 A 
ATOM     16  F   UNL     1       4.214  -9.833  -6.073  0.00  0.00    -0.205 F 
ENDBRANCH   3  10
BRANCH   1  20
ATOM     17  C   UNL     1       0.587  -0.601  -1.067  0.00  0.00    +0.120 A 
ATOM     18  C   UNL     1       1.153   0.171  -2.075  0.00  0.00    +0.046 A 
ATOM     19  C   UNL     1       1.772  -0.436  -3.144  0.00  0.00    +0.013 A 
ATOM     20  C   UNL     1       1.830  -1.833  -3.215  0.00  0.00    -0.003 A 
ATOM     21  C   UNL     1       1.258  -2.606  -2.197  0.00  0.00    +0.013 A 
ATOM     22  C   UNL     1       0.647  -1.988  -1.129  0.00  0.00    +0.046 A 
BRANCH  17  24
ATOM     23  C   UNL     1      -0.049   1.432  -0.013  0.00  0.00    +0.277 C 
ATOM     24  O   UNL     1      -0.022   0.003  -0.015  0.00  0.00    -0.495 OA
ENDBRANCH  17  24
ENDBRANCH   1  20
BRANCH   6  25
ATOM     25  C   UNL     1       4.900  -0.467  -7.463  0.00  0.00    +0.253 C 
ATOM     26  O   UNL     1       4.595   0.360  -6.624  0.00  0.00    -0.270 OA
ATOM     27  N   UNL     1       5.711  -0.124  -8.483  0.00  0.00    -0.281 N 
ATOM     28  H   UNL     1       6.009  -0.798  -9.114  0.00  0.00    +0.155 HD
BRANCH  27  29
ATOM     29  C   UNL     1       6.123   1.205  -8.633  0.00  0.00    +0.034 A 
ATOM     30  C   UNL     1       6.369   1.988  -7.513  0.00  0.00    +0.025 A 
ATOM     31  C   UNL     1       6.776   3.299  -7.664  0.00  0.00    +0.022 A 
ATOM     32  C   UNL     1       6.938   3.833  -8.930  0.00  0.00    +0.041 A 
ATOM     33  C   UNL     1       6.693   3.055 -10.049  0.00  0.00    +0.022 A 
ATOM     34  C   UNL     1       6.292   1.741  -9.903  0.00  0.00    +0.025 A 
ATOM     35 CL   UNL     1       7.448   5.481  -9.117  0.00  0.00    -0.084 Cl
ENDBRANCH  27  29
ENDBRANCH   6  25
TORSDOF 5
