REMARK  Name = ZINC26075509
REMARK  8 active torsions:
REMARK  status: ('A' for Active; 'I' for Inactive)
REMARK    1  A    between atoms: C_1  and  C_2
REMARK    2  A    between atoms: C_5  and  C_8
REMARK    3  A    between atoms: C_8  and  C_10
REMARK    4  A    between atoms: C_8  and  N_17
REMARK    5  A    between atoms: C_10  and  N_11
REMARK    6  A    between atoms: C_18  and  C_20
REMARK    7  A    between atoms: C_20  and  N_21
REMARK    8  A    between atoms: C_29  and  C_33
REMARK                            x       y       z     vdW  Elec       q    Type
REMARK                         _______ _______ _______ _____ _____    ______ ____
ROOT
ATOM      1  N   UNL     1       5.954   1.766  -0.723  0.00  0.00    -0.306 N 
ATOM      2  C   UNL     1       4.679   1.510  -0.369  0.00  0.00    +0.231 C 
ATOM      3  O   UNL     1       3.991   0.790  -1.061  0.00  0.00    -0.274 OA
ATOM      4  H   UNL     1       6.555   2.478  -0.138  0.00  0.00    +0.149 HD
ENDROOT
BRANCH   1   5
ATOM      5  C   UNL     1       6.540   1.096  -1.886  0.00  0.00    +0.117 C 
BRANCH   5  10
ATOM      6  C   UNL     1      12.154   0.121  -0.922  0.00  0.00    +0.044 C 
ATOM      7  C   UNL     1      10.690   0.375  -1.173  0.00  0.00    -0.050 A 
ATOM      8  C   UNL     1       9.921  -0.583  -1.807  0.00  0.00    +0.004 A 
ATOM      9  C   UNL     1       8.578  -0.350  -2.037  0.00  0.00    +0.006 A 
ATOM     10  C   UNL     1       8.004   0.841  -1.634  0.00  0.00    -0.026 A 
ATOM     11  C   UNL     1       8.775   1.801  -1.005  0.00  0.00    +0.006 A 
ATOM     12  C   UNL     1      10.116   1.566  -0.770  0.00  0.00    +0.004 A 
ENDBRANCH   5  10
BRANCH   5  13
ATOM     13  C   UNL     1       6.382   1.985  -3.121  0.00  0.00    +0.111 C 
BRANCH  13  14
ATOM     14  N   UNL     1       4.958   2.273  -3.338  0.00  0.00    -0.296 NA
ATOM     15  C   UNL     1       4.251   1.085  -3.840  0.00  0.00    +0.112 C 
ATOM     16  C   UNL     1       2.764   1.411  -3.995  0.00  0.00    +0.175 C 
ATOM     17  O   UNL     1       2.615   2.537  -4.864  0.00  0.00    -0.377 OA
ATOM     18  C   UNL     1       3.291   3.711  -4.406  0.00  0.00    +0.175 C 
ATOM     19  C   UNL     1       4.784   3.408  -4.255  0.00  0.00    +0.112 C 
ENDBRANCH  13  14
ENDBRANCH   5  13
ENDBRANCH   1   5
BRANCH   2  20
ATOM     20  C   UNL     1       4.109   2.119   0.886  0.00  0.00    +0.209 C 
BRANCH  20  21
ATOM     21  N   UNL     1       2.717   1.692   1.047  0.00  0.00    -0.256 N 
ATOM     22  C   UNL     1       2.409   0.524   1.759  0.00  0.00    +0.079 A 
ATOM     23  C   UNL     1       3.349  -0.072   2.582  0.00  0.00    +0.027 A 
ATOM     24  C   UNL     1       3.026  -1.225   3.274  0.00  0.00    +0.002 A 
ATOM     25  C   UNL     1       1.767  -1.783   3.146  0.00  0.00    +0.004 A 
ATOM     26  C   UNL     1       0.823  -1.192   2.325  0.00  0.00    +0.047 A 
ATOM     27  C   UNL     1       1.140  -0.038   1.630  0.00  0.00    +0.143 A 
ATOM     28  O   UNL     1       0.224   0.556   0.819  0.00  0.00    -0.478 OA
ATOM     29  C   UNL     1       0.282   1.982   0.720  0.00  0.00    +0.256 C 
ATOM     30  C   UNL     1       1.710   2.417   0.512  0.00  0.00    +0.261 C 
ATOM     31  O   UNL     1       1.955   3.414  -0.134  0.00  0.00    -0.271 OA
ATOM     32  C   UNL     1      -0.570   2.445  -0.463  0.00  0.00    +0.062 C 
ENDBRANCH  20  21
ENDBRANCH   2  20
TORSDOF 6
