REMARK  Name = ZINC09280428
REMARK  4 active torsions:
REMARK  status: ('A' for Active; 'I' for Inactive)
REMARK    1  A    between atoms: C_1  and  C_2
REMARK    2  A    between atoms: C_5  and  C_8
REMARK    3  A    between atoms: C_19  and  O_24
REMARK    4  A    between atoms: O_24  and  C_25
REMARK                            x       y       z     vdW  Elec       q    Type
REMARK                         _______ _______ _______ _____ _____    ______ ____
ROOT
ATOM      1  C   UNL     1       3.469   0.998  -0.921  0.00  0.00    +0.107 C 
ATOM      2  C   UNL     1       1.961   0.897  -1.079  0.00  0.00    +0.049 C 
ATOM      3  C   UNL     1       1.325  -0.438  -0.683  0.00  0.00    +0.036 C 
ATOM      4  C   UNL     1       0.002  -0.004   0.002  0.00  0.00    +0.161 C 
ATOM      5  O   UNL     1      -0.018   1.448   0.010  0.00  0.00    -0.372 OA
ATOM      6  C   UNL     1       1.347   1.833  -0.001  0.00  0.00    +0.155 C 
ATOM      7  C   UNL     1       1.721   3.229  -0.341  0.00  0.00    +0.006 A 
ATOM      8  C   UNL     1       0.889   4.293  -0.060  0.00  0.00    +0.053 A 
ATOM      9  C   UNL     1       1.285   5.587  -0.358  0.00  0.00    +0.121 A 
ATOM     10  C   UNL     1       2.522   5.814  -0.942  0.00  0.00    +0.047 A 
ATOM     11  C   UNL     1       3.354   4.753  -1.233  0.00  0.00    +0.027 A 
ATOM     12  C   UNL     1       2.961   3.452  -0.943  0.00  0.00    +0.034 A 
ATOM     13  N   UNL     1       3.821   2.391  -1.265  0.00  0.00    -0.336 N 
ATOM     14  H   UNL     1       4.658   2.575  -1.719  0.00  0.00    +0.147 HD
ENDROOT
BRANCH   1  19
ATOM     15  C   UNL     1       6.099  -2.668  -4.532  0.00  0.00    +0.044 C 
ATOM     16  C   UNL     1       5.413  -1.712  -3.590  0.00  0.00    -0.050 A 
ATOM     17  C   UNL     1       5.253  -2.049  -2.259  0.00  0.00    +0.004 A 
ATOM     18  C   UNL     1       4.623  -1.172  -1.395  0.00  0.00    +0.006 A 
ATOM     19  C   UNL     1       4.155   0.042  -1.863  0.00  0.00    -0.027 A 
ATOM     20  C   UNL     1       4.311   0.376  -3.195  0.00  0.00    +0.006 A 
ATOM     21  C   UNL     1       4.944  -0.499  -4.058  0.00  0.00    +0.004 A 
ENDBRANCH   1  19
BRANCH   9  22
ATOM     22  O   UNL     1       0.462   6.633  -0.078  0.00  0.00    -0.495 OA
ATOM     23  C   UNL     1       0.935   7.939  -0.412  0.00  0.00    +0.277 C 
ENDBRANCH   9  22
TORSDOF 2
