REMARK  Name = ZINC51732397
REMARK  4 active torsions:
REMARK  status: ('A' for Active; 'I' for Inactive)
REMARK    1  A    between atoms: C_1  and  C_2
REMARK    2  A    between atoms: C_7  and  C_10
REMARK    3  A    between atoms: C_11  and  C_13
REMARK    4  A    between atoms: C_18  and  N_19
REMARK                            x       y       z     vdW  Elec       q    Type
REMARK                         _______ _______ _______ _____ _____    ______ ____
ROOT
ATOM      1  C   UNL     1       2.849  -4.189  -1.223  0.00  0.00    +0.070 A 
ATOM      2  C   UNL     1       1.952  -4.830  -2.081  0.00  0.00    +0.056 A 
ATOM      3  C   UNL     1       2.332  -5.128  -3.374  0.00  0.00    +0.159 A 
ATOM      4  C   UNL     1       3.603  -4.793  -3.821  0.00  0.00    +0.161 A 
ATOM      5  C   UNL     1       4.496  -4.158  -2.972  0.00  0.00    +0.074 A 
ATOM      6  C   UNL     1       4.124  -3.850  -1.680  0.00  0.00    +0.141 A 
ATOM      7  F   UNL     1       3.971  -5.088  -5.087  0.00  0.00    -0.202 F 
ATOM      8  F   UNL     1       1.466  -5.748  -4.206  0.00  0.00    -0.202 F 
ENDROOT
BRANCH   1  17
ATOM      9  C   UNL     1      -0.236   0.775   1.143  0.00  0.00    +0.007 C 
ATOM     10  C   UNL     1      -0.098  -0.728   0.897  0.00  0.00    -0.011 C 
ATOM     11  C   UNL     1       0.541  -0.964  -0.473  0.00  0.00    +0.022 C 
ATOM     12  C   UNL     1       0.646  -2.471  -0.731  0.00  0.00    +0.108 C 
ATOM     13  N   UNL     1       1.368  -3.093   0.388  0.00  0.00    -0.295 N 
ATOM     14  C   UNL     1       0.890  -2.855   1.757  0.00  0.00    +0.074 C 
ATOM     15  C   UNL     1       0.783  -1.345   1.986  0.00  0.00    +0.025 C 
ATOM     16  C   UNL     1      -0.483  -3.504   1.940  0.00  0.00    +0.028 C 
ATOM     17  C   UNL     1       2.448  -3.867   0.162  0.00  0.00    +0.249 C 
ATOM     18  O   UNL     1       3.092  -4.300   1.097  0.00  0.00    -0.270 OA
ENDBRANCH   1  17
BRANCH   6  19
ATOM     19  N   UNL     1       5.077  -3.166  -0.778  0.00  0.00    +0.057 N 
ATOM     20  O   UNL     1       6.219  -2.986  -1.129  0.00  0.00    -0.126 OA
ATOM     21  O   UNL     1       4.712  -2.786   0.311  0.00  0.00    -0.126 OA
ENDBRANCH   6  19
TORSDOF 2
