REMARK  Name = ZINC35515384
REMARK  6 active torsions:
REMARK  status: ('A' for Active; 'I' for Inactive)
REMARK    1  A    between atoms: C_1  and  C_2
REMARK    2  A    between atoms: N_15  and  C_25
REMARK    3  A    between atoms: C_16  and  C_18
REMARK    4  A    between atoms: C_21  and  O_24
REMARK    5  A    between atoms: C_25  and  C_26
REMARK    6  A    between atoms: C_26  and  N_27
REMARK                            x       y       z     vdW  Elec       q    Type
REMARK                         _______ _______ _______ _____ _____    ______ ____
ROOT
ATOM      1  C   UNL     1      -0.018   1.503   0.010  0.00  0.00    +0.044 C 
ATOM      2  C   UNL     1       0.002  -0.004   0.002  0.00  0.00    -0.050 A 
ATOM      3  C   UNL     1       0.006  -0.689  -1.205  0.00  0.00    +0.007 A 
ATOM      4  C   UNL     1       0.021  -2.065  -1.235  0.00  0.00    +0.047 A 
ATOM      5  C   UNL     1       0.035  -2.790  -0.043  0.00  0.00    +0.139 A 
ATOM      6  C   UNL     1       0.037  -2.086   1.172  0.00  0.00    +0.065 A 
ATOM      7  C   UNL     1       0.023  -0.692   1.183  0.00  0.00    +0.018 A 
ATOM      8  C   UNL     1       0.068  -2.849   2.446  0.00  0.00    +0.199 A 
ATOM      9  O   UNL     1      -0.097  -2.332   3.537  0.00  0.00    -0.287 OA
ATOM     10  C   UNL     1       0.314  -4.283   2.265  0.00  0.00    +0.072 A 
ATOM     11  C   UNL     1       0.294  -4.850   1.022  0.00  0.00    +0.199 A 
ATOM     12  O   UNL     1       0.043  -4.141  -0.096  0.00  0.00    -0.450 OA
ATOM     13  C   UNL     1       0.583  -6.288   1.166  0.00  0.00    +0.283 C 
ATOM     14  O   UNL     1       0.643  -7.081   0.247  0.00  0.00    -0.267 OA
ATOM     15  N   UNL     1       0.770  -6.596   2.465  0.00  0.00    -0.282 N 
ATOM     16  C   UNL     1       0.614  -5.362   3.253  0.00  0.00    +0.145 C 
ENDROOT
BRANCH  16  17
ATOM     17  C   UNL     1      -0.527  -5.508   4.226  0.00  0.00    -0.022 A 
ATOM     18  C   UNL     1      -1.668  -6.194   3.854  0.00  0.00    +0.009 A 
ATOM     19  C   UNL     1      -2.716  -6.329   4.744  0.00  0.00    +0.046 A 
ATOM     20  C   UNL     1      -2.622  -5.775   6.013  0.00  0.00    +0.117 A 
ATOM     21  C   UNL     1      -1.476  -5.088   6.384  0.00  0.00    +0.046 A 
ATOM     22  C   UNL     1      -0.429  -4.960   5.492  0.00  0.00    +0.009 A 
BRANCH  20  23
ATOM     23  O   UNL     1      -3.652  -5.906   6.890  0.00  0.00    -0.507 OA
ATOM     24  H   UNL     1      -3.597  -6.695   7.446  0.00  0.00    +0.292 HD
ENDBRANCH  20  23
ENDBRANCH  16  17
BRANCH  15  25
ATOM     25  C   UNL     1       1.076  -7.926   2.999  0.00  0.00    +0.124 C 
BRANCH  25  26
ATOM     26  C   UNL     1       2.593  -8.120   3.045  0.00  0.00    +0.103 C 
BRANCH  26  27
ATOM     27  N   UNL     1       2.899  -9.454   3.581  0.00  0.00    -0.297 NA
ATOM     28  C   UNL     1       2.496  -9.560   4.991  0.00  0.00    +0.112 C 
ATOM     29  C   UNL     1       2.778 -10.980   5.490  0.00  0.00    +0.175 C 
ATOM     30  O   UNL     1       4.163 -11.281   5.298  0.00  0.00    -0.377 OA
ATOM     31  C   UNL     1       4.589 -11.188   3.936  0.00  0.00    +0.175 C 
ATOM     32  C   UNL     1       4.326  -9.771   3.421  0.00  0.00    +0.112 C 
ENDBRANCH  26  27
ENDBRANCH  25  26
ENDBRANCH  15  25
TORSDOF 5
