REMARK  Name = ZINC38508395
REMARK  8 active torsions:
REMARK  status: ('A' for Active; 'I' for Inactive)
REMARK    1  A    between atoms: C_1  and  C_2
REMARK    2  A    between atoms: C_2  and  O_3
REMARK    3  A    between atoms: O_3  and  C_4
REMARK    4  A    between atoms: C_12  and  N_16
REMARK    5  A    between atoms: C_13  and  C_14
REMARK    6  A    between atoms: C_17  and  C_19
REMARK    7  A    between atoms: C_20  and  C_25
REMARK    8  A    between atoms: N_22  and  C_24
REMARK                            x       y       z     vdW  Elec       q    Type
REMARK                         _______ _______ _______ _____ _____    ______ ____
ROOT
ATOM      1  C   UNL     1       0.776  -1.798  -1.335  0.00  0.00    +0.403 C 
ATOM      2  O   UNL     1       0.312  -2.549  -0.500  0.00  0.00    -0.226 OA
ATOM      3  N   UNL     1       1.395  -2.298  -2.422  0.00  0.00    -0.262 N 
ATOM      4  C   UNL     1       1.519  -3.749  -2.627  0.00  0.00    +0.116 C 
ATOM      5  C   UNL     1       0.736  -4.160  -3.876  0.00  0.00    +0.056 C 
ATOM      6  C   UNL     1       1.080  -3.211  -5.015  0.00  0.00    -0.015 A 
ATOM      7  C   UNL     1       1.626  -1.996  -4.785  0.00  0.00    +0.013 A 
ATOM      8  S   UNL     1       1.833  -1.283  -6.389  0.00  0.00    -0.075 S 
ATOM      9  C   UNL     1       1.229  -2.531  -7.337  0.00  0.00    +0.090 A 
ATOM     10  C   UNL     1       0.863  -3.504  -6.421  0.00  0.00    +0.084 A 
ATOM     11  C   UNL     1       1.968  -1.410  -3.453  0.00  0.00    +0.153 C 
ENDROOT
BRANCH   9  12
ATOM     12  N   UNL     1       1.121  -2.577  -8.718  0.00  0.00    -0.274 N 
ATOM     13  C   UNL     1       1.531  -1.530  -9.461  0.00  0.00    +0.269 C 
ATOM     14  O   UNL     1       1.994  -0.545  -8.920  0.00  0.00    -0.268 OA
ATOM     15  H   UNL     1       0.751  -3.363  -9.150  0.00  0.00    +0.156 HD
BRANCH  13  16
ATOM     16  C   UNL     1       1.416  -1.579 -10.933  0.00  0.00    +0.150 A 
ATOM     17  C   UNL     1       1.806  -0.566 -11.842  0.00  0.00    -0.001 A 
ATOM     18  C   UNL     1       1.514  -1.052 -13.071  0.00  0.00    +0.112 A 
ATOM     19  N   UNL     1       0.982  -2.282 -12.899  0.00  0.00    -0.274 N 
ATOM     20  N   UNL     1       0.936  -2.575 -11.650  0.00  0.00    -0.167 NA
ATOM     21  C   UNL     1       0.528  -3.157 -13.983  0.00  0.00    +0.172 C 
ATOM     22  C   UNL     1       2.416   0.771 -11.511  0.00  0.00    +0.048 C 
ENDBRANCH  13  16
ENDBRANCH   9  12
BRANCH  10  23
ATOM     23  C   UNL     1       0.294  -4.749  -6.844  0.00  0.00    +0.102 C 
ATOM     24  N   UNL     1      -0.157  -5.736  -7.179  0.00  0.00    -0.191 NA
ENDBRANCH  10  23
BRANCH   1  25
ATOM     25  O   UNL     1       0.671  -0.465  -1.174  0.00  0.00    -0.451 OA
BRANCH  25  27
ATOM     26  C   UNL     1      -0.019   1.526   0.010  0.00  0.00    +0.048 C 
ATOM     27  C   UNL     1       0.002  -0.004   0.002  0.00  0.00    +0.230 C 
ENDBRANCH  25  27
ENDBRANCH   1  25
TORSDOF 5
