REMARK  Name = ZINC32639414
REMARK  7 active torsions:
REMARK  status: ('A' for Active; 'I' for Inactive)
REMARK    1  A    between atoms: C_1  and  C_2
REMARK    2  A    between atoms: C_2  and  C_3
REMARK    3  A    between atoms: C_3  and  C_4
REMARK    4  A    between atoms: C_4  and  C_5
REMARK    5  A    between atoms: C_5  and  N_7
REMARK    6  A    between atoms: N_9  and  C_20
REMARK    7  A    between atoms: C_24  and  C_26
REMARK                            x       y       z     vdW  Elec       q    Type
REMARK                         _______ _______ _______ _____ _____    ______ ____
ROOT
ATOM      1  N   UNL     1       1.655  -3.910   3.204  0.00  0.00    -0.159 NA
ATOM      2  C   UNL     1       2.547  -4.201   4.144  0.00  0.00    +0.154 C 
ATOM      3  N   UNL     1       3.270  -3.312   4.936  0.00  0.00    -0.276 N 
ATOM      4  C   UNL     1       3.968  -3.910   6.026  0.00  0.00    +0.116 C 
ATOM      5  C   UNL     1       5.047  -3.219   6.851  0.00  0.00    +0.190 C 
ATOM      6  S   UNL     1       5.503  -4.663   7.925  0.00  0.00    -0.028 S 
ATOM      7  O   UNL     1       6.918  -4.724   8.042  0.00  0.00    -0.174 OA
ATOM      8  O   UNL     1       4.704  -4.638   9.100  0.00  0.00    -0.174 OA
ATOM      9  C   UNL     1       4.928  -6.040   6.831  0.00  0.00    +0.182 C 
ATOM     10  C   UNL     1       4.608  -5.266   5.541  0.00  0.00    +0.097 C 
ATOM     11  S   UNL     1       3.084  -5.831   4.684  0.00  0.00    -0.086 S 
ENDROOT
BRANCH   3  12
ATOM     12  C   UNL     1       3.307  -1.936   4.683  0.00  0.00    +0.036 A 
ATOM     13  C   UNL     1       3.881  -1.460   3.511  0.00  0.00    +0.025 A 
ATOM     14  C   UNL     1       3.916  -0.102   3.263  0.00  0.00    +0.022 A 
ATOM     15  C   UNL     1       3.381   0.784   4.182  0.00  0.00    +0.053 A 
ATOM     16  C   UNL     1       2.809   0.313   5.350  0.00  0.00    +0.075 A 
ATOM     17  C   UNL     1       2.766  -1.045   5.600  0.00  0.00    +0.037 A 
ATOM     18 CL   UNL     1       3.429   2.491   3.868  0.00  0.00    -0.083 Cl
BRANCH  16  19
ATOM     19  C   UNL     1       2.228   1.281   6.348  0.00  0.00    +0.419 C 
ATOM     20  F   UNL     1       1.694   0.572   7.429  0.00  0.00    -0.166 F 
ATOM     21  F   UNL     1       3.233   2.140   6.804  0.00  0.00    -0.166 F 
ATOM     22  F   UNL     1       1.216   2.030   5.736  0.00  0.00    -0.166 F 
ENDBRANCH  16  19
ENDBRANCH   3  12
BRANCH   1  23
ATOM     23  C   UNL     1       1.275  -2.649   3.014  0.00  0.00    +0.238 C 
ATOM     24  O   UNL     1       0.864  -1.991   3.950  0.00  0.00    -0.274 OA
BRANCH  23  25
ATOM     25  C   UNL     1       1.355  -2.036   1.640  0.00  0.00    +0.098 C 
BRANCH  25  26
ATOM     26  C   UNL     1       0.744  -0.634   1.670  0.00  0.00    +0.009 C 
BRANCH  26  28
ATOM     27  C   UNL     1       0.104   1.343   0.283  0.00  0.00    +0.004 C 
ATOM     28  C   UNL     1       0.715  -0.059   0.253  0.00  0.00    -0.003 C 
ENDBRANCH  26  28
ENDBRANCH  25  26
ENDBRANCH  23  25
ENDBRANCH   1  23
TORSDOF 6
