REMARK  Name = ZINC61743203
REMARK  3 active torsions:
REMARK  status: ('A' for Active; 'I' for Inactive)
REMARK    1  A    between atoms: C_3  and  N_9
REMARK    2  A    between atoms: N_12  and  N_13
REMARK    3  A    between atoms: C_14  and  C_16
REMARK                            x       y       z     vdW  Elec       q    Type
REMARK                         _______ _______ _______ _____ _____    ______ ____
ROOT
ATOM      1  N   UNL     1       3.585   2.131  -0.021  0.00  0.00    -0.266 N 
ATOM      2  C   UNL     1       3.568   3.475  -0.116  0.00  0.00    +0.320 C 
ATOM      3  O   UNL     1       2.509   4.072  -0.103  0.00  0.00    -0.251 OA
ATOM      4  N   UNL     1       4.725   4.158  -0.225  0.00  0.00    -0.218 N 
ATOM      5  H   UNL     1       4.431   1.661   0.051  0.00  0.00    +0.157 HD
ATOM      6  H   UNL     1       4.712   5.125  -0.294  0.00  0.00    +0.174 HD
ENDROOT
BRANCH   1   9
ATOM      7  C   UNL     1       0.066   1.244  -0.627  0.00  0.00    +0.040 A 
ATOM      8  C   UNL     1       1.252   1.954  -0.622  0.00  0.00    +0.029 A 
ATOM      9  C   UNL     1       2.382   1.412  -0.027  0.00  0.00    +0.070 A 
ATOM     10  C   UNL     1       2.318   0.155   0.564  0.00  0.00    +0.147 A 
ATOM     11  C   UNL     1       1.130  -0.552   0.556  0.00  0.00    +0.078 A 
ATOM     12  C   UNL     1       0.004  -0.007  -0.039  0.00  0.00    +0.126 A 
ATOM     13  F   UNL     1      -1.157  -0.699  -0.045  0.00  0.00    -0.205 F 
ATOM     14  F   UNL     1       3.417  -0.376   1.144  0.00  0.00    -0.203 F 
ENDBRANCH   1   9
BRANCH   4  15
ATOM     15  N   UNL     1       5.945   3.470  -0.240  0.00  0.00    -0.233 N 
ATOM     16  C   UNL     1       7.102   4.153  -0.350  0.00  0.00    +0.234 C 
ATOM     17  O   UNL     1       7.087   5.363  -0.435  0.00  0.00    -0.274 OA
ATOM     18  H   UNL     1       5.958   2.503  -0.172  0.00  0.00    +0.173 HD
BRANCH  16  19
ATOM     19  C   UNL     1       8.415   3.413  -0.366  0.00  0.00    +0.099 C 
ATOM     20  C   UNL     1       8.435   2.435  -1.553  0.00  0.00    +0.037 C 
ATOM     21  C   UNL     1       9.893   1.924  -1.734  0.00  0.00    +0.166 C 
ATOM     22  S   UNL     1      10.835   3.481  -1.446  0.00  0.00    -0.030 S 
ATOM     23  O   UNL     1      11.056   4.124  -2.694  0.00  0.00    -0.174 OA
ATOM     24  O   UNL     1      11.940   3.203  -0.598  0.00  0.00    -0.174 OA
ATOM     25  C   UNL     1       9.575   4.429  -0.499  0.00  0.00    +0.178 C 
ENDBRANCH  16  19
ENDBRANCH   4  15
TORSDOF 3
