REMARK  Name = ZINC40962958
REMARK  12 active torsions:
REMARK  status: ('A' for Active; 'I' for Inactive)
REMARK    1  A    between atoms: C_1  and  C_2
REMARK    2  A    between atoms: C_2  and  O_3
REMARK    3  A    between atoms: O_3  and  C_4
REMARK    4  A    between atoms: C_7  and  C_12
REMARK    5  A    between atoms: C_9  and  O_10
REMARK    6  A    between atoms: O_10  and  C_11
REMARK    7  A    between atoms: C_14  and  C_18
REMARK    8  A    between atoms: C_15  and  C_17
REMARK    9  A    between atoms: C_18  and  N_19
REMARK   10  A    between atoms: N_22  and  C_27
REMARK   11  A    between atoms: C_23  and  C_26
REMARK   12  A    between atoms: C_30  and  C_33
REMARK                            x       y       z     vdW  Elec       q    Type
REMARK                         _______ _______ _______ _____ _____    ______ ____
ROOT
ATOM      1  C   UNL     1      -2.671  -5.825   1.167  0.00  0.00    +0.228 A 
ATOM      2  N   UNL     1      -1.547  -6.484   1.007  0.00  0.00    -0.216 NA
ATOM      3  C   UNL     1      -1.835  -7.728   0.594  0.00  0.00    +0.066 A 
ATOM      4  C   UNL     1      -3.172  -7.832   0.499  0.00  0.00    +0.124 A 
ATOM      5  O   UNL     1      -3.693  -6.643   0.862  0.00  0.00    -0.440 OA
ATOM      6  C   UNL     1      -3.946  -9.053   0.070  0.00  0.00    +0.088 C 
ENDROOT
BRANCH   1  10
ATOM      7  C   UNL     1      -3.013  -1.786   2.448  0.00  0.00    +0.162 A 
ATOM      8  C   UNL     1      -1.761  -2.367   2.314  0.00  0.00    +0.050 A 
ATOM      9  C   UNL     1      -1.646  -3.677   1.899  0.00  0.00    +0.017 A 
ATOM     10  C   UNL     1      -2.792  -4.421   1.612  0.00  0.00    +0.041 A 
ATOM     11  C   UNL     1      -4.053  -3.836   1.747  0.00  0.00    +0.062 A 
ATOM     12  C   UNL     1      -4.161  -2.524   2.170  0.00  0.00    +0.162 A 
BRANCH  12  13
ATOM     13  O   UNL     1      -5.388  -1.954   2.308  0.00  0.00    -0.491 OA
ATOM     14  C   UNL     1      -6.521  -2.770   2.005  0.00  0.00    +0.277 C 
ENDBRANCH  12  13
BRANCH   7  15
ATOM     15  O   UNL     1      -3.121  -0.494   2.858  0.00  0.00    -0.489 OA
BRANCH  15  17
ATOM     16  C   UNL     1      -2.224   1.634   3.572  0.00  0.00    +0.048 C 
ATOM     17  C   UNL     1      -1.904   0.205   3.126  0.00  0.00    +0.226 C 
ENDBRANCH  15  17
ENDBRANCH   7  15
ENDBRANCH   1  10
BRANCH   3  18
ATOM     18  C   UNL     1      -0.837  -8.816   0.291  0.00  0.00    -0.019 C 
BRANCH  18  19
ATOM     19  N   UNL     1      -0.573  -9.592   1.510  0.00  0.00    +0.386 N 
ATOM     20  C   UNL     1       0.069  -8.729   2.509  0.00  0.00    -0.059 C 
ATOM     21  C   UNL     1       0.240  -9.506   3.819  0.00  0.00    +0.087 C 
ATOM     22  N   UNL     1       0.970 -10.750   3.532  0.00  0.00    -0.331 N 
ATOM     23  C   UNL     1       0.488 -11.598   2.431  0.00  0.00    +0.054 C 
ATOM     24  C   UNL     1       0.306 -10.723   1.187  0.00  0.00    -0.056 C 
ATOM     25  C   UNL     1       1.512 -12.699   2.145  0.00  0.00    +0.026 C 
ATOM     26  H   UNL     1      -1.445  -9.941   1.880  0.00  0.00    -0.081 HD
BRANCH  22  27
ATOM     27  C   UNL     1       2.090 -11.115   4.283  0.00  0.00    +0.030 A 
ATOM     28  C   UNL     1       3.345 -10.622   3.947  0.00  0.00    +0.023 A 
ATOM     29  C   UNL     1       4.449 -10.984   4.692  0.00  0.00    +0.005 A 
ATOM     30  C   UNL     1       4.308 -11.837   5.771  0.00  0.00    -0.050 A 
ATOM     31  C   UNL     1       3.060 -12.330   6.109  0.00  0.00    +0.005 A 
ATOM     32  C   UNL     1       1.950 -11.967   5.371  0.00  0.00    +0.023 A 
ATOM     33  C   UNL     1       5.516 -12.232   6.582  0.00  0.00    +0.044 C 
ENDBRANCH  22  27
ENDBRANCH  18  19
ENDBRANCH   3  18
TORSDOF 7
