REMARK  Name = ZINC35524732
REMARK  6 active torsions:
REMARK  status: ('A' for Active; 'I' for Inactive)
REMARK    1  A    between atoms: C_1  and  N_2
REMARK    2  A    between atoms: N_2  and  C_3
REMARK    3  A    between atoms: N_2  and  C_4
REMARK    4  A    between atoms: C_4  and  C_5
REMARK    5  A    between atoms: C_24  and  C_26
REMARK    6  A    between atoms: C_26  and  C_27
REMARK                            x       y       z     vdW  Elec       q    Type
REMARK                         _______ _______ _______ _____ _____    ______ ____
ROOT
ATOM      1  C   UNL     1      -1.347  -2.014  -0.120  0.00  0.00    +0.116 A 
ATOM      2  N   UNL     1      -1.380  -2.557  -1.324  0.00  0.00    -0.219 NA
ATOM      3  C   UNL     1      -1.379  -3.867  -1.506  0.00  0.00    +0.133 A 
ATOM      4  C   UNL     1      -1.341  -4.724  -0.371  0.00  0.00    +0.051 A 
ATOM      5  C   UNL     1      -1.334  -6.187  -0.327  0.00  0.00    -0.025 A 
ATOM      6  C   UNL     1      -1.294  -6.762   0.892  0.00  0.00    -0.004 A 
ATOM      7  S   UNL     1      -1.264  -5.411   2.040  0.00  0.00    -0.073 S 
ATOM      8  C   UNL     1      -1.306  -4.072   0.878  0.00  0.00    +0.114 A 
ATOM      9  N   UNL     1      -1.305  -2.756   0.969  0.00  0.00    -0.227 NA
ATOM     10  C   UNL     1      -1.280  -8.227   1.204  0.00  0.00    +0.043 C 
ATOM     11  C   UNL     1      -1.694  -8.996  -0.059  0.00  0.00    +0.005 C 
ATOM     12  C   UNL     1      -0.895  -8.454  -1.247  0.00  0.00    +0.005 C 
ATOM     13  C   UNL     1      -1.371  -7.042  -1.591  0.00  0.00    +0.037 C 
ATOM     14  N   UNL     1      -1.415  -4.397  -2.784  0.00  0.00    -0.312 N 
ATOM     15  C   UNL     1      -2.692  -4.797  -3.392  0.00  0.00    +0.125 C 
ATOM     16  C   UNL     1      -2.845  -4.068  -4.732  0.00  0.00    +0.126 C 
ATOM     17  N   UNL     1      -1.608  -4.240  -5.506  0.00  0.00    -0.298 N 
ATOM     18  C   UNL     1      -0.331  -3.840  -4.897  0.00  0.00    +0.126 C 
ATOM     19  C   UNL     1      -0.178  -4.564  -3.559  0.00  0.00    +0.125 C 
ATOM     20  C   UNL     1      -1.642  -4.757  -6.750  0.00  0.00    +0.220 C 
ATOM     21  O   UNL     1      -2.702  -5.084  -7.242  0.00  0.00    -0.275 OA
ENDROOT
BRANCH   1  22
ATOM     22  C   UNL     1      -1.351  -0.512   0.012  0.00  0.00    -0.002 C 
BRANCH  22  24
ATOM     23  C   UNL     1       0.025   1.452   0.014  0.00  0.00    -0.096 C 
ATOM     24  N   UNL     1       0.032  -0.017   0.006  0.00  0.00    +0.381 N 
ATOM     25  C   UNL     1       0.733  -0.509   1.199  0.00  0.00    -0.096 C 
ATOM     26  H   UNL     1       0.504  -0.346  -0.822  0.00  0.00    -0.082 HD
ENDBRANCH  22  24
ENDBRANCH   1  22
BRANCH  20  27
ATOM     27  C   UNL     1      -0.365  -4.928  -7.531  0.00  0.00    +0.138 C 
BRANCH  27  28
ATOM     28  C   UNL     1      -0.677  -5.520  -8.881  0.00  0.00    -0.001 A 
ATOM     29  C   UNL     1      -0.962  -4.888 -10.046  0.00  0.00    +0.011 A 
ATOM     30  C   UNL     1      -1.218  -5.644 -11.174  0.00  0.00    +0.008 A 
ATOM     31  C   UNL     1      -1.177  -6.995 -11.083  0.00  0.00    +0.045 A 
ATOM     32  S   UNL     1      -0.759  -7.237  -9.364  0.00  0.00    -0.101 S 
ENDBRANCH  27  28
ENDBRANCH  20  27
TORSDOF 4
