REMARK  Name = ZINC23156861
REMARK  6 active torsions:
REMARK  status: ('A' for Active; 'I' for Inactive)
REMARK    1  A    between atoms: C_1  and  C_2
REMARK    2  A    between atoms: C_5  and  C_8
REMARK    3  A    between atoms: C_8  and  C_10
REMARK    4  A    between atoms: C_8  and  N_20
REMARK    5  A    between atoms: C_16  and  C_18
REMARK    6  A    between atoms: C_23  and  C_26
REMARK                            x       y       z     vdW  Elec       q    Type
REMARK                         _______ _______ _______ _____ _____    ______ ____
ROOT
ATOM      1  C   UNL     1      -1.154  -0.971   0.009  0.00  0.00    +0.006 C 
ENDROOT
BRANCH   1   2
ATOM      2  C   UNL     1       0.002  -0.004   0.002  0.00  0.00    +0.050 A 
ATOM      3  C   UNL     1       1.316  -0.258  -0.012  0.00  0.00    +0.282 A 
ATOM      4  N   UNL     1       2.228   0.771  -0.015  0.00  0.00    -0.170 N 
ATOM      5  C   UNL     1       1.736   2.040  -0.004  0.00  0.00    +0.199 A 
ATOM      6  S   UNL     1      -0.022   1.782   0.012  0.00  0.00    -0.050 S 
ATOM      7  N   UNL     1       2.724   2.893  -0.009  0.00  0.00    -0.205 NA
ATOM      8  C   UNL     1       3.878   2.229  -0.024  0.00  0.00    +0.150 A 
ATOM      9  N   UNL     1       3.636   0.945  -0.027  0.00  0.00    -0.147 NA
ATOM     10  C   UNL     1       5.247   2.859  -0.034  0.00  0.00    +0.090 C 
ATOM     11  O   UNL     1       1.753  -1.546  -0.023  0.00  0.00    -0.265 OA
ENDBRANCH   1   2
BRANCH   1  16
ATOM     12  C   UNL     1      -3.483  -1.153   5.294  0.00  0.00    +0.044 C 
ATOM     13  C   UNL     1      -2.876  -1.105   3.916  0.00  0.00    -0.050 A 
ATOM     14  C   UNL     1      -2.003  -2.098   3.511  0.00  0.00    +0.003 A 
ATOM     15  C   UNL     1      -1.446  -2.054   2.246  0.00  0.00    +0.002 A 
ATOM     16  C   UNL     1      -1.761  -1.019   1.387  0.00  0.00    -0.056 A 
ATOM     17  C   UNL     1      -2.630  -0.023   1.794  0.00  0.00    +0.002 A 
ATOM     18  C   UNL     1      -3.191  -0.069   3.056  0.00  0.00    +0.003 A 
ENDBRANCH   1  16
BRANCH   1  19
ATOM     19  N   UNL     1      -2.167  -0.530  -0.959  0.00  0.00    +0.387 N 
ATOM     20  C   UNL     1      -3.354  -1.393  -0.909  0.00  0.00    -0.077 C 
ATOM     21  C   UNL     1      -4.442  -0.821  -1.820  0.00  0.00    -0.006 C 
ATOM     22  C   UNL     1      -3.909  -0.737  -3.253  0.00  0.00    +0.071 C 
ATOM     23  C   UNL     1      -2.646   0.129  -3.269  0.00  0.00    -0.006 C 
ATOM     24  C   UNL     1      -1.610  -0.471  -2.316  0.00  0.00    -0.077 C 
ATOM     25  H   UNL     1      -2.481   0.488  -0.681  0.00  0.00    -0.080 HD
BRANCH  22  26
ATOM     26  C   UNL     1      -4.954  -0.119  -4.145  0.00  0.00    +0.213 C 
ATOM     27  O   UNL     1      -4.714   0.912  -4.737  0.00  0.00    -0.276 OA
ATOM     28  N   UNL     1      -6.156  -0.712  -4.286  0.00  0.00    -0.329 N 
ATOM     29  H   UNL     1      -6.919  -0.261  -4.937  0.00  0.00    +0.145 HD
ATOM     30  H   UNL     1      -6.374  -1.647  -3.749  0.00  0.00    +0.145 HD
ENDBRANCH  22  26
ENDBRANCH   1  19
TORSDOF 4
