REMARK  Name = ZINC05428689
REMARK  4 active torsions:
REMARK  status: ('A' for Active; 'I' for Inactive)
REMARK    1  A    between atoms: C_4  and  C_7
REMARK    2  A    between atoms: C_7  and  C_8
REMARK    3  A    between atoms: C_8  and  N_46
REMARK    4  A    between atoms: N_17  and  C_21
REMARK                            x       y       z     vdW  Elec       q    Type
REMARK                         _______ _______ _______ _____ _____    ______ ____
ROOT
ATOM      1  C   UNL     1      -0.569   1.181  -1.198  0.00  0.00    -0.032 C 
ATOM      2  C   UNL     1      -0.263  -0.158  -0.581  0.00  0.00    +0.039 A 
ATOM      3  C   UNL     1      -1.165  -0.701   0.353  0.00  0.00    +0.257 A 
ATOM      4  O   UNL     1      -2.175  -0.089   0.655  0.00  0.00    -0.267 OA
ATOM      5  N   UNL     1      -0.908  -1.899   0.911  0.00  0.00    -0.274 N 
ATOM      6  H   UNL     1      -1.546  -2.284   1.578  0.00  0.00    +0.173 HD
ATOM      7  C   UNL     1       0.203  -2.581   0.578  0.00  0.00    +0.335 A 
ATOM      8  O   UNL     1       0.417  -3.663   1.089  0.00  0.00    -0.246 OA
ATOM      9  N   UNL     1       1.080  -2.083  -0.310  0.00  0.00    -0.250 N 
ATOM     10  C   UNL     1       0.861  -0.856  -0.903  0.00  0.00    +0.112 A 
ATOM     11  N   UNL     1       1.791  -0.384  -1.788  0.00  0.00    -0.346 N 
ATOM     12  C   UNL     1       1.256   0.656  -2.671  0.00  0.00    +0.028 C 
ATOM     13  H   UNL     1       2.198  -1.137  -2.322  0.00  0.00    +0.145 HD
ATOM     14  N   UNL     1       0.653   1.708  -1.831  0.00  0.00    +0.393 N 
ATOM     15  H   UNL     1       1.321   1.980  -1.100  0.00  0.00    -0.079 HD
ENDROOT
BRANCH   9  16
ATOM     16  C   UNL     1       2.228  -2.817  -0.638  0.00  0.00    +0.053 A 
ATOM     17  C   UNL     1       3.413  -2.600   0.051  0.00  0.00    +0.028 A 
ATOM     18  C   UNL     1       4.542  -3.328  -0.271  0.00  0.00    +0.022 A 
ATOM     19  C   UNL     1       4.495  -4.266  -1.287  0.00  0.00    +0.041 A 
ATOM     20  C   UNL     1       3.316  -4.481  -1.979  0.00  0.00    +0.022 A 
ATOM     21  C   UNL     1       2.183  -3.760  -1.657  0.00  0.00    +0.028 A 
ATOM     22 CL   UNL     1       5.917  -5.174  -1.695  0.00  0.00    -0.084 Cl
ENDBRANCH   9  16
BRANCH  14  23
ATOM     23  C   UNL     1       0.329   2.896  -2.655  0.00  0.00    -0.071 C 
BRANCH  23  24
ATOM     24  C   UNL     1       1.630   3.560  -3.108  0.00  0.00    +0.016 C 
BRANCH  24  28
ATOM     25  C   UNL     1       0.725   7.011  -5.458  0.00  0.00    +0.000 A 
ATOM     26  C   UNL     1       0.872   7.126  -4.088  0.00  0.00    +0.000 A 
ATOM     27  C   UNL     1       1.165   6.010  -3.328  0.00  0.00    +0.003 A 
ATOM     28  C   UNL     1       1.311   4.777  -3.937  0.00  0.00    -0.049 A 
ATOM     29  C   UNL     1       1.169   4.663  -5.308  0.00  0.00    +0.003 A 
ATOM     30  C   UNL     1       0.871   5.778  -6.067  0.00  0.00    +0.000 A 
ENDBRANCH  24  28
ENDBRANCH  23  24
ENDBRANCH  14  23
TORSDOF 4
