REMARK  Name = ZINC31868390
REMARK  6 active torsions:
REMARK  status: ('A' for Active; 'I' for Inactive)
REMARK    1  A    between atoms: C_1  and  C_2
REMARK    2  A    between atoms: C_6  and  C_11
REMARK    3  A    between atoms: N_7  and  C_10
REMARK    4  A    between atoms: C_13  and  C_14
REMARK    5  A    between atoms: N_16  and  C_17
REMARK    6  A    between atoms: C_23  and  C_25
REMARK                            x       y       z     vdW  Elec       q    Type
REMARK                         _______ _______ _______ _____ _____    ______ ____
ROOT
ATOM      1  C   UNL     1      -4.158  -0.467  -2.977  0.00  0.00    +0.046 C 
ATOM      2  C   UNL     1      -3.554   0.815  -3.489  0.00  0.00    -0.017 A 
ATOM      3  C   UNL     1      -4.093   1.442  -4.615  0.00  0.00    +0.076 A 
ATOM      4  C   UNL     1      -3.452   2.634  -5.022  0.00  0.00    +0.116 A 
ATOM      5  N   UNL     1      -3.861   3.324  -6.079  0.00  0.00    -0.227 NA
ATOM      6  C   UNL     1      -4.879   2.934  -6.798  0.00  0.00    +0.110 A 
ATOM      7  N   UNL     1      -5.573   1.806  -6.506  0.00  0.00    -0.299 N 
ATOM      8  C   UNL     1      -5.242   1.032  -5.455  0.00  0.00    +0.262 A 
ATOM      9  O   UNL     1      -5.872   0.021  -5.200  0.00  0.00    -0.267 OA
ATOM     10  C   UNL     1      -6.706   1.422  -7.352  0.00  0.00    +0.153 C 
ATOM     11  C   UNL     1      -5.295   3.762  -7.987  0.00  0.00    +0.086 C 
ATOM     12  S   UNL     1      -2.153   2.826  -3.827  0.00  0.00    -0.064 S 
ATOM     13  C   UNL     1      -2.483   1.368  -2.852  0.00  0.00    +0.079 A 
ENDROOT
BRANCH  13  14
ATOM     14  C   UNL     1      -1.773   0.883  -1.664  0.00  0.00    +0.251 C 
ATOM     15  O   UNL     1      -2.135  -0.142  -1.116  0.00  0.00    -0.270 OA
ATOM     16  N   UNL     1      -0.721   1.571  -1.179  0.00  0.00    -0.308 N 
ATOM     17  H   UNL     1      -0.395   2.497  -1.674  0.00  0.00    +0.149 HD
BRANCH  16  18
ATOM     18  C   UNL     1      -0.013   1.086   0.008  0.00  0.00    +0.076 C 
ATOM     19  C   UNL     1      -0.729   1.579   1.267  0.00  0.00    +0.022 C 
ATOM     20  C   UNL     1       0.011   1.072   2.506  0.00  0.00    +0.002 C 
ATOM     21  C   UNL     1       1.446   1.602   2.495  0.00  0.00    +0.000 C 
ATOM     22  C   UNL     1       2.163   1.109   1.237  0.00  0.00    +0.005 C 
ATOM     23  C   UNL     1       1.423   1.615  -0.003  0.00  0.00    +0.006 C 
ATOM     24  C   UNL     1       2.139   1.122  -1.262  0.00  0.00    +0.009 C 
ENDBRANCH  16  18
ENDBRANCH  13  14
TORSDOF 2
