REMARK  Name = ZINC36288310
REMARK  5 active torsions:
REMARK  status: ('A' for Active; 'I' for Inactive)
REMARK    1  A    between atoms: C_1  and  C_2
REMARK    2  A    between atoms: C_5  and  C_23
REMARK    3  A    between atoms: N_8  and  S_10
REMARK    4  A    between atoms: S_10  and  N_13
REMARK    5  A    between atoms: N_13  and  C_14
REMARK                            x       y       z     vdW  Elec       q    Type
REMARK                         _______ _______ _______ _____ _____    ______ ____
ROOT
ATOM      1  N   UNL     1       2.435  -3.360  -0.114  0.00  0.00    -0.206 N 
ATOM      2  H   UNL     1       3.337  -3.186  -0.428  0.00  0.00    +0.175 HD
ENDROOT
BRANCH   1   3
ATOM      3  C   UNL     1       1.549  -4.099  -0.907  0.00  0.00    +0.049 A 
ATOM      4  C   UNL     1       0.787  -5.113  -0.343  0.00  0.00    +0.026 A 
ATOM      5  C   UNL     1      -0.085  -5.841  -1.123  0.00  0.00    +0.025 A 
ATOM      6  C   UNL     1      -0.209  -5.566  -2.487  0.00  0.00    +0.031 A 
ATOM      7  C   UNL     1       0.554  -4.552  -3.044  0.00  0.00    -0.023 A 
ATOM      8  C   UNL     1       1.424  -3.818  -2.261  0.00  0.00    +0.030 A 
ATOM      9  C   UNL     1       0.232  -4.462  -4.519  0.00  0.00    +0.055 C 
ATOM     10  C   UNL     1      -0.821  -5.557  -4.753  0.00  0.00    +0.106 C 
ATOM     11  N   UNL     1      -1.026  -6.180  -3.443  0.00  0.00    -0.343 N 
ATOM     12  H   UNL     1      -1.637  -6.912  -3.264  0.00  0.00    +0.146 HD
ENDBRANCH   1   3
BRANCH   1  13
ATOM     13  S   UNL     1       1.945  -2.784   1.359  0.00  0.00    +0.112 S 
ATOM     14  O   UNL     1       3.011  -1.990   1.860  0.00  0.00    -0.138 OA
ATOM     15  O   UNL     1       1.419  -3.893   2.074  0.00  0.00    -0.138 OA
BRANCH  13  21
ATOM     16  C   UNL     1       0.289   1.461  -0.879  0.00  0.00    +0.009 C 
ATOM     17  C   UNL     1       0.160  -0.031  -0.565  0.00  0.00    +0.002 C 
ATOM     18  C   UNL     1      -1.317  -0.390  -0.387  0.00  0.00    +0.009 C 
ATOM     19  C   UNL     1      -1.449  -1.889  -0.106  0.00  0.00    +0.002 C 
ATOM     20  C   UNL     1      -0.709  -2.227   1.192  0.00  0.00    +0.114 C 
ATOM     21  N   UNL     1       0.677  -1.754   1.084  0.00  0.00    -0.163 NA
ATOM     22  C   UNL     1       0.919  -0.349   0.727  0.00  0.00    +0.114 C 
ATOM     23  C   UNL     1      -2.928  -2.253   0.038  0.00  0.00    +0.009 C 
ENDBRANCH  13  21
ENDBRANCH   1  13
TORSDOF 3
