REMARK  Name = ZINC63247366
REMARK  4 active torsions:
REMARK  status: ('A' for Active; 'I' for Inactive)
REMARK    1  A    between atoms: C_1  and  C_2
REMARK    2  A    between atoms: N_8  and  C_11
REMARK    3  A    between atoms: N_18  and  C_19
REMARK    4  A    between atoms: C_19  and  C_20
REMARK                            x       y       z     vdW  Elec       q    Type
REMARK                         _______ _______ _______ _____ _____    ______ ____
ROOT
ATOM      1  C   UNL     1      -0.018   1.503   0.010  0.00  0.00    +0.088 C 
ATOM      2  C   UNL     1       0.002  -0.004   0.002  0.00  0.00    +0.130 A 
ATOM      3  N   UNL     1       0.005  -0.632  -1.161  0.00  0.00    -0.217 NA
ATOM      4  C   UNL     1       0.023  -1.959  -1.226  0.00  0.00    +0.133 A 
ATOM      5  C   UNL     1       0.039  -2.688  -0.022  0.00  0.00    +0.079 A 
ATOM      6  C   UNL     1       0.060  -4.061   0.308  0.00  0.00    +0.148 A 
ATOM      7  N   UNL     1       0.068  -4.175   1.606  0.00  0.00    -0.172 NA
ATOM      8  N   UNL     1       0.053  -2.902   2.192  0.00  0.00    -0.214 N 
ATOM      9  C   UNL     1       0.035  -1.972   1.192  0.00  0.00    +0.168 A 
ATOM     10  N   UNL     1       0.022  -0.641   1.152  0.00  0.00    -0.213 NA
ATOM     11  N   UNL     1       0.026  -2.607  -2.446  0.00  0.00    -0.321 N 
ATOM     12  H   UNL     1       0.039  -3.576  -2.480  0.00  0.00    +0.148 HD
ENDROOT
BRANCH   8  13
ATOM     13  C   UNL     1       0.055  -2.631   3.566  0.00  0.00    +0.068 A 
ATOM     14  C   UNL     1       0.727  -1.518   4.054  0.00  0.00    +0.030 A 
ATOM     15  C   UNL     1       0.728  -1.252   5.409  0.00  0.00    +0.040 A 
ATOM     16  C   UNL     1       0.059  -2.095   6.282  0.00  0.00    +0.124 A 
ATOM     17  C   UNL     1      -0.611  -3.205   5.797  0.00  0.00    +0.040 A 
ATOM     18  C   UNL     1      -0.619  -3.471   4.442  0.00  0.00    +0.030 A 
ATOM     19  F   UNL     1       0.062  -1.833   7.607  0.00  0.00    -0.205 F 
ENDBRANCH   8  13
BRANCH  11  20
ATOM     20  C   UNL     1       0.008  -1.830  -3.688  0.00  0.00    +0.179 C 
BRANCH  20  21
ATOM     21  C   UNL     1       0.015  -2.769  -4.867  0.00  0.00    +0.155 A 
ATOM     22  N   UNL     1       1.073  -3.240  -5.474  0.00  0.00    -0.132 NA
ATOM     23  N   UNL     1       0.725  -4.014  -6.441  0.00  0.00    -0.129 NA
ATOM     24  C   UNL     1      -0.595  -4.078  -6.502  0.00  0.00    +0.161 A 
ATOM     25  N   UNL     1      -1.079  -3.285  -5.491  0.00  0.00    -0.285 N 
ATOM     26  C   UNL     1      -2.422  -3.155  -5.297  0.00  0.00    +0.094 A 
ATOM     27  C   UNL     1      -3.296  -3.805  -6.094  0.00  0.00    +0.018 A 
ATOM     28  C   UNL     1      -2.831  -4.626  -7.136  0.00  0.00    +0.005 A 
ATOM     29  C   UNL     1      -1.494  -4.759  -7.345  0.00  0.00    +0.048 A 
ENDBRANCH  20  21
ENDBRANCH  11  20
TORSDOF 3
