REMARK  Name = ZINC01393605
REMARK  5 active torsions:
REMARK  status: ('A' for Active; 'I' for Inactive)
REMARK    1  A    between atoms: C_1  and  C_2
REMARK    2  A    between atoms: C_3  and  C_21
REMARK    3  A    between atoms: C_6  and  S_12
REMARK    4  A    between atoms: C_10  and  C_11
REMARK    5  A    between atoms: S_12  and  C_15
REMARK                            x       y       z     vdW  Elec       q    Type
REMARK                         _______ _______ _______ _____ _____    ______ ____
ROOT
ATOM      1  C   UNL     1      -0.018   1.503   0.010  0.00  0.00    +0.047 C 
ATOM      2  C   UNL     1       0.002  -0.004   0.002  0.00  0.00    -0.008 A 
ATOM      3  C   UNL     1       0.006  -0.704  -1.213  0.00  0.00    +0.045 A 
ATOM      4  N   UNL     1       0.024  -2.016  -1.220  0.00  0.00    -0.231 NA
ATOM      5  C   UNL     1       0.039  -2.709  -0.074  0.00  0.00    +0.181 A 
ATOM      6  C   UNL     1       0.059  -4.070   0.202  0.00  0.00    +0.157 A 
ATOM      7  C   UNL     1       0.068  -4.220   1.580  0.00  0.00    +0.164 A 
ATOM      8  N   UNL     1       0.054  -3.031   2.140  0.00  0.00    -0.171 NA
ATOM      9  N   UNL     1       0.036  -2.058   1.134  0.00  0.00    -0.217 N 
ATOM     10  C   UNL     1       0.022  -0.694   1.169  0.00  0.00    +0.047 A 
ATOM     11  C   UNL     1       0.025   0.037   2.487  0.00  0.00    +0.066 C 
ATOM     12  C   UNL     1      -0.011   0.053  -2.516  0.00  0.00    +0.066 C 
ENDROOT
BRANCH   6  13
ATOM     13  S   UNL     1       0.071  -5.371  -0.986  0.00  0.00    +0.030 S 
ATOM     14  O   UNL     1       1.087  -5.053  -1.927  0.00  0.00    -0.164 OA
ATOM     15  O   UNL     1       0.064  -6.589  -0.254  0.00  0.00    -0.164 OA
BRANCH  13  16
ATOM     16  C   UNL     1      -1.460  -5.297  -1.855  0.00  0.00    +0.094 A 
ATOM     17  C   UNL     1      -2.554  -6.002  -1.389  0.00  0.00    +0.027 A 
ATOM     18  C   UNL     1      -3.756  -5.944  -2.071  0.00  0.00    +0.002 A 
ATOM     19  C   UNL     1      -3.863  -5.181  -3.218  0.00  0.00    +0.000 A 
ATOM     20  C   UNL     1      -2.769  -4.476  -3.684  0.00  0.00    +0.002 A 
ATOM     21  C   UNL     1      -1.569  -4.530  -3.000  0.00  0.00    +0.027 A 
ENDBRANCH  13  16
ENDBRANCH   6  13
TORSDOF 2
