REMARK  Name = ZINC41430015
REMARK  4 active torsions:
REMARK  status: ('A' for Active; 'I' for Inactive)
REMARK    1  A    between atoms: C_1  and  C_2
REMARK    2  A    between atoms: C_3  and  O_14
REMARK    3  A    between atoms: O_14  and  C_15
REMARK    4  A    between atoms: C_15  and  C_17
REMARK                            x       y       z     vdW  Elec       q    Type
REMARK                         _______ _______ _______ _____ _____    ______ ____
ROOT
ATOM      1  C   UNL     1      -0.117   1.520  -0.003  0.00  0.00    +0.051 C 
ATOM      2  C   UNL     1      -0.048   0.014   0.002  0.00  0.00    +0.035 A 
ATOM      3  C   UNL     1       0.004  -0.683  -1.194  0.00  0.00    +0.138 A 
ATOM      4  C   UNL     1       0.069  -2.074  -1.200  0.00  0.00    +0.047 A 
ATOM      5  C   UNL     1       0.082  -2.771  -0.025  0.00  0.00    +0.019 A 
ATOM      6  C   UNL     1       0.031  -2.083   1.187  0.00  0.00    +0.066 A 
ATOM      7  C   UNL     1      -0.029  -0.679   1.204  0.00  0.00    +0.145 A 
ATOM      8  O   UNL     1      -0.073  -0.025   2.383  0.00  0.00    -0.461 OA
ATOM      9  C   UNL     1      -0.057  -0.665   3.558  0.00  0.00    +0.219 A 
ATOM     10  C   UNL     1       0.004  -2.006   3.657  0.00  0.00    +0.123 A 
ATOM     11  C   UNL     1       0.044  -2.796   2.477  0.00  0.00    +0.211 A 
ATOM     12  O   UNL     1       0.099  -4.014   2.530  0.00  0.00    -0.285 OA
ATOM     13 CL   UNL     1       0.022  -2.765   5.218  0.00  0.00    -0.076 Cl
ENDROOT
BRANCH   3  14
ATOM     14  O   UNL     1      -0.010  -0.004  -2.370  0.00  0.00    -0.424 OA
BRANCH  14  15
ATOM     15  C   UNL     1       1.149   0.509  -2.815  0.00  0.00    +0.342 C 
ATOM     16  O   UNL     1       2.178   0.276  -2.227  0.00  0.00    -0.247 OA
BRANCH  15  17
ATOM     17  C   UNL     1       1.164   1.376  -4.048  0.00  0.00    +0.227 C 
ATOM     18  C   UNL     1       0.752   0.541  -5.280  0.00  0.00    +0.045 C 
ATOM     19  C   UNL     1       1.708   1.081  -6.378  0.00  0.00    +0.031 C 
ATOM     20  C   UNL     1       2.978   1.381  -5.542  0.00  0.00    +0.161 C 
ATOM     21  O   UNL     1       2.490   1.867  -4.279  0.00  0.00    -0.365 OA
ENDBRANCH  15  17
ENDBRANCH  14  15
ENDBRANCH   3  14
TORSDOF 3
