REMARK  Name = ZINC33644595
REMARK  2 active torsions:
REMARK  status: ('A' for Active; 'I' for Inactive)
REMARK    1  A    between atoms: C_4  and  C_7
REMARK    2  A    between atoms: C_14  and  N_22
REMARK                            x       y       z     vdW  Elec       q    Type
REMARK                         _______ _______ _______ _____ _____    ______ ____
ROOT
ATOM      1  C   UNL     1      -0.565   1.966  -1.276  0.00  0.00    +0.117 C 
ATOM      2  C   UNL     1       0.642   2.592  -2.007  0.00  0.00    +0.186 C 
ATOM      3  O   UNL     1       1.784   1.950  -1.394  0.00  0.00    -0.355 OA
ATOM      4  C   UNL     1       1.422   1.851  -0.002  0.00  0.00    +0.223 C 
ATOM      5  N   UNL     1      -0.018   1.476   0.010  0.00  0.00    -0.239 NA
ATOM      6  C   UNL     1       0.002  -0.004   0.002  0.00  0.00    +0.213 C 
ATOM      7  C   UNL     1       1.312  -0.406   0.639  0.00  0.00    -0.002 A 
ATOM      8  C   UNL     1       2.154   0.693   0.633  0.00  0.00    +0.002 A 
ATOM      9  C   UNL     1       3.427   0.588   1.161  0.00  0.00    +0.008 A 
ATOM     10  C   UNL     1       3.858  -0.611   1.697  0.00  0.00    +0.000 A 
ATOM     11  C   UNL     1       3.016  -1.707   1.705  0.00  0.00    +0.000 A 
ATOM     12  C   UNL     1       1.744  -1.604   1.175  0.00  0.00    +0.007 A 
ENDROOT
BRANCH   6  13
ATOM     13  N   UNL     1      -1.121  -0.528   0.783  0.00  0.00    -0.222 N 
ATOM     14  C   UNL     1      -1.968  -1.549   0.423  0.00  0.00    +0.091 A 
ATOM     15  C   UNL     1      -2.068  -2.374  -0.692  0.00  0.00    +0.030 A 
ATOM     16  C   UNL     1      -3.051  -3.321  -0.751  0.00  0.00    +0.002 A 
ATOM     17  C   UNL     1      -3.954  -3.468   0.295  0.00  0.00    +0.002 A 
ATOM     18  C   UNL     1      -3.873  -2.677   1.403  0.00  0.00    +0.032 A 
ATOM     19  C   UNL     1      -2.877  -1.694   1.485  0.00  0.00    +0.113 A 
ATOM     20  N   UNL     1      -2.562  -0.777   2.421  0.00  0.00    -0.129 NA
ATOM     21  N   UNL     1      -1.547  -0.084   2.044  0.00  0.00    -0.063 NA
ENDBRANCH   6  13
BRANCH   1  25
ATOM     22  C   UNL     1      -3.575   4.917  -0.581  0.00  0.00    +0.000 A 
ATOM     23  C   UNL     1      -3.746   3.978  -1.581  0.00  0.00    +0.000 A 
ATOM     24  C   UNL     1      -2.772   3.022  -1.805  0.00  0.00    +0.005 A 
ATOM     25  C   UNL     1      -1.627   3.008  -1.031  0.00  0.00    -0.028 A 
ATOM     26  C   UNL     1      -1.458   3.944  -0.028  0.00  0.00    +0.005 A 
ATOM     27  C   UNL     1      -2.430   4.902   0.193  0.00  0.00    +0.000 A 
ENDBRANCH   1  25
TORSDOF 2
