REMARK  Name = ZINC43864747
REMARK  8 active torsions:
REMARK  status: ('A' for Active; 'I' for Inactive)
REMARK    1  A    between atoms: C_1  and  C_2
REMARK    2  A    between atoms: C_2  and  C_3
REMARK    3  A    between atoms: C_6  and  C_9
REMARK    4  A    between atoms: C_9  and  C_11
REMARK    5  A    between atoms: C_9  and  N_14
REMARK    6  A    between atoms: C_11  and  C_12
REMARK    7  A    between atoms: C_11  and  C_13
REMARK    8  A    between atoms: C_22  and  C_24
REMARK                            x       y       z     vdW  Elec       q    Type
REMARK                         _______ _______ _______ _____ _____    ______ ____
ROOT
ATOM      1  C   UNL     1       2.731  -1.903  -4.744  0.00  0.00    +0.107 C 
ENDROOT
BRANCH   1   2
ATOM      2  N   UNL     1       4.005  -1.194  -4.880  0.00  0.00    -0.292 N 
ATOM      3  C   UNL     1       4.575  -1.059  -6.094  0.00  0.00    +0.303 C 
ATOM      4  O   UNL     1       4.072  -1.591  -7.064  0.00  0.00    -0.253 OA
ATOM      5  N   UNL     1       5.703  -0.334  -6.232  0.00  0.00    -0.278 N 
ATOM      6  C   UNL     1       6.398   0.217  -5.058  0.00  0.00    +0.137 C 
ATOM      7  C   UNL     1       7.879  -0.168  -5.149  0.00  0.00    +0.179 C 
ATOM      8  O   UNL     1       8.389   0.218  -6.428  0.00  0.00    -0.376 OA
ATOM      9  C   UNL     1       7.762  -0.441  -7.531  0.00  0.00    +0.182 C 
ATOM     10  C   UNL     1       6.278  -0.075  -7.562  0.00  0.00    +0.100 C 
ATOM     11  C   UNL     1       5.560  -0.928  -8.610  0.00  0.00    +0.030 C 
ATOM     12  H   UNL     1       4.439  -0.822  -4.097  0.00  0.00    +0.151 HD
ENDBRANCH   1   2
BRANCH   1  16
ATOM     13  C   UNL     1       0.705  -0.533  -1.241  0.00  0.00    -0.048 A 
ATOM     14  C   UNL     1      -0.008  -0.783  -2.399  0.00  0.00    +0.004 A 
ATOM     15  C   UNL     1       0.647  -1.226  -3.533  0.00  0.00    +0.006 A 
ATOM     16  C   UNL     1       2.016  -1.419  -3.509  0.00  0.00    -0.027 A 
ATOM     17  C   UNL     1       2.729  -1.169  -2.351  0.00  0.00    +0.006 A 
ATOM     18  C   UNL     1       2.074  -0.722  -1.219  0.00  0.00    +0.004 A 
BRANCH  13  20
ATOM     19  C   UNL     1      -0.057   1.479  -0.009  0.00  0.00    +0.009 C 
ATOM     20  C   UNL     1      -0.010  -0.050  -0.006  0.00  0.00    +0.032 C 
ENDBRANCH  13  20
ENDBRANCH   1  16
BRANCH   1  21
ATOM     21  C   UNL     1       2.993  -3.406  -4.625  0.00  0.00    +0.008 C 
ATOM     22  C   UNL     1       1.662  -4.146  -4.483  0.00  0.00    +0.009 C 
ATOM     23  C   UNL     1       3.718  -3.897  -5.880  0.00  0.00    +0.009 C 
ENDBRANCH   1  21
TORSDOF 4
