REMARK  Name = ZINC08849593
REMARK  5 active torsions:
REMARK  status: ('A' for Active; 'I' for Inactive)
REMARK    1  A    between atoms: C_1  and  C_2
REMARK    2  A    between atoms: C_5  and  N_8
REMARK    3  A    between atoms: N_14  and  C_19
REMARK    4  A    between atoms: C_19  and  C_20
REMARK    5  A    between atoms: C_19  and  C_21
REMARK                            x       y       z     vdW  Elec       q    Type
REMARK                         _______ _______ _______ _____ _____    ______ ____
ROOT
ATOM      1  N   UNL     1       1.425  -0.355  -0.013  0.00  0.00    -0.268 N 
ATOM      2  C   UNL     1       0.002  -0.004   0.002  0.00  0.00    +0.135 C 
ATOM      3  C   UNL     1      -0.019   1.533   0.011  0.00  0.00    +0.147 C 
ATOM      4  N   UNL     1       1.399   1.926  -0.001  0.00  0.00    -0.273 N 
ATOM      5  C   UNL     1       2.185   0.805  -0.015  0.00  0.00    +0.224 A 
ATOM      6  N   UNL     1       3.494   0.904  -0.026  0.00  0.00    -0.133 NA
ATOM      7  N   UNL     1       4.154   2.133  -0.026  0.00  0.00    -0.219 N 
ATOM      8  C   UNL     1       3.435   3.277  -0.013  0.00  0.00    +0.332 A 
ATOM      9  O   UNL     1       3.982   4.364  -0.012  0.00  0.00    -0.260 OA
ATOM     10  C   UNL     1       1.952   3.160   0.000  0.00  0.00    +0.320 A 
ATOM     11  O   UNL     1       1.252   4.154   0.012  0.00  0.00    -0.262 OA
ENDROOT
BRANCH   1  16
ATOM     12  C   UNL     1       3.501  -5.633  -0.058  0.00  0.00    +0.044 C 
ATOM     13  C   UNL     1       2.949  -4.231  -0.047  0.00  0.00    -0.050 A 
ATOM     14  C   UNL     1       3.812  -3.150  -0.050  0.00  0.00    +0.005 A 
ATOM     15  C   UNL     1       3.310  -1.863  -0.039  0.00  0.00    +0.024 A 
ATOM     16  C   UNL     1       1.937  -1.655  -0.025  0.00  0.00    +0.037 A 
ATOM     17  C   UNL     1       1.073  -2.743  -0.016  0.00  0.00    +0.024 A 
ATOM     18  C   UNL     1       1.582  -4.027  -0.032  0.00  0.00    +0.005 A 
ENDBRANCH   1  16
BRANCH   7  19
ATOM     19  C   UNL     1       5.618   2.183  -0.039  0.00  0.00    +0.105 C 
ATOM     20  C   UNL     1       6.164   1.474   1.201  0.00  0.00    +0.032 C 
ATOM     21  C   UNL     1       6.141   1.487  -1.297  0.00  0.00    +0.032 C 
ENDBRANCH   7  19
TORSDOF 2
