REMARK  Name = ZINC05396156
REMARK  8 active torsions:
REMARK  status: ('A' for Active; 'I' for Inactive)
REMARK    1  A    between atoms: C_1  and  C_2
REMARK    2  A    between atoms: C_2  and  C_3
REMARK    3  A    between atoms: C_2  and  C_4
REMARK    4  A    between atoms: C_2  and  C_5
REMARK    5  A    between atoms: C_18  and  C_23
REMARK    6  A    between atoms: C_26  and  N_29
REMARK    7  A    between atoms: N_29  and  C_30
REMARK    8  A    between atoms: N_29  and  C_31
REMARK                            x       y       z     vdW  Elec       q    Type
REMARK                         _______ _______ _______ _____ _____    ______ ____
ROOT
ATOM      1  C   UNL     1      -3.519   9.573   5.460  0.00  0.00    +0.221 C 
ATOM      2  O   UNL     1      -3.197   8.897   6.413  0.00  0.00    -0.275 OA
ATOM      3  N   UNL     1      -2.728  10.586   5.053  0.00  0.00    -0.300 N 
ATOM      4  C   UNL     1      -1.530  10.954   5.816  0.00  0.00    +0.113 C 
ATOM      5  C   UNL     1      -0.324  11.042   4.891  0.00  0.00    +0.027 C 
ATOM      6  C   UNL     1      -0.629  11.909   3.670  0.00  0.00    +0.018 C 
ATOM      7  C   UNL     1      -1.823  11.299   2.931  0.00  0.00    +0.054 C 
ATOM      8  C   UNL     1      -3.051  11.371   3.853  0.00  0.00    +0.117 C 
ATOM      9  C   UNL     1      -1.552   9.841   2.639  0.00  0.00    +0.027 A 
ATOM     10  C   UNL     1      -2.192   9.291   1.571  0.00  0.00    +0.022 A 
ATOM     11  C   UNL     1      -2.053   7.934   1.275  0.00  0.00    +0.015 A 
ATOM     12  C   UNL     1      -1.276   7.148   2.111  0.00  0.00    +0.047 A 
ATOM     13  C   UNL     1      -0.644   7.755   3.219  0.00  0.00    +0.259 A 
ATOM     14  O   UNL     1      -0.016   7.068   4.008  0.00  0.00    -0.267 OA
ATOM     15  N   UNL     1      -0.725   9.095   3.410  0.00  0.00    -0.311 N 
ATOM     16  C   UNL     1       0.137   9.666   4.445  0.00  0.00    +0.130 C 
ENDROOT
BRANCH  12  17
ATOM     17  C   UNL     1      -1.116   5.698   1.851  0.00  0.00    -0.013 A 
ATOM     18  C   UNL     1      -0.463   5.263   0.697  0.00  0.00    +0.010 A 
ATOM     19  C   UNL     1      -0.315   3.914   0.458  0.00  0.00    +0.024 A 
ATOM     20  C   UNL     1      -0.816   2.987   1.365  0.00  0.00    +0.029 A 
ATOM     21  C   UNL     1      -1.471   3.418   2.512  0.00  0.00    +0.024 A 
ATOM     22  C   UNL     1      -1.617   4.766   2.759  0.00  0.00    +0.010 A 
BRANCH  20  23
ATOM     23  N   UNL     1      -0.664   1.620   1.120  0.00  0.00    -0.336 N 
ATOM     24  C   UNL     1       0.021   1.165  -0.092  0.00  0.00    +0.129 C 
ATOM     25  C   UNL     1      -1.191   0.642   2.075  0.00  0.00    +0.129 C 
ENDBRANCH  20  23
ENDBRANCH  12  17
BRANCH   1  27
ATOM     26  C   UNL     1      -5.576   8.187   5.471  0.00  0.00    +0.020 C 
ATOM     27  C   UNL     1      -4.805   9.281   4.729  0.00  0.00    +0.039 C 
ATOM     28  C   UNL     1      -5.655  10.551   4.666  0.00  0.00    +0.020 C 
ATOM     29  C   UNL     1      -4.488   8.808   3.309  0.00  0.00    +0.020 C 
ENDBRANCH   1  27
TORSDOF 3
