REMARK  Name = ZINC41032983
REMARK  1 active torsions:
REMARK  status: ('A' for Active; 'I' for Inactive)
REMARK    1  A    between atoms: C_5  and  N_7
REMARK                            x       y       z     vdW  Elec       q    Type
REMARK                         _______ _______ _______ _____ _____    ______ ____
ROOT
ATOM      1  N   UNL     1       1.236  -2.083  -0.022  0.00  0.00    -0.191 N 
ATOM      2  C   UNL     1       1.254  -2.848   1.091  0.00  0.00    +0.251 C 
ATOM      3  O   UNL     1       1.253  -2.472   2.243  0.00  0.00    -0.272 OA
ATOM      4  C   UNL     1       1.273  -4.271   0.594  0.00  0.00    +0.113 C 
ATOM      5  C   UNL     1       0.046  -5.047   1.093  0.00  0.00    +0.035 C 
ATOM      6  C   UNL     1       0.582  -6.483   1.329  0.00  0.00    +0.003 C 
ATOM      7  C   UNL     1       2.006  -6.234   1.885  0.00  0.00    +0.003 C 
ATOM      8  C   UNL     1       2.518  -5.015   1.085  0.00  0.00    +0.035 C 
ATOM      9  N   UNL     1       1.264  -4.150  -0.866  0.00  0.00    -0.285 N 
ATOM     10  C   UNL     1       1.237  -2.829  -1.134  0.00  0.00    +0.314 C 
ATOM     11  O   UNL     1       1.218  -2.368  -2.258  0.00  0.00    -0.252 OA
ATOM     12  H   UNL     1       1.272  -4.875  -1.510  0.00  0.00    +0.151 HD
ENDROOT
BRANCH   1  17
ATOM     13  C   UNL     1      -0.017   1.377   0.010  0.00  0.00    +0.002 A 
ATOM     14  C   UNL     1       1.170   2.087   0.002  0.00  0.00    +0.002 A 
ATOM     15  C   UNL     1       2.380   1.417  -0.013  0.00  0.00    +0.022 A 
ATOM     16  C   UNL     1       2.405   0.034  -0.021  0.00  0.00    +0.063 A 
ATOM     17  C   UNL     1       1.214  -0.680  -0.014  0.00  0.00    +0.064 A 
ATOM     18  C   UNL     1       0.002  -0.004   0.002  0.00  0.00    +0.025 A 
ATOM     19 CL   UNL     1       3.924  -0.807  -0.041  0.00  0.00    -0.082 Cl
ENDBRANCH   1  17
TORSDOF 1
