REMARK  Name = ZINC06985081
REMARK  5 active torsions:
REMARK  status: ('A' for Active; 'I' for Inactive)
REMARK    1  A    between atoms: C_4  and  S_19
REMARK    2  A    between atoms: C_6  and  C_7
REMARK    3  A    between atoms: N_9  and  N_10
REMARK    4  A    between atoms: C_11  and  C_13
REMARK    5  A    between atoms: S_19  and  N_22
REMARK                            x       y       z     vdW  Elec       q    Type
REMARK                         _______ _______ _______ _____ _____    ______ ____
ROOT
ATOM      1  C   UNL     1      -1.266  -0.763   0.011  0.00  0.00    +0.260 C 
ATOM      2  O   UNL     1      -1.247  -1.979   0.004  0.00  0.00    -0.269 OA
ATOM      3  N   UNL     1      -2.443  -0.108   0.026  0.00  0.00    -0.230 N 
ATOM      4  H   UNL     1      -2.459   0.862   0.031  0.00  0.00    +0.173 HD
ENDROOT
BRANCH   1  10
ATOM      5  C   UNL     1      -0.017   1.392   0.010  0.00  0.00    +0.014 A 
ATOM      6  C   UNL     1       1.170   2.095   0.002  0.00  0.00    +0.023 A 
ATOM      7  C   UNL     1       2.378   1.419  -0.013  0.00  0.00    +0.067 A 
ATOM      8  C   UNL     1       2.403   0.034  -0.022  0.00  0.00    +0.124 A 
ATOM      9  C   UNL     1       1.224  -0.680  -0.014  0.00  0.00    +0.043 A 
ATOM     10  C   UNL     1       0.002  -0.004   0.002  0.00  0.00    +0.040 A 
ATOM     11 CL   UNL     1       3.868   2.310  -0.024  0.00  0.00    -0.082 Cl
BRANCH   8  12
ATOM     12  S   UNL     1       3.946  -0.818  -0.042  0.00  0.00    +0.057 S 
ATOM     13  O   UNL     1       4.745  -0.235   0.979  0.00  0.00    -0.153 OA
ATOM     14  O   UNL     1       3.643  -2.206  -0.074  0.00  0.00    -0.153 OA
BRANCH  12  15
ATOM     15  N   UNL     1       4.683  -0.461  -1.481  0.00  0.00    -0.203 NA
ATOM     16  H   UNL     1       4.245   0.125  -2.119  0.00  0.00    +0.144 HD
ATOM     17  H   UNL     1       5.553  -0.837  -1.687  0.00  0.00    +0.144 HD
ENDBRANCH  12  15
ENDBRANCH   8  12
ENDBRANCH   1  10
BRANCH   3  18
ATOM     18  N   UNL     1      -3.646  -0.828   0.034  0.00  0.00    -0.230 N 
ATOM     19  C   UNL     1      -4.823  -0.172   0.049  0.00  0.00    +0.267 C 
ATOM     20  O   UNL     1      -4.843   1.045   0.056  0.00  0.00    -0.268 OA
ATOM     21  H   UNL     1      -3.630  -1.798   0.029  0.00  0.00    +0.173 HD
BRANCH  19  22
ATOM     22  C   UNL     1      -6.080  -0.925   0.058  0.00  0.00    +0.077 A 
ATOM     23  C   UNL     1      -7.383  -0.450   0.067  0.00  0.00    +0.022 A 
ATOM     24  C   UNL     1      -8.367  -1.408   0.073  0.00  0.00    +0.028 A 
ATOM     25  C   UNL     1      -8.012  -2.718   0.069  0.00  0.00    +0.079 A 
ATOM     26  S   UNL     1      -6.333  -2.689   0.050  0.00  0.00    -0.072 S 
ATOM     27 CL   UNL     1      -9.055  -4.106   0.074  0.00  0.00    -0.076 Cl
ENDBRANCH  19  22
ENDBRANCH   3  18
TORSDOF 5
