REMARK  Name = ZINC56722206
REMARK  2 active torsions:
REMARK  status: ('A' for Active; 'I' for Inactive)
REMARK    1  A    between atoms: C_3  and  N_11
REMARK    2  A    between atoms: C_18  and  C_20
REMARK                            x       y       z     vdW  Elec       q    Type
REMARK                         _______ _______ _______ _____ _____    ______ ____
ROOT
ATOM      1  N   UNL     1       3.584   2.136  -0.023  0.00  0.00    -0.266 N 
ATOM      2  C   UNL     1       3.563   3.481  -0.117  0.00  0.00    +0.307 C 
ATOM      3  O   UNL     1       2.502   4.074  -0.102  0.00  0.00    -0.252 OA
ATOM      4  N   UNL     1       4.718   4.167  -0.226  0.00  0.00    -0.278 N 
ATOM      5  C   UNL     1       6.068   3.576  -0.263  0.00  0.00    +0.110 C 
ATOM      6  C   UNL     1       6.940   4.625  -0.996  0.00  0.00    +0.021 C 
ATOM      7  C   UNL     1       6.342   5.954  -0.464  0.00  0.00    +0.029 C 
ATOM      8  C   UNL     1       4.839   5.628  -0.336  0.00  0.00    +0.114 C 
ATOM      9  H   UNL     1       4.431   1.668   0.047  0.00  0.00    +0.156 HD
ENDROOT
BRANCH   1  12
ATOM     10  C   UNL     1       0.066   1.242  -0.628  0.00  0.00    +0.006 A 
ATOM     11  C   UNL     1       1.251   1.954  -0.622  0.00  0.00    +0.027 A 
ATOM     12  C   UNL     1       2.382   1.414  -0.028  0.00  0.00    +0.080 A 
ATOM     13  C   UNL     1       2.323   0.155   0.563  0.00  0.00    +0.183 A 
ATOM     14  C   UNL     1       1.131  -0.554   0.557  0.00  0.00    +0.164 A 
ATOM     15  C   UNL     1       0.004  -0.007  -0.042  0.00  0.00    +0.049 A 
ATOM     16  O   UNL     1       1.049  -1.784   1.137  0.00  0.00    -0.485 OA
ATOM     17  C   UNL     1       2.285  -2.457   1.396  0.00  0.00    +0.270 C 
ATOM     18  C   UNL     1       3.250  -1.457   2.047  0.00  0.00    +0.270 C 
ATOM     19  O   UNL     1       3.442  -0.365   1.140  0.00  0.00    -0.483 OA
ENDBRANCH   1  12
BRANCH   8  20
ATOM     20  C   UNL     1       4.279   6.282   0.901  0.00  0.00    +0.010 A 
ATOM     21  C   UNL     1       3.548   7.419   1.008  0.00  0.00    +0.013 A 
ATOM     22  C   UNL     1       3.136   7.835   2.260  0.00  0.00    +0.008 A 
ATOM     23  C   UNL     1       3.474   7.094   3.343  0.00  0.00    +0.045 A 
ATOM     24  S   UNL     1       4.397   5.758   2.603  0.00  0.00    -0.100 S 
ENDBRANCH   8  20
TORSDOF 2
