REMARK  Name = ZINC04085426
REMARK  8 active torsions:
REMARK  status: ('A' for Active; 'I' for Inactive)
REMARK    1  A    between atoms: C_1  and  C_2
REMARK    2  A    between atoms: C_2  and  C_3
REMARK    3  A    between atoms: C_3  and  N_4
REMARK    4  A    between atoms: C_5  and  O_29
REMARK    5  A    between atoms: C_6  and  C_15
REMARK    6  A    between atoms: N_9  and  C_12
REMARK    7  A    between atoms: C_12  and  C_13
REMARK    8  A    between atoms: C_13  and  C_14
REMARK                            x       y       z     vdW  Elec       q    Type
REMARK                         _______ _______ _______ _____ _____    ______ ____
ROOT
ATOM      1  N   UNL     1       1.196  -0.679  -0.019  0.00  0.00    -0.264 N 
ATOM      2  C   UNL     1       0.002  -0.004   0.002  0.00  0.00    +0.204 A 
ATOM      3  C   UNL     1      -1.166  -0.707   0.009  0.00  0.00    +0.068 A 
ATOM      4  C   UNL     1      -1.118  -2.112   0.001  0.00  0.00    +0.262 A 
ATOM      5  O   UNL     1      -2.149  -2.762   0.007  0.00  0.00    -0.267 OA
ATOM      6  N   UNL     1       0.077  -2.736  -0.014  0.00  0.00    -0.261 N 
ATOM      7  C   UNL     1       1.219  -2.025  -0.022  0.00  0.00    +0.335 A 
ATOM      8  O   UNL     1       2.287  -2.606  -0.036  0.00  0.00    -0.246 OA
ENDROOT
BRANCH   3   9
ATOM      9  C   UNL     1      -2.490   0.012   0.026  0.00  0.00    +0.018 C 
ATOM     10  C   UNL     1      -3.215  -0.289   1.316  0.00  0.00    +0.011 A 
ATOM     11  C   UNL     1      -4.538  -0.584   1.364  0.00  0.00    -0.022 A 
ATOM     12  C   UNL     1      -4.871  -0.819   2.751  0.00  0.00    +0.003 A 
ATOM     13  C   UNL     1      -6.064  -1.154   3.400  0.00  0.00    +0.010 A 
ATOM     14  C   UNL     1      -6.010  -1.302   4.763  0.00  0.00    +0.001 A 
ATOM     15  C   UNL     1      -4.834  -1.132   5.476  0.00  0.00    +0.002 A 
ATOM     16  C   UNL     1      -3.639  -0.799   4.862  0.00  0.00    +0.026 A 
ATOM     17  C   UNL     1      -3.664  -0.642   3.477  0.00  0.00    +0.047 A 
ATOM     18  N   UNL     1      -2.689  -0.325   2.576  0.00  0.00    -0.359 N 
ATOM     19  H   UNL     1      -1.761  -0.148   2.796  0.00  0.00    +0.166 HD
ATOM     20  C   UNL     1      -5.425  -0.631   0.146  0.00  0.00    +0.018 C 
ATOM     21  C   UNL     1      -4.690   0.069  -1.005  0.00  0.00    -0.076 C 
ATOM     22  N   UNL     1      -3.314  -0.460  -1.109  0.00  0.00    +0.388 N 
ATOM     23  H   UNL     1      -3.346  -1.486  -1.100  0.00  0.00    -0.084 HD
ATOM     24  H   UNL     1      -2.894  -0.138  -1.988  0.00  0.00    -0.084 HD
ENDBRANCH   3   9
BRANCH   2  25
ATOM     25  O   UNL     1      -0.016   1.346   0.009  0.00  0.00    -0.493 OA
ATOM     26  H   UNL     1       0.862   1.751   0.003  0.00  0.00    +0.294 HD
ENDBRANCH   2  25
BRANCH   1  27
ATOM     27  C   UNL     1       2.455   0.070  -0.033  0.00  0.00    +0.129 C 
BRANCH  27  29
ATOM     28  C   UNL     1       4.229   1.105   1.390  0.00  0.00    +0.005 C 
ATOM     29  C   UNL     1       2.914   0.323   1.405  0.00  0.00    +0.018 C 
ENDBRANCH  27  29
ENDBRANCH   1  27
BRANCH   6  30
ATOM     30  C   UNL     1       0.132  -4.200  -0.023  0.00  0.00    +0.130 C 
BRANCH  30  31
ATOM     31  C   UNL     1       0.138  -4.702  -1.469  0.00  0.00    +0.018 C 
ATOM     32  C   UNL     1       0.196  -6.231  -1.478  0.00  0.00    +0.005 C 
ENDBRANCH  30  31
ENDBRANCH   6  30
TORSDOF 6
