REMARK  Name = ZINC08137396
REMARK  5 active torsions:
REMARK  status: ('A' for Active; 'I' for Inactive)
REMARK    1  A    between atoms: C_1  and  C_2
REMARK    2  A    between atoms: C_2  and  C_4
REMARK    3  A    between atoms: C_2  and  O_10
REMARK    4  A    between atoms: O_10  and  C_11
REMARK    5  A    between atoms: C_11  and  C_13
REMARK                            x       y       z     vdW  Elec       q    Type
REMARK                         _______ _______ _______ _____ _____    ______ ____
ROOT
ATOM      1  C   UNL     1      -0.042  -0.697   2.261  0.00  0.00    +0.314 C 
ATOM      2  O   UNL     1      -1.233  -0.493   2.243  0.00  0.00    -0.250 OA
ENDROOT
BRANCH   1   3
ATOM      3  C   UNL     1       0.618  -1.196   3.521  0.00  0.00    +0.070 C 
ATOM      4  C   UNL     1       1.675  -0.189   3.976  0.00  0.00    +0.021 C 
ATOM      5  C   UNL     1       2.345  -0.696   5.255  0.00  0.00    -0.008 C 
ATOM      6  C   UNL     1       1.292  -0.861   6.352  0.00  0.00    +0.007 C 
ATOM      7  C   UNL     1       0.234  -1.869   5.896  0.00  0.00    -0.008 C 
ATOM      8  C   UNL     1      -0.436  -1.361   4.617  0.00  0.00    +0.021 C 
ATOM      9  C   UNL     1       0.901  -3.218   5.622  0.00  0.00    +0.026 C 
ATOM     10  C   UNL     1       1.954  -3.053   4.525  0.00  0.00    +0.047 C 
ATOM     11  C   UNL     1       3.012  -2.046   4.981  0.00  0.00    +0.026 C 
ATOM     12  C   UNL     1       1.284  -2.546   3.246  0.00  0.00    +0.041 C 
ATOM     13 CL   UNL     1       2.739  -4.644   4.201  0.00  0.00    -0.118 Cl
ENDBRANCH   1   3
BRANCH   1  14
ATOM     14  O   UNL     1       0.693  -0.477   1.160  0.00  0.00    -0.452 OA
BRANCH  14  16
ATOM     15  C   UNL     1      -0.019   1.526   0.010  0.00  0.00    +0.062 C 
ATOM     16  C   UNL     1       0.002  -0.004   0.002  0.00  0.00    +0.259 C 
BRANCH  16  17
ATOM     17  C   UNL     1       0.707  -0.490  -1.238  0.00  0.00    +0.261 C 
ATOM     18  O   UNL     1       1.753  -1.097  -1.142  0.00  0.00    -0.271 OA
ATOM     19  N   UNL     1       0.176  -0.250  -2.453  0.00  0.00    -0.237 N 
ATOM     20  C   UNL     1       0.807  -0.685  -3.562  0.00  0.00    +0.303 C 
ATOM     21  O   UNL     1       1.855  -1.293  -3.466  0.00  0.00    -0.253 OA
ATOM     22  N   UNL     1       0.276  -0.445  -4.777  0.00  0.00    -0.313 N 
ATOM     23  H   UNL     1      -0.660   0.235  -2.530  0.00  0.00    +0.159 HD
ATOM     24  H   UNL     1      -0.560   0.041  -4.854  0.00  0.00    +0.146 HD
ATOM     25  H   UNL     1       0.730  -0.758  -5.575  0.00  0.00    +0.146 HD
ENDBRANCH  16  17
ENDBRANCH  14  16
ENDBRANCH   1  14
TORSDOF 4
