REMARK  Name = ZINC66343511
REMARK  6 active torsions:
REMARK  status: ('A' for Active; 'I' for Inactive)
REMARK    1  A    between atoms: C_1  and  N_2
REMARK    2  A    between atoms: N_2  and  C_3
REMARK    3  A    between atoms: C_4  and  C_6
REMARK    4  A    between atoms: N_14  and  C_15
REMARK    5  A    between atoms: C_15  and  C_16
REMARK    6  A    between atoms: N_20  and  C_22
REMARK                            x       y       z     vdW  Elec       q    Type
REMARK                         _______ _______ _______ _____ _____    ______ ____
ROOT
ATOM      1  C   UNL     1       1.278  -3.768  -0.484  0.00  0.00    +0.078 C 
ATOM      2  C   UNL     1       1.387  -4.417  -1.866  0.00  0.00    +0.032 C 
ATOM      3  C   UNL     1       0.072  -4.215  -2.626  0.00  0.00    +0.110 C 
ATOM      4  N   UNL     1      -1.032  -4.728  -1.804  0.00  0.00    -0.286 N 
ATOM      5  C   UNL     1      -1.175  -4.237  -0.427  0.00  0.00    +0.110 C 
ATOM      6  C   UNL     1       0.153  -4.438   0.309  0.00  0.00    +0.032 C 
ATOM      7  C   UNL     1      -1.899  -5.631  -2.305  0.00  0.00    +0.302 C 
ATOM      8  O   UNL     1      -2.751  -6.118  -1.587  0.00  0.00    -0.253 OA
ATOM      9  N   UNL     1      -1.821  -5.993  -3.600  0.00  0.00    -0.299 N 
ATOM     10  H   UNL     1      -1.098  -5.660  -4.155  0.00  0.00    +0.150 HD
ENDROOT
BRANCH   1  14
ATOM     11  C   UNL     1       4.983  -3.584   0.458  0.00  0.00    +0.131 C 
ATOM     12  N   UNL     1       3.716  -3.422  -0.260  0.00  0.00    -0.307 N 
ATOM     13  C   UNL     1       3.684  -2.702  -1.535  0.00  0.00    +0.131 C 
ATOM     14  C   UNL     1       2.581  -3.935   0.254  0.00  0.00    +0.218 C 
ATOM     15  O   UNL     1       2.608  -4.531   1.310  0.00  0.00    -0.275 OA
ENDBRANCH   1  14
BRANCH   9  16
ATOM     16  C   UNL     1      -2.828  -6.891  -4.172  0.00  0.00    +0.110 C 
BRANCH  16  17
ATOM     17  C   UNL     1      -2.510  -7.141  -5.647  0.00  0.00    +0.025 C 
ATOM     18  C   UNL     1      -2.747  -5.862  -6.492  0.00  0.00    +0.025 C 
ATOM     19  C   UNL     1      -3.054  -6.426  -7.895  0.00  0.00    +0.105 C 
ATOM     20  N   UNL     1      -3.513  -7.811  -7.718  0.00  0.00    -0.330 N 
ATOM     21  C   UNL     1      -3.529  -8.124  -6.276  0.00  0.00    +0.110 C 
BRANCH  20  22
ATOM     22  C   UNL     1      -3.876  -8.688  -8.745  0.00  0.00    +0.030 A 
ATOM     23  C   UNL     1      -4.301  -9.975  -8.443  0.00  0.00    +0.026 A 
ATOM     24  C   UNL     1      -4.659 -10.839  -9.459  0.00  0.00    +0.040 A 
ATOM     25  C   UNL     1      -4.595 -10.423 -10.778  0.00  0.00    +0.124 A 
ATOM     26  C   UNL     1      -4.171  -9.140 -11.081  0.00  0.00    +0.040 A 
ATOM     27  C   UNL     1      -3.817  -8.271 -10.068  0.00  0.00    +0.026 A 
ATOM     28  F   UNL     1      -4.945 -11.270 -11.771  0.00  0.00    -0.205 F 
ENDBRANCH  20  22
ENDBRANCH  16  17
ENDBRANCH   9  16
TORSDOF 4
