REMARK  Name = ZINC63271940
REMARK  7 active torsions:
REMARK  status: ('A' for Active; 'I' for Inactive)
REMARK    1  A    between atoms: C_1  and  O_2
REMARK    2  A    between atoms: O_2  and  C_3
REMARK    3  A    between atoms: C_7  and  C_14
REMARK    4  A    between atoms: C_14  and  C_15
REMARK    5  A    between atoms: N_17  and  C_18
REMARK    6  A    between atoms: N_21  and  C_24
REMARK    7  A    between atoms: C_24  and  C_25
REMARK                            x       y       z     vdW  Elec       q    Type
REMARK                         _______ _______ _______ _____ _____    ______ ____
ROOT
ATOM      1  C   UNL     1      -6.362  -1.731   1.772  0.00  0.00    +0.218 C 
ATOM      2  O   UNL     1      -5.711  -2.075   2.736  0.00  0.00    -0.275 OA
ATOM      3  N   UNL     1      -7.472  -0.986   1.940  0.00  0.00    -0.312 N 
ATOM      4  H   UNL     1      -7.993  -0.711   1.169  0.00  0.00    +0.149 HD
ENDROOT
BRANCH   3   5
ATOM      5  C   UNL     1      -7.893  -0.591   3.287  0.00  0.00    +0.069 C 
ATOM      6  C   UNL     1      -8.737  -1.708   3.907  0.00  0.00    +0.003 C 
ATOM      7  C   UNL     1      -9.239  -1.257   5.281  0.00  0.00    -0.077 C 
ATOM      8  N   UNL     1     -10.056  -0.047   5.134  0.00  0.00    +0.380 N 
ATOM      9  C   UNL     1      -9.235   1.049   4.606  0.00  0.00    -0.077 C 
ATOM     10  C   UNL     1      -8.733   0.687   3.207  0.00  0.00    +0.003 C 
ATOM     11  H   UNL     1     -10.818  -0.232   4.498  0.00  0.00    -0.082 HD
BRANCH   8  12
ATOM     12  C   UNL     1     -10.599   0.338   6.444  0.00  0.00    -0.075 C 
BRANCH  12  13
ATOM     13  C   UNL     1     -11.584  -0.732   6.921  0.00  0.00    -0.028 C 
ATOM     14  C   UNL     1     -12.826  -0.753   6.006  0.00  0.00    +0.002 C 
ATOM     15  C   UNL     1     -14.005  -1.032   6.971  0.00  0.00    +0.000 C 
ATOM     16  C   UNL     1     -13.616  -0.218   8.230  0.00  0.00    +0.000 C 
ATOM     17  C   UNL     1     -12.087  -0.392   8.335  0.00  0.00    +0.002 C 
ENDBRANCH  12  13
ENDBRANCH   8  12
ENDBRANCH   3   5
BRANCH   1  18
ATOM     18  C   UNL     1      -5.929  -2.137   0.387  0.00  0.00    +0.131 C 
BRANCH  18  23
ATOM     19  C   UNL     1      -0.853  -1.141   0.653  0.00  0.00    +0.124 A 
ATOM     20  C   UNL     1      -1.996  -0.347   0.571  0.00  0.00    +0.046 A 
ATOM     21  C   UNL     1      -3.233  -0.921   0.513  0.00  0.00    +0.015 A 
ATOM     22  C   UNL     1      -3.355  -2.315   0.536  0.00  0.00    +0.021 A 
ATOM     23  C   UNL     1      -4.669  -2.959   0.474  0.00  0.00    -0.021 A 
ATOM     24  C   UNL     1      -4.721  -4.316   0.499  0.00  0.00    +0.096 A 
ATOM     25  C   UNL     1      -3.527  -5.062   0.582  0.00  0.00    +0.337 A 
ATOM     26  O   UNL     1      -3.588  -6.278   0.604  0.00  0.00    -0.245 OA
ATOM     27  O   UNL     1      -2.326  -4.466   0.638  0.00  0.00    -0.422 OA
ATOM     28  C   UNL     1      -2.204  -3.122   0.617  0.00  0.00    +0.143 A 
ATOM     29  C   UNL     1      -0.955  -2.522   0.670  0.00  0.00    +0.092 A 
BRANCH  19  31
ATOM     30  C   UNL     1       0.407   0.873   0.688  0.00  0.00    +0.277 C 
ATOM     31  O   UNL     1       0.370  -0.555   0.710  0.00  0.00    -0.495 OA
ENDBRANCH  19  31
ENDBRANCH  18  23
ENDBRANCH   1  18
TORSDOF 6
