REMARK  Name = ZINC51582581
REMARK  6 active torsions:
REMARK  status: ('A' for Active; 'I' for Inactive)
REMARK    1  A    between atoms: C_1  and  C_2
REMARK    2  A    between atoms: C_4  and  C_25
REMARK    3  A    between atoms: C_5  and  N_9
REMARK    4  A    between atoms: C_6  and  C_8
REMARK    5  A    between atoms: C_16  and  C_19
REMARK    6  A    between atoms: N_21  and  C_22
REMARK                            x       y       z     vdW  Elec       q    Type
REMARK                         _______ _______ _______ _____ _____    ______ ____
ROOT
ATOM      1  N   UNL     1      -0.129  -4.313  -0.013  0.00  0.00    -0.269 N 
ATOM      2  C   UNL     1       0.246  -4.979   1.097  0.00  0.00    +0.306 C 
ATOM      3  O   UNL     1       0.573  -4.364   2.094  0.00  0.00    -0.252 OA
ATOM      4  N   UNL     1       0.258  -6.327   1.103  0.00  0.00    -0.285 N 
ATOM      5  C   UNL     1      -0.232  -7.085  -0.057  0.00  0.00    +0.109 C 
ATOM      6  C   UNL     1       0.856  -8.069  -0.498  0.00  0.00    +0.020 C 
ATOM      7  C   UNL     1       1.266  -8.938   0.694  0.00  0.00    +0.016 C 
ATOM      8  C   UNL     1       1.837  -8.051   1.802  0.00  0.00    +0.092 C 
ATOM      9  C   UNL     1       0.766  -7.066   2.266  0.00  0.00    +0.122 C 
ATOM     10  H   UNL     1      -0.467  -4.801  -0.780  0.00  0.00    +0.156 HD
ENDROOT
BRANCH   1  15
ATOM     11  C   UNL     1       0.273   1.343  -0.200  0.00  0.00    +0.044 C 
ATOM     12  C   UNL     1       0.166  -0.160  -0.150  0.00  0.00    -0.050 A 
ATOM     13  C   UNL     1       0.828  -0.930  -1.089  0.00  0.00    +0.008 A 
ATOM     14  C   UNL     1       0.732  -2.307  -1.046  0.00  0.00    -0.029 A 
ATOM     15  C   UNL     1      -0.029  -2.918  -0.059  0.00  0.00    +0.041 A 
ATOM     16  C   UNL     1      -0.692  -2.142   0.883  0.00  0.00    -0.029 A 
ATOM     17  C   UNL     1      -0.588  -0.765   0.838  0.00  0.00    +0.008 A 
ATOM     18  C   UNL     1      -1.520  -2.801   1.956  0.00  0.00    +0.045 C 
ATOM     19  C   UNL     1       1.452  -3.145  -2.071  0.00  0.00    +0.045 C 
ENDBRANCH   1  15
BRANCH   8  20
ATOM     20  C   UNL     1       2.270  -8.911   2.961  0.00  0.00    +0.218 C 
ATOM     21  O   UNL     1       2.136 -10.115   2.907  0.00  0.00    -0.275 OA
ATOM     22  N   UNL     1       2.808  -8.341   4.058  0.00  0.00    -0.312 N 
ATOM     23  H   UNL     1       2.916  -7.378   4.102  0.00  0.00    +0.149 HD
BRANCH  22  24
ATOM     24  C   UNL     1       3.229  -9.177   5.185  0.00  0.00    +0.073 C 
ATOM     25  C   UNL     1       2.868  -8.699   6.593  0.00  0.00    +0.024 C 
ATOM     26  C   UNL     1       4.317  -8.624   6.108  0.00  0.00    +0.024 C 
ENDBRANCH  22  24
ENDBRANCH   8  20
TORSDOF 3
