REMARK  Name = ZINC06747838
REMARK  6 active torsions:
REMARK  status: ('A' for Active; 'I' for Inactive)
REMARK    1  A    between atoms: C_1  and  C_2
REMARK    2  A    between atoms: C_2  and  C_3
REMARK    3  A    between atoms: C_3  and  N_4
REMARK    4  A    between atoms: C_5  and  C_16
REMARK    5  A    between atoms: C_8  and  C_15
REMARK    6  A    between atoms: C_20  and  O_22
REMARK                            x       y       z     vdW  Elec       q    Type
REMARK                         _______ _______ _______ _____ _____    ______ ____
ROOT
ATOM      1  N   UNL     1      -1.413  -1.998   0.005  0.00  0.00    -0.285 N 
ATOM      2  C   UNL     1      -1.407  -2.852  -1.190  0.00  0.00    +0.141 C 
ATOM      3  C   UNL     1      -1.385  -4.270  -0.690  0.00  0.00    +0.030 A 
ATOM      4  C   UNL     1      -1.368  -5.623  -1.004  0.00  0.00    +0.066 A 
ATOM      5  N   UNL     1      -1.353  -6.293   0.122  0.00  0.00    -0.178 NA
ATOM      6  N   UNL     1      -1.359  -5.496   1.131  0.00  0.00    -0.272 N 
ATOM      7  H   UNL     1      -1.350  -5.771   2.061  0.00  0.00    +0.189 HD
ATOM      8  C   UNL     1      -1.379  -4.203   0.693  0.00  0.00    +0.126 A 
ATOM      9  C   UNL     1      -1.392  -2.792   1.091  0.00  0.00    +0.265 C 
ATOM     10  O   UNL     1      -1.387  -2.395   2.241  0.00  0.00    -0.268 OA
ATOM     11  C   UNL     1      -1.367  -6.214  -2.390  0.00  0.00    +0.068 C 
ENDROOT
BRANCH   2  12
ATOM     12  C   UNL     1      -2.650  -2.608  -2.008  0.00  0.00    -0.019 A 
ATOM     13  C   UNL     1      -3.866  -2.421  -1.377  0.00  0.00    +0.006 A 
ATOM     14  C   UNL     1      -5.008  -2.198  -2.124  0.00  0.00    +0.004 A 
ATOM     15  C   UNL     1      -4.936  -2.162  -3.503  0.00  0.00    +0.045 A 
ATOM     16  C   UNL     1      -3.717  -2.349  -4.138  0.00  0.00    +0.117 A 
ATOM     17  C   UNL     1      -2.572  -2.567  -3.386  0.00  0.00    +0.051 A 
BRANCH  16  18
ATOM     18  O   UNL     1      -3.644  -2.314  -5.495  0.00  0.00    -0.507 OA
ATOM     19  H   UNL     1      -3.473  -1.434  -5.857  0.00  0.00    +0.292 HD
ENDBRANCH  16  18
ENDBRANCH   2  12
BRANCH   1  20
ATOM     20  C   UNL     1      -1.433  -0.534   0.013  0.00  0.00    +0.109 C 
BRANCH  20  22
ATOM     21  C   UNL     1      -0.019   1.526   0.010  0.00  0.00    +0.005 C 
ATOM     22  C   UNL     1       0.002  -0.004   0.002  0.00  0.00    +0.016 C 
ENDBRANCH  20  22
ENDBRANCH   1  20
TORSDOF 4
