REMARK  Name = ZINC12471568
REMARK  4 active torsions:
REMARK  status: ('A' for Active; 'I' for Inactive)
REMARK    1  A    between atoms: C_10  and  C_11
REMARK    2  A    between atoms: C_11  and  N_49
REMARK    3  A    between atoms: C_17  and  C_19
REMARK    4  A    between atoms: C_19  and  C_20
REMARK                            x       y       z     vdW  Elec       q    Type
REMARK                         _______ _______ _______ _____ _____    ______ ____
ROOT
ATOM      1  C   UNL     1      -2.941   1.571   1.707  0.00  0.00    -0.058 C 
ATOM      2  C   UNL     1      -3.023   1.288   3.208  0.00  0.00    +0.085 C 
ATOM      3  N   UNL     1      -4.395   0.954   3.580  0.00  0.00    -0.318 N 
ATOM      4  C   UNL     1      -5.449   1.247   2.810  0.00  0.00    +0.200 C 
ATOM      5  O   UNL     1      -6.557   0.961   3.209  0.00  0.00    -0.278 OA
ATOM      6  C   UNL     1      -5.316   1.915   1.471  0.00  0.00    +0.029 C 
ATOM      7  H   UNL     1      -4.549   0.500   4.423  0.00  0.00    +0.149 HD
ATOM      8  N   UNL     1      -3.990   2.553   1.368  0.00  0.00    +0.391 N 
ATOM      9  H   UNL     1      -3.942   3.336   2.030  0.00  0.00    -0.080 HD
ENDROOT
BRANCH   8  10
ATOM     10  C   UNL     1      -3.780   3.067  -0.005  0.00  0.00    -0.041 C 
BRANCH  10  20
ATOM     11  C   UNL     1       1.111   1.840  -0.883  0.00  0.00    +0.001 A 
ATOM     12  C   UNL     1      -0.087   1.128  -0.843  0.00  0.00    +0.001 A 
ATOM     13  C   UNL     1      -1.266   1.755  -0.580  0.00  0.00    +0.009 A 
ATOM     14  C   UNL     1      -1.278   3.138  -0.333  0.00  0.00    -0.017 A 
ATOM     15  C   UNL     1      -0.060   3.862  -0.374  0.00  0.00    -0.018 A 
ATOM     16  C   UNL     1       1.137   3.181  -0.655  0.00  0.00    +0.008 A 
ATOM     17  C   UNL     1      -0.074   5.247  -0.134  0.00  0.00    +0.008 A 
ATOM     18  C   UNL     1      -1.252   5.872   0.135  0.00  0.00    +0.001 A 
ATOM     19  C   UNL     1      -2.449   5.161   0.175  0.00  0.00    +0.002 A 
ATOM     20  C   UNL     1      -2.475   3.819  -0.052  0.00  0.00    -0.056 A 
ENDBRANCH  10  20
ENDBRANCH   8  10
BRANCH   6  21
ATOM     21  C   UNL     1      -6.397   2.988   1.329  0.00  0.00    +0.092 C 
BRANCH  21  22
ATOM     22  C   UNL     1      -6.177   4.062   2.364  0.00  0.00    +0.237 C 
ATOM     23  O   UNL     1      -5.304   3.933   3.196  0.00  0.00    -0.274 OA
ATOM     24  N   UNL     1      -6.951   5.165   2.366  0.00  0.00    -0.181 N 
ATOM     25  C   UNL     1      -6.846   6.285   3.323  0.00  0.00    +0.142 C 
ATOM     26  C   UNL     1      -7.513   7.460   2.554  0.00  0.00    +0.052 C 
ATOM     27  C   UNL     1      -8.613   6.697   1.771  0.00  0.00    +0.192 C 
ATOM     28  O   UNL     1      -8.001   5.435   1.453  0.00  0.00    -0.277 OA
ENDBRANCH  21  22
ENDBRANCH   6  21
TORSDOF 4
