REMARK  Name = ZINC39011934
REMARK  4 active torsions:
REMARK  status: ('A' for Active; 'I' for Inactive)
REMARK    1  A    between atoms: C_1  and  C_2
REMARK    2  A    between atoms: C_11  and  C_23
REMARK    3  A    between atoms: C_16  and  C_20
REMARK    4  A    between atoms: C_16  and  C_21
REMARK                            x       y       z     vdW  Elec       q    Type
REMARK                         _______ _______ _______ _____ _____    ______ ____
ROOT
ATOM      1  C   UNL     1      -0.018   1.503   0.010  0.00  0.00    +0.090 C 
ATOM      2  C   UNL     1       0.002  -0.004   0.002  0.00  0.00    +0.150 A 
ATOM      3  N   UNL     1       0.008  -0.773  -1.092  0.00  0.00    -0.198 NA
ATOM      4  C   UNL     1       0.032  -2.029  -0.746  0.00  0.00    +0.222 A 
ATOM      5  N   UNL     1       0.027  -2.083   0.614  0.00  0.00    -0.211 N 
ATOM      6  N   UNL     1       0.023  -0.769   1.066  0.00  0.00    -0.152 NA
ATOM      7  C   UNL     1       0.019  -3.351   1.330  0.00  0.00    +0.207 C 
ATOM      8  C   UNL     1      -0.785  -4.354   0.484  0.00  0.00    +0.130 C 
ATOM      9  C   UNL     1      -0.661  -5.722   1.143  0.00  0.00    +0.069 C 
ATOM     10  C   UNL     1      -1.031  -5.608   2.608  0.00  0.00    +0.020 C 
ATOM     11  C   UNL     1      -1.407  -6.790   3.268  0.00  0.00    +0.162 C 
ATOM     12  C   UNL     1      -1.802  -6.783   4.720  0.00  0.00    +0.086 C 
ATOM     13  C   UNL     1      -2.398  -5.414   5.065  0.00  0.00    -0.023 C 
ATOM     14  C   UNL     1      -1.367  -4.338   4.723  0.00  0.00    +0.057 C 
ATOM     15  C   UNL     1      -1.006  -4.425   3.259  0.00  0.00    +0.013 C 
ATOM     16  N   UNL     1      -0.632  -3.254   2.637  0.00  0.00    -0.325 N 
ATOM     17  C   UNL     1      -2.727  -5.357   6.558  0.00  0.00    +0.011 C 
ATOM     18  C   UNL     1      -3.671  -5.186   4.247  0.00  0.00    +0.011 C 
ATOM     19  O   UNL     1      -1.413  -7.839   2.655  0.00  0.00    -0.292 OA
ATOM     20  C   UNL     1      -0.288  -4.362  -0.929  0.00  0.00    +0.227 C 
ATOM     21  O   UNL     1      -0.221  -5.407  -1.542  0.00  0.00    -0.275 OA
ATOM     22  N   UNL     1       0.064  -3.182  -1.524  0.00  0.00    -0.254 N 
ATOM     23  H   UNL     1      -0.809  -2.390   3.041  0.00  0.00    +0.148 HD
ATOM     24  H   UNL     1       0.336  -3.153  -2.455  0.00  0.00    +0.158 HD
ENDROOT
BRANCH   9  25
ATOM     25  C   UNL     1      -1.591  -6.694   0.464  0.00  0.00    -0.039 A 
ATOM     26  C   UNL     1      -2.952  -6.450   0.444  0.00  0.00    +0.004 A 
ATOM     27  C   UNL     1      -3.805  -7.341  -0.180  0.00  0.00    +0.000 A 
ATOM     28  C   UNL     1      -3.297  -8.476  -0.783  0.00  0.00    +0.000 A 
ATOM     29  C   UNL     1      -1.937  -8.720  -0.764  0.00  0.00    +0.000 A 
ATOM     30  C   UNL     1      -1.083  -7.826  -0.145  0.00  0.00    +0.004 A 
ENDBRANCH   9  25
TORSDOF 1
