REMARK  Name = ZINC23410813
REMARK  3 active torsions:
REMARK  status: ('A' for Active; 'I' for Inactive)
REMARK    1  A    between atoms: C_3  and  C_21
REMARK    2  A    between atoms: C_6  and  C_7
REMARK    3  A    between atoms: N_11  and  C_15
REMARK                            x       y       z     vdW  Elec       q    Type
REMARK                         _______ _______ _______ _____ _____    ______ ____
ROOT
ATOM      1  C   UNL     1      -0.075   5.661   0.035  0.00  0.00    +0.028 C 
ATOM      2  C   UNL     1      -1.255   6.324  -0.053  0.00  0.00    +0.077 C 
ATOM      3  C   UNL     1      -1.516   7.777  -0.163  0.00  0.00    +0.259 C 
ATOM      4  O   UNL     1      -0.611   8.589  -0.186  0.00  0.00    -0.269 OA
ATOM      5  N   UNL     1      -2.784   8.146  -0.233  0.00  0.00    -0.252 N 
ATOM      6  C   UNL     1      -3.784   7.242  -0.206  0.00  0.00    +0.121 C 
ATOM      7  S   UNL     1      -5.471   7.521  -0.285  0.00  0.00    -0.027 S 
ATOM      8  S   UNL     1      -2.924   5.683  -0.076  0.00  0.00    -0.061 S 
ENDROOT
BRANCH   1  14
ATOM      9  C   UNL     1      -1.212   3.489  -0.372  0.00  0.00    +0.009 A 
ATOM     10  C   UNL     1      -1.186   2.125  -0.438  0.00  0.00    +0.019 A 
ATOM     11  C   UNL     1      -0.001   1.433  -0.170  0.00  0.00    +0.052 A 
ATOM     12  C   UNL     1       1.159   2.136   0.171  0.00  0.00    +0.019 A 
ATOM     13  C   UNL     1       1.137   3.500   0.233  0.00  0.00    +0.009 A 
ATOM     14  C   UNL     1      -0.049   4.194  -0.036  0.00  0.00    -0.024 A 
BRANCH  11  15
ATOM     15  C   UNL     1       0.024   0.003  -0.240  0.00  0.00    +0.099 C 
ATOM     16  N   UNL     1       0.044  -1.132  -0.295  0.00  0.00    -0.191 NA
ENDBRANCH  11  15
ENDBRANCH   1  14
BRANCH   5  17
ATOM     17  C   UNL     1      -3.109   9.570  -0.343  0.00  0.00    +0.083 C 
ATOM     18  C   UNL     1      -3.969   9.991   0.850  0.00  0.00    +0.023 C 
ATOM     19  C   UNL     1      -4.309  11.478   0.735  0.00  0.00    +0.002 C 
ATOM     20  C   UNL     1      -5.081  11.726  -0.562  0.00  0.00    +0.000 C 
ATOM     21  C   UNL     1      -4.221  11.305  -1.756  0.00  0.00    +0.002 C 
ATOM     22  C   UNL     1      -3.881   9.818  -1.641  0.00  0.00    +0.023 C 
ENDBRANCH   5  17
TORSDOF 3
