REMARK  Name = ZINC49370616
REMARK  3 active torsions:
REMARK  status: ('A' for Active; 'I' for Inactive)
REMARK    1  A    between atoms: C_3  and  C_6
REMARK    2  A    between atoms: C_6  and  N_7
REMARK    3  A    between atoms: N_10  and  C_11
REMARK                            x       y       z     vdW  Elec       q    Type
REMARK                         _______ _______ _______ _____ _____    ______ ____
ROOT
ATOM      1  N   UNL     1       4.101   0.607   1.347  0.00  0.00    -0.292 N 
ATOM      2  C   UNL     1       5.428   0.575   1.580  0.00  0.00    +0.300 C 
ATOM      3  O   UNL     1       6.208   0.561   0.648  0.00  0.00    -0.253 OA
ATOM      4  N   UNL     1       5.889   0.557   2.846  0.00  0.00    -0.293 N 
ATOM      5  H   UNL     1       3.478   0.617   2.090  0.00  0.00    +0.151 HD
ATOM      6  H   UNL     1       5.266   0.568   3.590  0.00  0.00    +0.151 HD
ENDROOT
BRANCH   4   7
ATOM      7  C   UNL     1       7.332   0.523   3.099  0.00  0.00    +0.105 C 
ATOM      8  C   UNL     1       7.616  -0.071   4.495  0.00  0.00    +0.032 C 
ATOM      9  C   UNL     1       7.671   1.188   5.386  0.00  0.00    +0.037 C 
ATOM     10  C   UNL     1       8.086   2.311   4.460  0.00  0.00    -0.041 A 
ATOM     11  C   UNL     1       7.891   1.929   3.143  0.00  0.00    -0.024 A 
ATOM     12  C   UNL     1       8.205   2.802   2.115  0.00  0.00    +0.007 A 
ATOM     13  C   UNL     1       8.712   4.055   2.397  0.00  0.00    +0.020 A 
ATOM     14  C   UNL     1       8.907   4.440   3.711  0.00  0.00    +0.041 A 
ATOM     15  C   UNL     1       8.595   3.567   4.744  0.00  0.00    +0.024 A 
ATOM     16 CL   UNL     1       9.545   6.015   4.070  0.00  0.00    -0.084 Cl
ENDBRANCH   4   7
BRANCH   1  17
ATOM     17  C   UNL     1       3.599   0.625  -0.029  0.00  0.00    +0.180 C 
BRANCH  17  20
ATOM     18  C   UNL     1      -0.016   1.341   0.009  0.00  0.00    +0.041 A 
ATOM     19  C   UNL     1       1.331   1.769  -0.001  0.00  0.00    +0.046 A 
ATOM     20  C   UNL     1       2.092   0.660  -0.014  0.00  0.00    +0.122 A 
ATOM     21  O   UNL     1       1.282  -0.411  -0.012  0.00  0.00    -0.466 OA
ATOM     22  C   UNL     1       0.002  -0.004   0.002  0.00  0.00    +0.195 A 
ENDBRANCH  17  20
ENDBRANCH   1  17
TORSDOF 3
