REMARK  Name = ZINC12190909
REMARK  7 active torsions:
REMARK  status: ('A' for Active; 'I' for Inactive)
REMARK    1  A    between atoms: C_1  and  C_2
REMARK    2  A    between atoms: C_2  and  O_3
REMARK    3  A    between atoms: O_3  and  C_4
REMARK    4  A    between atoms: C_6  and  N_29
REMARK    5  A    between atoms: C_19  and  C_20
REMARK    6  A    between atoms: C_19  and  N_64
REMARK    7  A    between atoms: C_30  and  C_32
REMARK                            x       y       z     vdW  Elec       q    Type
REMARK                         _______ _______ _______ _____ _____    ______ ____
ROOT
ATOM      1  C   UNL     1      -1.823   5.457  -0.388  0.00  0.00    +0.153 C 
ATOM      2  C   UNL     1      -2.411   4.096   0.045  0.00  0.00    +0.133 C 
ATOM      3  C   UNL     1      -1.241   3.135   0.030  0.00  0.00    -0.021 A 
ATOM      4  C   UNL     1      -1.217   1.751   0.017  0.00  0.00    +0.006 A 
ATOM      5  C   UNL     1      -0.013   1.076   0.008  0.00  0.00    +0.000 A 
ATOM      6  C   UNL     1       1.175   1.784   0.000  0.00  0.00    +0.000 A 
ATOM      7  C   UNL     1       1.153   3.165   0.008  0.00  0.00    +0.004 A 
ATOM      8  C   UNL     1      -0.053   3.845   0.023  0.00  0.00    -0.034 A 
ATOM      9  C   UNL     1      -0.348   5.325   0.033  0.00  0.00    +0.021 C 
ATOM     10  C   UNL     1       0.547   6.054  -0.964  0.00  0.00    -0.005 C 
ATOM     11  C   UNL     1       0.249   7.556  -0.910  0.00  0.00    -0.077 C 
ATOM     12  C   UNL     1      -0.430   7.402   1.412  0.00  0.00    -0.077 C 
ATOM     13  C   UNL     1      -0.154   5.896   1.436  0.00  0.00    -0.005 C 
ATOM     14  N   UNL     1       0.502   8.045   0.462  0.00  0.00    +0.384 N 
ATOM     15  H   UNL     1       1.465   7.806   0.728  0.00  0.00    -0.081 HD
ENDROOT
BRANCH   2  16
ATOM     16  N   UNL     1      -2.973   4.191   1.395  0.00  0.00    -0.299 N 
ATOM     17  C   UNL     1      -3.907   3.309   1.800  0.00  0.00    +0.280 C 
ATOM     18  O   UNL     1      -4.284   2.432   1.044  0.00  0.00    -0.267 OA
ATOM     19  H   UNL     1      -2.672   4.890   1.997  0.00  0.00    +0.150 HD
BRANCH  17  20
ATOM     20  C   UNL     1      -4.469   3.404   3.151  0.00  0.00    +0.189 A 
ATOM     21  C   UNL     1      -5.417   2.579   3.686  0.00  0.00    +0.054 A 
ATOM     22  C   UNL     1      -5.655   3.033   4.993  0.00  0.00    +0.042 A 
ATOM     23  C   UNL     1      -4.854   4.101   5.196  0.00  0.00    +0.196 A 
ATOM     24  O   UNL     1      -4.136   4.319   4.085  0.00  0.00    -0.458 OA
ENDBRANCH  17  20
ENDBRANCH   2  16
BRANCH   1  25
ATOM     25  O   UNL     1      -1.939   5.634  -1.801  0.00  0.00    -0.374 OA
BRANCH  25  27
ATOM     26  C   UNL     1      -3.156   6.428  -3.732  0.00  0.00    +0.034 C 
ATOM     27  C   UNL     1      -3.139   6.293  -2.208  0.00  0.00    +0.157 C 
ENDBRANCH  25  27
ENDBRANCH   1  25
BRANCH  14  28
ATOM     28  C   UNL     1       0.341   9.512   0.512  0.00  0.00    -0.015 C 
BRANCH  28  29
ATOM     29  C   UNL     1       1.091  10.131  -0.639  0.00  0.00    +0.063 A 
ATOM     30  N   UNL     1       0.651  10.409  -1.834  0.00  0.00    -0.246 NA
ATOM     31  C   UNL     1       1.432  10.968  -2.782  0.00  0.00    +0.078 A 
ATOM     32  C   UNL     1       1.104  11.325  -4.109  0.00  0.00    +0.029 A 
ATOM     33  C   UNL     1       2.035  11.884  -4.928  0.00  0.00    +0.002 A 
ATOM     34  C   UNL     1       3.333  12.125  -4.498  0.00  0.00    +0.001 A 
ATOM     35  C   UNL     1       3.693  11.789  -3.206  0.00  0.00    +0.017 A 
ATOM     36  C   UNL     1       2.760  11.224  -2.372  0.00  0.00    +0.039 A 
ATOM     37  S   UNL     1       2.747  10.651  -0.692  0.00  0.00    -0.074 S 
ENDBRANCH  28  29
ENDBRANCH  14  28
TORSDOF 6
