REMARK  Name = ZINC49546167
REMARK  4 active torsions:
REMARK  status: ('A' for Active; 'I' for Inactive)
REMARK    1  A    between atoms: C_1  and  N_2
REMARK    2  A    between atoms: C_7  and  C_13
REMARK    3  A    between atoms: C_16  and  O_19
REMARK    4  A    between atoms: O_19  and  C_20
REMARK                            x       y       z     vdW  Elec       q    Type
REMARK                         _______ _______ _______ _____ _____    ______ ____
ROOT
ATOM      1  C   UNL     1      -0.215   1.642  -0.931  0.00  0.00    +0.174 C 
ATOM      2  N   UNL     1      -0.124   0.203  -0.676  0.00  0.00    -0.253 N 
ATOM      3  C   UNL     1      -0.116  -0.765  -1.604  0.00  0.00    +0.127 A 
ATOM      4  C   UNL     1      -0.022  -1.967  -0.951  0.00  0.00    +0.020 A 
ATOM      5  C   UNL     1       0.031  -1.710   0.410  0.00  0.00    +0.140 A 
ATOM      6  N   UNL     1      -0.025  -0.410   0.584  0.00  0.00    -0.178 NA
ATOM      7  C   UNL     1       0.008  -3.281  -1.688  0.00  0.00    +0.063 C 
ATOM      8  C   UNL     1      -0.769  -3.118  -2.997  0.00  0.00    +0.109 C 
ATOM      9  C   UNL     1      -0.428  -1.826  -3.682  0.00  0.00    +0.219 C 
ATOM     10  O   UNL     1      -0.371  -1.802  -4.893  0.00  0.00    -0.275 OA
ATOM     11  N   UNL     1      -0.182  -0.689  -2.995  0.00  0.00    -0.270 N 
ATOM     12  H   UNL     1      -0.055   0.155  -3.456  0.00  0.00    +0.156 HD
ENDROOT
BRANCH   7  13
ATOM     13  C   UNL     1       1.435  -3.662  -1.988  0.00  0.00    -0.039 A 
ATOM     14  C   UNL     1       2.225  -2.828  -2.757  0.00  0.00    +0.008 A 
ATOM     15  C   UNL     1       3.533  -3.176  -3.033  0.00  0.00    +0.046 A 
ATOM     16  C   UNL     1       4.054  -4.363  -2.539  0.00  0.00    +0.121 A 
ATOM     17  C   UNL     1       3.259  -5.198  -1.767  0.00  0.00    +0.046 A 
ATOM     18  C   UNL     1       1.953  -4.843  -1.489  0.00  0.00    +0.008 A 
BRANCH  16  19
ATOM     19  O   UNL     1       5.340  -4.707  -2.810  0.00  0.00    -0.489 OA
BRANCH  19  20
ATOM     20  C   UNL     1       6.136  -3.746  -3.507  0.00  0.00    +0.173 C 
ATOM     21  C   UNL     1       5.952  -3.912  -5.029  0.00  0.00    +0.044 C 
ATOM     22  C   UNL     1       7.359  -3.635  -5.614  0.00  0.00    +0.004 C 
ATOM     23  C   UNL     1       8.298  -4.290  -4.572  0.00  0.00    +0.004 C 
ATOM     24  C   UNL     1       7.628  -3.987  -3.216  0.00  0.00    +0.044 C 
ENDBRANCH  19  20
ENDBRANCH  16  19
ENDBRANCH   7  13
TORSDOF 3
