REMARK  Name = ZINC00690894
REMARK  9 active torsions:
REMARK  status: ('A' for Active; 'I' for Inactive)
REMARK    1  A    between atoms: C_1  and  N_2
REMARK    2  A    between atoms: N_2  and  C_3
REMARK    3  A    between atoms: N_2  and  N_4
REMARK    4  A    between atoms: C_7  and  C_14
REMARK    5  A    between atoms: C_9  and  C_12
REMARK    6  A    between atoms: C_10  and  N_11
REMARK    7  A    between atoms: C_17  and  O_20
REMARK    8  A    between atoms: O_20  and  C_21
REMARK    9  A    between atoms: C_25  and  C_28
REMARK                            x       y       z     vdW  Elec       q    Type
REMARK                         _______ _______ _______ _____ _____    ______ ____
ROOT
ATOM      1  N   UNL     1       0.114  -0.018   0.267  0.00  0.00    -0.223 N 
ATOM      2  C   UNL     1       0.176   1.310   0.593  0.00  0.00    +0.037 C 
ATOM      3  C   UNL     1       1.312   2.013   0.401  0.00  0.00    +0.026 C 
ATOM      4  C   UNL     1       2.536   1.361  -0.190  0.00  0.00    +0.097 C 
ATOM      5  C   UNL     1       2.452  -0.135  -0.095  0.00  0.00    +0.078 C 
ATOM      6  C   UNL     1       1.264  -0.757   0.123  0.00  0.00    +0.117 C 
ATOM      7  C   UNL     1       1.389   3.373   0.748  0.00  0.00    +0.162 C 
ATOM      8  O   UNL     1       2.424   3.980   0.553  0.00  0.00    -0.292 OA
ATOM      9  C   UNL     1       0.216   4.092   1.355  0.00  0.00    +0.088 C 
ATOM     10  C   UNL     1      -0.642   3.084   2.126  0.00  0.00    +0.032 C 
ATOM     11  C   UNL     1      -1.057   1.966   1.164  0.00  0.00    +0.061 C 
ENDROOT
BRANCH   4  12
ATOM     12  C   UNL     1       2.657   1.757  -1.639  0.00  0.00    -0.034 A 
ATOM     13  C   UNL     1       1.662   1.411  -2.534  0.00  0.00    +0.008 A 
ATOM     14  C   UNL     1       1.767   1.778  -3.862  0.00  0.00    +0.046 A 
ATOM     15  C   UNL     1       2.878   2.485  -4.299  0.00  0.00    +0.120 A 
ATOM     16  C   UNL     1       3.878   2.826  -3.399  0.00  0.00    +0.046 A 
ATOM     17  C   UNL     1       3.765   2.462  -2.072  0.00  0.00    +0.008 A 
BRANCH  15  18
ATOM     18  O   UNL     1       2.987   2.842  -5.605  0.00  0.00    -0.495 OA
ATOM     19  C   UNL     1       1.920   2.457  -6.474  0.00  0.00    +0.277 C 
ENDBRANCH  15  18
ENDBRANCH   4  12
BRANCH  10  20
ATOM     20  C   UNL     1      -1.871   3.771   2.663  0.00  0.00    -0.044 A 
ATOM     21  C   UNL     1      -2.761   4.374   1.794  0.00  0.00    +0.004 A 
ATOM     22  C   UNL     1      -3.891   5.001   2.286  0.00  0.00    +0.000 A 
ATOM     23  C   UNL     1      -4.126   5.032   3.648  0.00  0.00    +0.000 A 
ATOM     24  C   UNL     1      -3.234   4.433   4.518  0.00  0.00    +0.000 A 
ATOM     25  C   UNL     1      -2.106   3.803   4.025  0.00  0.00    +0.004 A 
ENDBRANCH  10  20
BRANCH   1  27
ATOM     26  C   UNL     1      -1.167  -1.288  -1.220  0.00  0.00    +0.128 C 
ATOM     27  N   UNL     1      -1.101  -0.615   0.085  0.00  0.00    -0.227 NA
ATOM     28  C   UNL     1      -1.397  -1.552   1.176  0.00  0.00    +0.128 C 
ENDBRANCH   1  27
BRANCH   6  29
ATOM     29  N   UNL     1       1.212  -2.128   0.199  0.00  0.00    -0.344 N 
ATOM     30  H   UNL     1       0.360  -2.586   0.129  0.00  0.00    +0.144 HD
ATOM     31  H   UNL     1       2.028  -2.638   0.324  0.00  0.00    +0.144 HD
ENDBRANCH   6  29
BRANCH   5  32
ATOM     32  C   UNL     1       3.642  -0.918  -0.235  0.00  0.00    +0.099 C 
ATOM     33  N   UNL     1       4.587  -1.539  -0.347  0.00  0.00    -0.191 NA
ENDBRANCH   5  32
TORSDOF 6
