REMARK  Name = ZINC08686591
REMARK  8 active torsions:
REMARK  status: ('A' for Active; 'I' for Inactive)
REMARK    1  A    between atoms: C_1  and  C_2
REMARK    2  A    between atoms: C_2  and  O_20
REMARK    3  A    between atoms: C_4  and  C_18
REMARK    4  A    between atoms: C_4  and  C_19
REMARK    5  A    between atoms: N_8  and  C_9
REMARK    6  A    between atoms: C_9  and  C_10
REMARK    7  A    between atoms: C_13  and  O_16
REMARK    8  A    between atoms: O_16  and  C_17
REMARK                            x       y       z     vdW  Elec       q    Type
REMARK                         _______ _______ _______ _____ _____    ______ ____
ROOT
ATOM      1  C   UNL     1      -0.004   1.103   0.266  0.00  0.00    +0.063 C 
ATOM      2  C   UNL     1      -0.232  -0.412   0.296  0.00  0.00    +0.134 C 
ATOM      3  C   UNL     1      -1.707  -0.735   0.492  0.00  0.00    +0.080 C 
ATOM      4  C   UNL     1      -2.115  -0.840   1.957  0.00  0.00    +0.032 C 
ATOM      5  N   UNL     1      -1.163  -1.671   2.694  0.00  0.00    -0.321 N 
ATOM      6  C   UNL     1       0.135  -1.688   2.368  0.00  0.00    +0.136 C 
ATOM      7  S   UNL     1       1.216  -2.604   3.329  0.00  0.00    -0.019 S 
ATOM      8  N   UNL     1       0.619  -1.024   1.311  0.00  0.00    -0.280 N 
ATOM      9  C   UNL     1      -3.499  -1.509   2.036  0.00  0.00    +0.031 C 
ATOM     10  C   UNL     1      -2.210   0.539   2.608  0.00  0.00    +0.031 C 
ATOM     11  H   UNL     1      -1.480  -2.222   3.427  0.00  0.00    +0.148 HD
ENDROOT
BRANCH   2  12
ATOM     12  O   UNL     1       0.173  -0.936  -0.986  0.00  0.00    -0.372 OA
ATOM     13  H   UNL     1       1.041  -0.627  -1.281  0.00  0.00    +0.212 HD
ENDBRANCH   2  12
BRANCH   8  14
ATOM     14  C   UNL     1       2.078  -0.907   1.168  0.00  0.00    +0.144 C 
BRANCH  14  15
ATOM     15  C   UNL     1       2.582  -2.000   0.262  0.00  0.00    -0.030 A 
ATOM     16  C   UNL     1       2.801  -3.269   0.766  0.00  0.00    +0.009 A 
ATOM     17  C   UNL     1       3.264  -4.272  -0.063  0.00  0.00    +0.046 A 
ATOM     18  C   UNL     1       3.510  -4.006  -1.402  0.00  0.00    +0.120 A 
ATOM     19  C   UNL     1       3.289  -2.733  -1.905  0.00  0.00    +0.046 A 
ATOM     20  C   UNL     1       2.821  -1.734  -1.074  0.00  0.00    +0.009 A 
BRANCH  18  21
ATOM     21  O   UNL     1       3.966  -4.992  -2.219  0.00  0.00    -0.495 OA
ATOM     22  C   UNL     1       4.197  -4.646  -3.586  0.00  0.00    +0.277 C 
ENDBRANCH  18  21
ENDBRANCH  14  15
ENDBRANCH   8  14
TORSDOF 4
