REMARK  Name = ZINC45623207
REMARK  3 active torsions:
REMARK  status: ('A' for Active; 'I' for Inactive)
REMARK    1  A    between atoms: C_1  and  C_2
REMARK    2  A    between atoms: C_13  and  C_15
REMARK    3  A    between atoms: C_17  and  N_22
REMARK                            x       y       z     vdW  Elec       q    Type
REMARK                         _______ _______ _______ _____ _____    ______ ____
ROOT
ATOM      1  C   UNL     1      -0.305   2.016   0.589  0.00  0.00    +0.028 C 
ATOM      2  C   UNL     1       0.187   0.644   0.123  0.00  0.00    +0.074 C 
ATOM      3  C   UNL     1       1.044   0.802  -1.142  0.00  0.00    +0.025 C 
ATOM      4  C   UNL     1       2.502   0.660  -0.655  0.00  0.00    -0.008 C 
ATOM      5  C   UNL     1       3.259  -0.238  -1.655  0.00  0.00    -0.077 C 
ATOM      6  N   UNL     1       3.549  -1.513  -0.966  0.00  0.00    +0.380 N 
ATOM      7  C   UNL     1       2.518  -1.645   0.095  0.00  0.00    -0.060 C 
ATOM      8  C   UNL     1       2.373  -0.185   0.640  0.00  0.00    +0.061 C 
ATOM      9  N   UNL     1       1.024   0.038   1.162  0.00  0.00    -0.293 N 
ATOM     10  C   UNL     1       0.614  -0.266   2.409  0.00  0.00    +0.248 C 
ATOM     11  O   UNL     1      -0.561  -0.165   2.704  0.00  0.00    -0.270 OA
ATOM     12  H   UNL     1       3.482  -2.283  -1.614  0.00  0.00    -0.086 HD
ATOM     13  H   UNL     1       4.470  -1.484  -0.554  0.00  0.00    -0.086 HD
ENDROOT
BRANCH  10  14
ATOM     14  C   UNL     1       1.593  -0.722   3.419  0.00  0.00    +0.053 A 
ATOM     15  C   UNL     1       2.802  -1.292   3.015  0.00  0.00    +0.047 A 
ATOM     16  C   UNL     1       3.711  -1.715   3.962  0.00  0.00    +0.127 A 
ATOM     17  C   UNL     1       3.427  -1.577   5.310  0.00  0.00    +0.034 A 
ATOM     18  C   UNL     1       2.232  -1.014   5.717  0.00  0.00    +0.018 A 
ATOM     19  C   UNL     1       1.314  -0.580   4.780  0.00  0.00    +0.030 A 
ATOM     20 BR   UNL     1      -0.317   0.197   5.338  0.00  0.00    -0.050 Br
BRANCH  16  21
ATOM     21  N   UNL     1       4.993  -2.320   3.536  0.00  0.00    +0.056 N 
ATOM     22  O   UNL     1       5.242  -2.442   2.359  0.00  0.00    -0.126 OA
ATOM     23  O   UNL     1       5.791  -2.691   4.365  0.00  0.00    -0.126 OA
ENDBRANCH  16  21
ENDBRANCH  10  14
TORSDOF 2
