REMARK  Name = ZINC65248864
REMARK  2 active torsions:
REMARK  status: ('A' for Active; 'I' for Inactive)
REMARK    1  A    between atoms: N_14  and  C_15
REMARK    2  A    between atoms: C_15  and  C_16
REMARK                            x       y       z     vdW  Elec       q    Type
REMARK                         _______ _______ _______ _____ _____    ______ ____
ROOT
ATOM      1  C   UNL     1      -0.017   1.379   0.010  0.00  0.00    +0.000 A 
ATOM      2  C   UNL     1       1.173   2.084   0.002  0.00  0.00    +0.002 A 
ATOM      3  C   UNL     1       2.379   1.414  -0.014  0.00  0.00    +0.023 A 
ATOM      4  C   UNL     1       2.407   0.021  -0.024  0.00  0.00    +0.038 A 
ATOM      5  C   UNL     1       1.203  -0.678  -0.014  0.00  0.00    -0.010 A 
ATOM      6  C   UNL     1       0.002  -0.004   0.002  0.00  0.00    +0.006 A 
ATOM      7  C   UNL     1       1.578  -2.129  -0.026  0.00  0.00    +0.091 C 
ATOM      8  C   UNL     1       0.973  -2.872  -1.228  0.00  0.00    +0.041 C 
ATOM      9  C   UNL     1       0.904  -4.333  -0.728  0.00  0.00    +0.111 C 
ATOM     10  N   UNL     1       0.940  -4.295   0.742  0.00  0.00    -0.284 N 
ATOM     11  C   UNL     1       1.004  -2.886   1.180  0.00  0.00    +0.130 C 
ATOM     12  C   UNL     1       0.918  -5.370   1.555  0.00  0.00    +0.303 C 
ATOM     13  O   UNL     1       0.952  -5.220   2.761  0.00  0.00    -0.253 OA
ATOM     14  N   UNL     1       0.860  -6.610   1.032  0.00  0.00    -0.295 N 
ATOM     15  C   UNL     1       3.078  -2.155  -0.046  0.00  0.00    +0.229 C 
ATOM     16  O   UNL     1       3.787  -3.140  -0.062  0.00  0.00    -0.274 OA
ATOM     17  N   UNL     1       3.483  -0.869  -0.042  0.00  0.00    -0.284 N 
ATOM     18  H   UNL     1       0.833  -6.730   0.069  0.00  0.00    +0.151 HD
ATOM     19  H   UNL     1       4.414  -0.595  -0.051  0.00  0.00    +0.155 HD
ENDROOT
BRANCH  14  20
ATOM     20  C   UNL     1       0.836  -7.778   1.916  0.00  0.00    +0.141 C 
BRANCH  20  21
ATOM     21  C   UNL     1       0.769  -9.035   1.087  0.00  0.00    -0.030 A 
ATOM     22  C   UNL     1      -0.457  -9.562   0.729  0.00  0.00    +0.008 A 
ATOM     23  C   UNL     1      -0.519 -10.714  -0.032  0.00  0.00    +0.038 A 
ATOM     24  C   UNL     1       0.647 -11.340  -0.436  0.00  0.00    +0.123 A 
ATOM     25  C   UNL     1       1.876 -10.811  -0.078  0.00  0.00    +0.038 A 
ATOM     26  C   UNL     1       1.935  -9.656   0.679  0.00  0.00    +0.008 A 
ATOM     27  F   UNL     1       0.588 -12.466  -1.179  0.00  0.00    -0.205 F 
ENDBRANCH  20  21
ENDBRANCH  14  20
TORSDOF 2
