REMARK  Name = ZINC40261196
REMARK  4 active torsions:
REMARK  status: ('A' for Active; 'I' for Inactive)
REMARK    1  A    between atoms: C_3  and  N_16
REMARK    2  A    between atoms: C_5  and  C_6
REMARK    3  A    between atoms: C_6  and  C_8
REMARK    4  A    between atoms: C_6  and  O_15
REMARK                            x       y       z     vdW  Elec       q    Type
REMARK                         _______ _______ _______ _____ _____    ______ ____
ROOT
ATOM      1  C   UNL     1      -1.208  -0.902   0.009  0.00  0.00    +0.212 C 
ENDROOT
BRANCH   1   2
ATOM      2  C   UNL     1      -1.524  -1.308   1.425  0.00  0.00    +0.010 A 
ATOM      3  C   UNL     1      -1.045  -2.500   1.937  0.00  0.00    +0.030 A 
ATOM      4  C   UNL     1      -1.348  -2.835   3.216  0.00  0.00    +0.056 A 
ATOM      5  S   UNL     1      -2.340  -1.445   3.737  0.00  0.00    -0.074 S 
ATOM      6  C   UNL     1      -2.279  -0.508   2.219  0.00  0.00    +0.062 A 
ATOM      7 BR   UNL     1      -3.065   1.165   1.819  0.00  0.00    -0.042 Br
ATOM      8 BR   UNL     1      -0.850  -4.376   4.193  0.00  0.00    -0.043 Br
ENDBRANCH   1   2
BRANCH   1  13
ATOM      9  C   UNL     1      -0.016   1.341   0.009  0.00  0.00    +0.050 A 
ATOM     10  C   UNL     1       1.331   1.769  -0.001  0.00  0.00    +0.076 A 
ATOM     11  C   UNL     1       2.092   0.660  -0.014  0.00  0.00    +0.280 A 
ATOM     12  O   UNL     1       1.282  -0.411  -0.012  0.00  0.00    -0.436 OA
ATOM     13  C   UNL     1       0.002  -0.004   0.002  0.00  0.00    +0.141 A 
BRANCH  11  14
ATOM     14  N   UNL     1       3.572   0.625  -0.029  0.00  0.00    +0.093 N 
ATOM     15  O   UNL     1       4.201   1.658  -0.029  0.00  0.00    -0.123 OA
ATOM     16  O   UNL     1       4.152  -0.435  -0.040  0.00  0.00    -0.123 OA
ENDBRANCH  11  14
ENDBRANCH   1  13
BRANCH   1  17
ATOM     17  O   UNL     1      -0.941  -2.068  -0.773  0.00  0.00    -0.379 OA
ATOM     18  H   UNL     1      -0.194  -2.593  -0.453  0.00  0.00    +0.211 HD
ENDBRANCH   1  17
TORSDOF 4
