REMARK  Name = ZINC42862438
REMARK  14 active torsions:
REMARK  status: ('A' for Active; 'I' for Inactive)
REMARK    1  A    between atoms: C_1  and  C_2
REMARK    2  A    between atoms: C_2  and  N_3
REMARK    3  A    between atoms: N_3  and  C_4
REMARK    4  A    between atoms: N_3  and  C_6
REMARK    5  A    between atoms: C_4  and  C_5
REMARK    6  A    between atoms: C_13  and  C_15
REMARK    7  A    between atoms: C_16  and  C_17
REMARK    8  A    between atoms: C_16  and  C_26
REMARK    9  A    between atoms: C_20  and  N_21
REMARK   10  A    between atoms: N_21  and  C_22
REMARK   11  A    between atoms: N_21  and  C_23
REMARK   12  A    between atoms: C_29  and  N_32
REMARK   13  A    between atoms: N_32  and  C_33
REMARK   14  A    between atoms: N_32  and  C_34
REMARK                            x       y       z     vdW  Elec       q    Type
REMARK                         _______ _______ _______ _____ _____    ______ ____
ROOT
ATOM      1  C   UNL     1       0.047  -0.079  -2.524  0.00  0.00    +0.031 C 
ATOM      2  C   UNL     1      -1.348  -0.079  -2.420  0.00  0.00    +0.024 C 
ATOM      3  C   UNL     1      -2.137  -0.277  -3.508  0.00  0.00    +0.012 C 
ATOM      4  C   UNL     1      -1.556  -0.489  -4.773  0.00  0.00    +0.005 C 
ATOM      5  C   UNL     1      -0.095  -0.490  -4.890  0.00  0.00    +0.043 C 
ATOM      6  C   UNL     1       0.673  -0.277  -3.742  0.00  0.00    +0.047 C 
ATOM      7  N   UNL     1       0.499  -0.691  -6.087  0.00  0.00    -0.285 N 
ATOM      8  C   UNL     1       1.765  -1.063  -6.142  0.00  0.00    +0.214 C 
ATOM      9  O   UNL     1       2.364  -1.340  -5.118  0.00  0.00    -0.276 OA
ATOM     10  C   UNL     1       2.469  -1.145  -7.472  0.00  0.00    +0.109 C 
ATOM     11  C   UNL     1      -2.367  -0.696  -5.910  0.00  0.00    -0.002 C 
ATOM     12  H   UNL     1      -0.004  -0.561  -6.906  0.00  0.00    +0.155 HD
ENDROOT
BRANCH  11  13
ATOM     13  C   UNL     1      -3.819  -0.501  -5.821  0.00  0.00    -0.017 A 
ATOM     14  C   UNL     1      -4.592  -1.333  -4.997  0.00  0.00    +0.010 A 
ATOM     15  C   UNL     1      -5.941  -1.147  -4.917  0.00  0.00    +0.024 A 
ATOM     16  C   UNL     1      -6.553  -0.133  -5.653  0.00  0.00    +0.029 A 
ATOM     17  C   UNL     1      -5.789   0.697  -6.473  0.00  0.00    +0.024 A 
ATOM     18  C   UNL     1      -4.438   0.522  -6.555  0.00  0.00    +0.010 A 
BRANCH  16  19
ATOM     19  N   UNL     1      -7.926   0.052  -5.568  0.00  0.00    -0.336 N 
ATOM     20  C   UNL     1      -8.730  -0.818  -4.707  0.00  0.00    +0.129 C 
ATOM     21  C   UNL     1      -8.570   1.117  -6.340  0.00  0.00    +0.129 C 
ENDBRANCH  16  19
ENDBRANCH  11  13
BRANCH  11  22
ATOM     22  C   UNL     1      -1.758  -1.107  -7.181  0.00  0.00    -0.017 A 
ATOM     23  C   UNL     1      -1.291  -2.420  -7.345  0.00  0.00    +0.010 A 
ATOM     24  C   UNL     1      -0.726  -2.798  -8.528  0.00  0.00    +0.024 A 
ATOM     25  C   UNL     1      -0.613  -1.881  -9.573  0.00  0.00    +0.029 A 
ATOM     26  C   UNL     1      -1.075  -0.576  -9.414  0.00  0.00    +0.024 A 
ATOM     27  C   UNL     1      -1.647  -0.191  -8.236  0.00  0.00    +0.010 A 
BRANCH  25  28
ATOM     28  N   UNL     1      -0.037  -2.270 -10.775  0.00  0.00    -0.336 N 
ATOM     29  C   UNL     1       0.337  -3.670 -10.989  0.00  0.00    +0.129 C 
ATOM     30  C   UNL     1       0.197  -1.280 -11.829  0.00  0.00    +0.129 C 
ENDBRANCH  25  28
ENDBRANCH  11  22
BRANCH   1  31
ATOM     31  N   UNL     1       0.816   0.127  -1.387  0.00  0.00    -0.330 N 
BRANCH  31  33
ATOM     32  C   UNL     1      -0.083   1.833   0.118  0.00  0.00    +0.024 C 
ATOM     33  C   UNL     1       0.166   0.338  -0.091  0.00  0.00    +0.102 C 
ENDBRANCH  31  33
BRANCH  31  34
ATOM     34  C   UNL     1       2.278   0.135  -1.483  0.00  0.00    +0.102 C 
ATOM     35  C   UNL     1       2.810  -1.284  -1.274  0.00  0.00    +0.024 C 
ENDBRANCH  31  34
ENDBRANCH   1  31
TORSDOF 7
