REMARK  Name = ZINC22523091
REMARK  6 active torsions:
REMARK  status: ('A' for Active; 'I' for Inactive)
REMARK    1  A    between atoms: C_1  and  C_2
REMARK    2  A    between atoms: C_3  and  N_11
REMARK    3  A    between atoms: C_7  and  N_8
REMARK    4  A    between atoms: C_12  and  C_14
REMARK    5  A    between atoms: C_17  and  C_20
REMARK    6  A    between atoms: C_20  and  N_21
REMARK                            x       y       z     vdW  Elec       q    Type
REMARK                         _______ _______ _______ _____ _____    ______ ____
ROOT
ATOM      1  C   UNL     1      -0.980   1.789  -0.319  0.00  0.00    +0.037 A 
ATOM      2  C   UNL     1       0.271   2.407  -0.374  0.00  0.00    +0.013 A 
ATOM      3  C   UNL     1       1.412   1.671  -0.135  0.00  0.00    +0.006 A 
ATOM      4  C   UNL     1       1.319   0.322   0.160  0.00  0.00    -0.030 A 
ATOM      5  C   UNL     1       0.083  -0.297   0.217  0.00  0.00    +0.006 A 
ATOM      6  C   UNL     1      -1.066   0.428  -0.021  0.00  0.00    +0.013 A 
ENDROOT
BRANCH   1   8
ATOM      7  N   UNL     1      -2.120   3.885  -0.868  0.00  0.00    -0.281 N 
ATOM      8  C   UNL     1      -2.207   2.571  -0.581  0.00  0.00    +0.248 C 
ATOM      9  O   UNL     1      -3.294   2.029  -0.537  0.00  0.00    -0.270 OA
ATOM     10  H   UNL     1      -1.134   4.356  -0.996  0.00  0.00    +0.155 HD
BRANCH   7  13
ATOM     11  C   UNL     1      -2.044   6.606  -0.039  0.00  0.00    +0.048 C 
ATOM     12  C   UNL     1      -3.290   5.981  -0.612  0.00  0.00    +0.001 A 
ATOM     13  C   UNL     1      -3.283   4.649  -1.004  0.00  0.00    +0.039 A 
ATOM     14  C   UNL     1      -4.436   4.076  -1.526  0.00  0.00    +0.024 A 
ATOM     15  C   UNL     1      -5.583   4.833  -1.659  0.00  0.00    +0.004 A 
ATOM     16  C   UNL     1      -5.585   6.161  -1.273  0.00  0.00    +0.033 A 
ATOM     17  C   UNL     1      -4.439   6.735  -0.753  0.00  0.00    +0.131 A 
BRANCH  17  18
ATOM     18  N   UNL     1      -4.445   8.157  -0.342  0.00  0.00    +0.057 N 
ATOM     19  O   UNL     1      -5.489   8.785  -0.338  0.00  0.00    -0.126 OA
ATOM     20  O   UNL     1      -3.407   8.699  -0.008  0.00  0.00    -0.126 OA
ENDBRANCH  17  18
ENDBRANCH   7  13
ENDBRANCH   1   8
BRANCH   4  21
ATOM     21  C   UNL     1       2.571  -0.477   0.420  0.00  0.00    +0.140 C 
BRANCH  21  22
ATOM     22  N   UNL     1       3.040  -1.075  -0.836  0.00  0.00    -0.325 N 
ATOM     23  C   UNL     1       2.004  -1.950  -1.426  0.00  0.00    +0.110 C 
ATOM     24  C   UNL     1       2.844  -3.026  -2.153  0.00  0.00    +0.056 C 
ATOM     25  C   UNL     1       4.146  -3.017  -1.378  0.00  0.00    -0.025 A 
ATOM     26  C   UNL     1       4.189  -1.848  -0.626  0.00  0.00    +0.033 A 
ATOM     27  C   UNL     1       5.293  -1.606   0.188  0.00  0.00    +0.023 A 
ATOM     28  C   UNL     1       6.330  -2.515   0.239  0.00  0.00    +0.002 A 
ATOM     29  C   UNL     1       6.281  -3.672  -0.516  0.00  0.00    +0.000 A 
ATOM     30  C   UNL     1       5.186  -3.921  -1.325  0.00  0.00    +0.005 A 
ENDBRANCH  21  22
ENDBRANCH   4  21
TORSDOF 5
