REMARK  Name = ZINC22841323
REMARK  4 active torsions:
REMARK  status: ('A' for Active; 'I' for Inactive)
REMARK    1  A    between atoms: N_10  and  C_11
REMARK    2  A    between atoms: C_11  and  C_12
REMARK    3  A    between atoms: N_14  and  C_15
REMARK    4  A    between atoms: C_15  and  C_22
REMARK                            x       y       z     vdW  Elec       q    Type
REMARK                         _______ _______ _______ _____ _____    ______ ____
ROOT
ATOM      1  C   UNL     1      -1.195   1.629  -0.090  0.00  0.00    +0.231 C 
ATOM      2  O   UNL     1      -1.222   2.840  -0.161  0.00  0.00    -0.274 OA
ATOM      3  N   UNL     1      -0.015   0.979  -0.109  0.00  0.00    -0.296 N 
ATOM      4  H   UNL     1       0.009  -0.119  -0.041  0.00  0.00    +0.150 HD
ENDROOT
BRANCH   3   5
ATOM      5  C   UNL     1       1.236   1.733  -0.221  0.00  0.00    +0.121 C 
ATOM      6  C   UNL     1       1.186   2.595  -1.499  0.00  0.00    +0.041 C 
ATOM      7  C   UNL     1       2.184   3.713  -1.361  0.00  0.00    +0.003 C 
ATOM      8  C   UNL     1       3.547   3.367  -1.991  0.00  0.00    +0.000 C 
ATOM      9  C   UNL     1       3.993   1.922  -1.696  0.00  0.00    +0.000 C 
ATOM     10  C   UNL     1       3.717   1.514  -0.274  0.00  0.00    +0.003 C 
ATOM     11  C   UNL     1       2.351   0.799  -0.225  0.00  0.00    +0.041 C 
BRANCH   5  12
ATOM     12  C   UNL     1       1.362   2.621   0.946  0.00  0.00    +0.088 C 
ATOM     13  N   UNL     1       1.460   3.307   1.847  0.00  0.00    -0.194 NA
ENDBRANCH   5  12
ENDBRANCH   3   5
BRANCH   1  14
ATOM     14  C   UNL     1      -2.482   0.853   0.018  0.00  0.00    +0.200 C 
BRANCH  14  24
ATOM     15  C   UNL     1      -3.008   4.233   3.471  0.00  0.00    +0.000 A 
ATOM     16  C   UNL     1      -2.578   2.918   3.473  0.00  0.00    +0.002 A 
ATOM     17  C   UNL     1      -2.784   2.126   2.364  0.00  0.00    +0.023 A 
ATOM     18  C   UNL     1      -3.425   2.641   1.236  0.00  0.00    +0.033 A 
ATOM     19  C   UNL     1      -3.849   3.958   1.238  0.00  0.00    -0.026 A 
ATOM     20  C   UNL     1      -3.641   4.748   2.358  0.00  0.00    +0.005 A 
ATOM     21  C   UNL     1      -4.540   4.577   0.049  0.00  0.00    +0.038 C 
ATOM     22  C   UNL     1      -5.013   3.476  -0.903  0.00  0.00    +0.024 C 
ATOM     23  C   UNL     1      -3.849   2.498  -1.107  0.00  0.00    +0.106 C 
ATOM     24  N   UNL     1      -3.608   1.787   0.150  0.00  0.00    -0.321 N 
ENDBRANCH  14  24
ENDBRANCH   1  14
TORSDOF 4
