REMARK  Name = ZINC61204541
REMARK  5 active torsions:
REMARK  status: ('A' for Active; 'I' for Inactive)
REMARK    1  A    between atoms: C_1  and  O_2
REMARK    2  A    between atoms: O_2  and  C_3
REMARK    3  A    between atoms: C_6  and  N_20
REMARK    4  A    between atoms: C_8  and  C_9
REMARK    5  A    between atoms: N_11  and  C_12
REMARK                            x       y       z     vdW  Elec       q    Type
REMARK                         _______ _______ _______ _____ _____    ______ ____
ROOT
ATOM      1  C   UNL     1       0.073  -2.830   0.029  0.00  0.00    +0.252 C 
ATOM      2  O   UNL     1      -0.490  -2.287  -0.902  0.00  0.00    -0.270 OA
ATOM      3  N   UNL     1       0.126  -4.175   0.093  0.00  0.00    -0.280 N 
ATOM      4  H   UNL     1       0.630  -4.607   0.800  0.00  0.00    +0.155 HD
ENDROOT
BRANCH   3   5
ATOM      5  C   UNL     1      -0.546  -4.948  -0.861  0.00  0.00    +0.052 A 
ATOM      6  C   UNL     1      -0.642  -4.505  -2.173  0.00  0.00    +0.026 A 
ATOM      7  C   UNL     1      -1.306  -5.270  -3.112  0.00  0.00    +0.017 A 
ATOM      8  C   UNL     1      -1.875  -6.477  -2.747  0.00  0.00    +0.019 A 
ATOM      9  C   UNL     1      -1.783  -6.921  -1.440  0.00  0.00    +0.037 A 
ATOM     10  C   UNL     1      -1.115  -6.162  -0.497  0.00  0.00    +0.063 A 
ATOM     11 CL   UNL     1      -0.992  -6.724   1.141  0.00  0.00    -0.082 Cl
ATOM     12 BR   UNL     1      -2.783  -7.521  -4.036  0.00  0.00    -0.050 Br
ENDBRANCH   3   5
BRANCH   1  18
ATOM     13  C   UNL     1       0.644  -0.617   1.026  0.00  0.00    +0.132 A 
ATOM     14  C   UNL     1       1.230   0.139   2.031  0.00  0.00    +0.048 A 
ATOM     15  C   UNL     1       1.867  -0.486   3.085  0.00  0.00    +0.036 A 
ATOM     16  C   UNL     1       1.927  -1.869   3.147  0.00  0.00    +0.127 A 
ATOM     17  C   UNL     1       1.350  -2.635   2.158  0.00  0.00    +0.049 A 
ATOM     18  C   UNL     1       0.697  -2.016   1.089  0.00  0.00    +0.081 A 
BRANCH  16  19
ATOM     19  N   UNL     1       2.613  -2.526   4.282  0.00  0.00    +0.056 N 
ATOM     20  O   UNL     1       3.121  -1.857   5.151  0.00  0.00    -0.126 OA
ATOM     21  O   UNL     1       2.667  -3.733   4.339  0.00  0.00    -0.126 OA
ENDBRANCH  16  19
BRANCH  13  23
ATOM     22  C   UNL     1       0.005   1.425  -0.006  0.00  0.00    +0.277 C 
ATOM     23  O   UNL     1       0.018  -0.004  -0.009  0.00  0.00    -0.494 OA
ENDBRANCH  13  23
ENDBRANCH   1  18
TORSDOF 4
