REMARK  Name = ZINC15087845
REMARK  8 active torsions:
REMARK  status: ('A' for Active; 'I' for Inactive)
REMARK    1  A    between atoms: C_1  and  C_2
REMARK    2  A    between atoms: C_2  and  O_3
REMARK    3  A    between atoms: O_3  and  C_4
REMARK    4  A    between atoms: C_4  and  C_6
REMARK    5  A    between atoms: C_6  and  N_7
REMARK    6  A    between atoms: C_13  and  C_31
REMARK    7  A    between atoms: C_13  and  C_32
REMARK    8  A    between atoms: N_21  and  C_24
REMARK                            x       y       z     vdW  Elec       q    Type
REMARK                         _______ _______ _______ _____ _____    ______ ____
ROOT
ATOM      1  N   UNL     1      -2.784  -3.888   0.008  0.00  0.00    -0.286 N 
ATOM      2  C   UNL     1      -2.745  -4.568  -1.189  0.00  0.00    +0.091 A 
ATOM      3  C   UNL     1      -2.648  -5.905  -1.078  0.00  0.00    +0.031 A 
ATOM      4  S   UNL     1      -2.634  -6.170   0.677  0.00  0.00    -0.030 S 
ATOM      5  C   UNL     1      -2.728  -4.565   1.169  0.00  0.00    +0.292 A 
ATOM      6  O   UNL     1      -2.744  -4.122   2.304  0.00  0.00    -0.259 OA
ATOM      7  C   UNL     1      -2.552  -6.923  -2.156  0.00  0.00    +0.012 C 
ATOM      8  C   UNL     1      -2.821  -6.432  -3.528  0.00  0.00    +0.109 C 
ATOM      9  C   UNL     1      -2.259  -5.063  -3.932  0.00  0.00    +0.152 C 
ATOM     10  S   UNL     1      -2.836  -3.779  -2.775  0.00  0.00    -0.093 S 
ATOM     11  C   UNL     1      -3.077  -4.850  -5.218  0.00  0.00    +0.240 C 
ATOM     12  O   UNL     1      -2.747  -4.188  -6.179  0.00  0.00    -0.274 OA
ATOM     13  N   UNL     1      -4.229  -5.536  -5.077  0.00  0.00    -0.209 N 
ATOM     14  C   UNL     1      -4.232  -6.379  -4.024  0.00  0.00    +0.232 C 
ATOM     15  O   UNL     1      -5.186  -6.979  -3.576  0.00  0.00    -0.274 OA
ATOM     16  C   UNL     1      -3.545  -8.045  -1.846  0.00  0.00    +0.017 C 
ATOM     17  C   UNL     1      -1.143  -7.519  -2.129  0.00  0.00    +0.017 C 
ENDROOT
BRANCH  13  18
ATOM     18  C   UNL     1      -5.324  -5.378  -5.939  0.00  0.00    +0.044 A 
ATOM     19  C   UNL     1      -6.483  -6.113  -5.731  0.00  0.00    +0.027 A 
ATOM     20  C   UNL     1      -7.561  -5.956  -6.580  0.00  0.00    +0.040 A 
ATOM     21  C   UNL     1      -7.487  -5.065  -7.638  0.00  0.00    +0.124 A 
ATOM     22  C   UNL     1      -6.331  -4.331  -7.846  0.00  0.00    +0.040 A 
ATOM     23  C   UNL     1      -5.253  -4.481  -6.996  0.00  0.00    +0.027 A 
ATOM     24  F   UNL     1      -8.542  -4.913  -8.468  0.00  0.00    -0.205 F 
ENDBRANCH  13  18
BRANCH   1  25
ATOM     25  C   UNL     1      -2.881  -2.427   0.017  0.00  0.00    +0.246 C 
BRANCH  25  26
ATOM     26  C   UNL     1      -1.496  -1.832   0.006  0.00  0.00    +0.327 C 
ATOM     27  O   UNL     1      -0.528  -2.555  -0.007  0.00  0.00    -0.249 OA
BRANCH  26  28
ATOM     28  O   UNL     1      -1.339  -0.499   0.012  0.00  0.00    -0.464 OA
BRANCH  28  30
ATOM     29  C   UNL     1      -0.019   1.526   0.010  0.00  0.00    +0.048 C 
ATOM     30  C   UNL     1       0.002  -0.004   0.002  0.00  0.00    +0.229 C 
ENDBRANCH  28  30
ENDBRANCH  26  28
ENDBRANCH  25  26
ENDBRANCH   1  25
TORSDOF 5
