REMARK  Name = ZINC36592851
REMARK  3 active torsions:
REMARK  status: ('A' for Active; 'I' for Inactive)
REMARK    1  A    between atoms: C_1  and  C_2
REMARK    2  A    between atoms: C_28  and  C_30
REMARK    3  A    between atoms: C_28  and  C_31
REMARK                            x       y       z     vdW  Elec       q    Type
REMARK                         _______ _______ _______ _____ _____    ______ ____
ROOT
ATOM      1  C   UNL     1       0.051   1.549  -0.064  0.00  0.00    +0.054 C 
ATOM      2  C   UNL     1       0.010   0.022  -0.012  0.00  0.00    +0.106 C 
ATOM      3  C   UNL     1      -1.440  -0.448   0.072  0.00  0.00    +0.055 C 
ATOM      4  C   UNL     1      -1.520  -1.164   1.435  0.00  0.00    +0.100 C 
ATOM      5  C   UNL     1      -0.121  -1.126   2.005  0.00  0.00    +0.222 C 
ATOM      6  O   UNL     1       0.206  -1.675   3.039  0.00  0.00    -0.275 OA
ATOM      7  N   UNL     1       0.691  -0.447   1.211  0.00  0.00    -0.248 N 
ATOM      8  C   UNL     1       2.073  -0.182   1.320  0.00  0.00    +0.067 A 
ATOM      9  C   UNL     1       2.874   0.316   2.399  0.00  0.00    +0.032 A 
ATOM     10  C   UNL     1       2.455   0.860   3.643  0.00  0.00    -0.025 A 
ATOM     11  C   UNL     1       3.418   1.157   4.563  0.00  0.00    +0.020 A 
ATOM     12  C   UNL     1       4.777   0.988   4.265  0.00  0.00    +0.105 A 
ATOM     13  N   UNL     1       5.192   0.577   3.071  0.00  0.00    -0.337 N 
ATOM     14  C   UNL     1       4.284   0.291   2.166  0.00  0.00    +0.089 A 
ATOM     15  S   UNL     1       4.437  -0.159   0.462  0.00  0.00    -0.064 S 
ATOM     16  C   UNL     1       2.733  -0.424   0.100  0.00  0.00    +0.098 A 
ATOM     17  C   UNL     1       2.062  -0.757  -1.089  0.00  0.00    +0.254 C 
ATOM     18  O   UNL     1       2.666  -1.214  -2.042  0.00  0.00    -0.270 OA
ATOM     19  N   UNL     1       0.721  -0.524  -1.167  0.00  0.00    -0.290 N 
ATOM     20  N   UNL     1       5.724   1.255   5.243  0.00  0.00    -0.312 N 
ATOM     21  C   UNL     1       6.154   0.210   6.186  0.00  0.00    +0.134 C 
ATOM     22  C   UNL     1       7.686   0.165   6.192  0.00  0.00    +0.178 C 
ATOM     23  O   UNL     1       8.195   1.480   6.426  0.00  0.00    -0.377 OA
ATOM     24  C   UNL     1       7.851   2.430   5.414  0.00  0.00    +0.178 C 
ATOM     25  C   UNL     1       6.332   2.589   5.365  0.00  0.00    +0.134 C 
ATOM     26  C   UNL     1       3.054   1.678   5.930  0.00  0.00    +0.199 C 
ATOM     27  O   UNL     1       1.684   2.033   6.026  0.00  0.00    -0.369 OA
ATOM     28  C   UNL     1       0.755   1.131   5.428  0.00  0.00    +0.068 C 
ATOM     29  C   UNL     1       1.003   1.111   3.916  0.00  0.00    +0.070 C 
ATOM     30  C   UNL     1      -0.674   1.619   5.696  0.00  0.00    +0.041 C 
ATOM     31  C   UNL     1       0.920  -0.276   6.005  0.00  0.00    +0.041 C 
ATOM     32  H   UNL     1       0.243  -0.719  -1.984  0.00  0.00    +0.151 HD
ATOM     33  H   UNL     1       6.138   0.490   2.873  0.00  0.00    +0.168 HD
ENDROOT
TORSDOF 0
