REMARK  Name = ZINC01012112
REMARK  5 active torsions:
REMARK  status: ('A' for Active; 'I' for Inactive)
REMARK    1  A    between atoms: C_1  and  C_2
REMARK    2  A    between atoms: C_7  and  C_24
REMARK    3  A    between atoms: C_10  and  C_12
REMARK    4  A    between atoms: C_17  and  C_21
REMARK    5  A    between atoms: C_21  and  C_22
REMARK                            x       y       z     vdW  Elec       q    Type
REMARK                         _______ _______ _______ _____ _____    ______ ____
ROOT
ATOM      1  C   UNL     1      -1.226  -1.865   2.366  0.00  0.00    +0.150 A 
ATOM      2  C   UNL     1      -1.886  -2.523   3.409  0.00  0.00    +0.083 A 
ATOM      3  C   UNL     1      -3.170  -2.814   2.975  0.00  0.00    +0.156 A 
ATOM      4  N   UNL     1      -4.206  -3.427   3.567  0.00  0.00    -0.236 NA
ATOM      5  C   UNL     1      -5.343  -3.585   2.934  0.00  0.00    +0.118 A 
ATOM      6  C   UNL     1      -5.495  -3.112   1.621  0.00  0.00    -0.010 A 
ATOM      7  C   UNL     1      -4.457  -2.490   1.013  0.00  0.00    +0.119 A 
ATOM      8  N   UNL     1      -3.281  -2.338   1.693  0.00  0.00    -0.221 N 
ATOM      9  N   UNL     1      -2.060  -1.750   1.345  0.00  0.00    -0.160 NA
ENDROOT
BRANCH   1  17
ATOM     10  C   UNL     1      -0.374   1.355   0.361  0.00  0.00    +0.028 C 
ATOM     11  C   UNL     1      -0.245  -0.169   0.310  0.00  0.00    +0.074 C 
ATOM     12  C   UNL     1       0.350  -0.590  -1.037  0.00  0.00    +0.022 C 
ATOM     13  C   UNL     1       1.782  -0.062  -1.144  0.00  0.00    +0.004 C 
ATOM     14  C   UNL     1       2.636  -0.669  -0.028  0.00  0.00    +0.022 C 
ATOM     15  C   UNL     1       2.067  -0.249   1.330  0.00  0.00    +0.074 C 
ATOM     16  N   UNL     1       0.645  -0.625   1.387  0.00  0.00    -0.291 N 
ATOM     17  C   UNL     1       0.168  -1.373   2.402  0.00  0.00    +0.267 C 
ATOM     18  O   UNL     1       0.884  -1.644   3.346  0.00  0.00    -0.268 OA
ATOM     19  C   UNL     1       2.832  -0.960   2.449  0.00  0.00    +0.028 C 
ENDBRANCH   1  17
BRANCH   6  20
ATOM     20  C   UNL     1      -6.803  -3.293   0.895  0.00  0.00    +0.054 C 
BRANCH  20  21
ATOM     21  C   UNL     1      -6.835  -4.676   0.241  0.00  0.00    +0.113 C 
ATOM     22 CL   UNL     1      -8.400  -4.894  -0.628  0.00  0.00    -0.125 Cl
ENDBRANCH  20  21
ENDBRANCH   6  20
TORSDOF 3
