REMARK  Name = ZINC41583709
REMARK  10 active torsions:
REMARK  status: ('A' for Active; 'I' for Inactive)
REMARK    1  A    between atoms: C_1  and  C_2
REMARK    2  A    between atoms: C_4  and  O_33
REMARK    3  A    between atoms: C_5  and  C_22
REMARK    4  A    between atoms: C_11  and  C_12
REMARK    5  A    between atoms: C_15  and  N_18
REMARK    6  A    between atoms: N_18  and  C_19
REMARK    7  A    between atoms: N_18  and  C_20
REMARK    8  A    between atoms: C_22  and  N_23
REMARK    9  A    between atoms: C_25  and  C_32
REMARK   10  A    between atoms: C_28  and  C_31
REMARK                            x       y       z     vdW  Elec       q    Type
REMARK                         _______ _______ _______ _____ _____    ______ ____
ROOT
ATOM      1  C   UNL     1       0.531   1.618  -0.035  0.00  0.00    +0.045 C 
ATOM      2  C   UNL     1       0.269   0.134  -0.063  0.00  0.00    -0.033 A 
ATOM      3  C   UNL     1       0.098  -0.508  -1.257  0.00  0.00    +0.050 A 
ATOM      4  C   UNL     1      -0.145  -1.878  -1.286  0.00  0.00    +0.122 A 
ATOM      5  C   UNL     1      -0.216  -2.606  -0.109  0.00  0.00    +0.020 A 
ATOM      6  C   UNL     1      -0.044  -1.969   1.113  0.00  0.00    +0.145 A 
ATOM      7  C   UNL     1       0.205  -0.587   1.129  0.00  0.00    +0.071 A 
ATOM      8  C   UNL     1       0.346  -0.207   2.547  0.00  0.00    +0.232 C 
ATOM      9  O   UNL     1       0.565   0.902   3.004  0.00  0.00    -0.283 OA
ATOM     10  C   UNL     1       0.164  -1.464   3.286  0.00  0.00    +0.176 C 
ATOM     11  C   UNL     1       0.208  -1.615   4.635  0.00  0.00    +0.058 C 
ATOM     12  O   UNL     1      -0.066  -2.442   2.378  0.00  0.00    -0.451 OA
ENDROOT
BRANCH  11  13
ATOM     13  C   UNL     1       0.273  -0.435   5.503  0.00  0.00    -0.021 A 
ATOM     14  C   UNL     1      -0.527   0.683   5.231  0.00  0.00    +0.010 A 
ATOM     15  C   UNL     1      -0.463   1.780   6.043  0.00  0.00    +0.023 A 
ATOM     16  C   UNL     1       0.395   1.788   7.140  0.00  0.00    +0.029 A 
ATOM     17  C   UNL     1       1.193   0.679   7.414  0.00  0.00    +0.023 A 
ATOM     18  C   UNL     1       1.131  -0.424   6.611  0.00  0.00    +0.010 A 
BRANCH  16  19
ATOM     19  N   UNL     1       0.457   2.907   7.964  0.00  0.00    -0.336 N 
ATOM     20  C   UNL     1      -0.283   4.120   7.608  0.00  0.00    +0.129 C 
ATOM     21  C   UNL     1       1.262   2.873   9.188  0.00  0.00    +0.129 C 
ENDBRANCH  16  19
ENDBRANCH  11  13
BRANCH   4  22
ATOM     22  O   UNL     1      -0.314  -2.507  -2.477  0.00  0.00    -0.506 OA
ATOM     23  H   UNL     1       0.506  -2.842  -2.865  0.00  0.00    +0.292 HD
ENDBRANCH   4  22
BRANCH   5  24
ATOM     24  C   UNL     1      -0.480  -4.089  -0.155  0.00  0.00    -0.036 C 
BRANCH  24  25
ATOM     25  N   UNL     1       0.796  -4.812  -0.237  0.00  0.00    +0.383 N 
ATOM     26  C   UNL     1       1.460  -4.487  -1.505  0.00  0.00    -0.075 C 
ATOM     27  C   UNL     1       2.827  -5.173  -1.560  0.00  0.00    -0.031 C 
ATOM     28  C   UNL     1       2.636  -6.689  -1.455  0.00  0.00    +0.003 C 
ATOM     29  C   UNL     1       1.877  -7.010  -0.164  0.00  0.00    -0.031 C 
ATOM     30  C   UNL     1       0.545  -6.256  -0.162  0.00  0.00    -0.075 C 
ATOM     31  C   UNL     1       1.613  -8.515  -0.088  0.00  0.00    +0.005 C 
ATOM     32  C   UNL     1       3.691  -4.684  -0.395  0.00  0.00    +0.005 C 
ATOM     33  H   UNL     1       1.389  -4.534   0.531  0.00  0.00    -0.081 HD
ENDBRANCH  24  25
ENDBRANCH   5  24
TORSDOF 5
