REMARK  Name = ZINC01750426
REMARK  4 active torsions:
REMARK  status: ('A' for Active; 'I' for Inactive)
REMARK    1  A    between atoms: C_1  and  C_2
REMARK    2  A    between atoms: C_5  and  C_8
REMARK    3  A    between atoms: C_11  and  C_18
REMARK    4  A    between atoms: C_21  and  C_24
REMARK                            x       y       z     vdW  Elec       q    Type
REMARK                         _______ _______ _______ _____ _____    ______ ____
ROOT
ATOM      1  C   UNL     1       0.059  -4.275  -0.021  0.00  0.00    +0.148 C 
ATOM      2  C   UNL     1       1.311  -4.782   0.706  0.00  0.00    +0.088 C 
ATOM      3  C   UNL     1       1.162  -6.223   1.103  0.00  0.00    +0.055 C 
ATOM      4  N   UNL     1       0.015  -6.744   1.449  0.00  0.00    -0.214 NA
ATOM      5  C   UNL     1      -1.101  -5.972   1.377  0.00  0.00    +0.270 A 
ATOM      6  N   UNL     1      -1.112  -4.788   0.684  0.00  0.00    -0.202 N 
ATOM      7  N   UNL     1      -2.398  -4.280   0.827  0.00  0.00    -0.042 NA
ATOM      8  N   UNL     1      -3.058  -5.139   1.536  0.00  0.00    -0.021 NA
ATOM      9  N   UNL     1      -2.305  -6.137   1.857  0.00  0.00    -0.088 NA
ENDROOT
BRANCH   1  14
ATOM     10  C   UNL     1      -0.018   1.503   0.010  0.00  0.00    +0.044 C 
ATOM     11  C   UNL     1       0.002  -0.004   0.002  0.00  0.00    -0.050 A 
ATOM     12  C   UNL     1       0.006  -0.689  -1.199  0.00  0.00    +0.004 A 
ATOM     13  C   UNL     1       0.025  -2.071  -1.206  0.00  0.00    +0.006 A 
ATOM     14  C   UNL     1       0.040  -2.768  -0.013  0.00  0.00    -0.023 A 
ATOM     15  C   UNL     1       0.037  -2.084   1.188  0.00  0.00    +0.006 A 
ATOM     16  C   UNL     1       0.023  -0.702   1.195  0.00  0.00    +0.004 A 
ENDBRANCH   1  14
BRANCH   3  17
ATOM     17  C   UNL     1       2.356  -7.083   1.101  0.00  0.00    -0.004 A 
ATOM     18  C   UNL     1       3.600  -6.557   0.741  0.00  0.00    +0.010 A 
ATOM     19  C   UNL     1       4.715  -7.369   0.742  0.00  0.00    +0.004 A 
ATOM     20  C   UNL     1       4.604  -8.702   1.097  0.00  0.00    -0.050 A 
ATOM     21  C   UNL     1       3.375  -9.230   1.454  0.00  0.00    +0.004 A 
ATOM     22  C   UNL     1       2.253  -8.430   1.465  0.00  0.00    +0.010 A 
ATOM     23  C   UNL     1       5.826  -9.583   1.095  0.00  0.00    +0.044 C 
ENDBRANCH   3  17
TORSDOF 2
