REMARK  Name = ZINC65278178
REMARK  7 active torsions:
REMARK  status: ('A' for Active; 'I' for Inactive)
REMARK    1  A    between atoms: C_1  and  C_2
REMARK    2  A    between atoms: C_5  and  N_20
REMARK    3  A    between atoms: C_7  and  S_8
REMARK    4  A    between atoms: S_8  and  N_11
REMARK    5  A    between atoms: C_13  and  C_19
REMARK    6  A    between atoms: C_15  and  C_17
REMARK    7  A    between atoms: C_15  and  C_18
REMARK                            x       y       z     vdW  Elec       q    Type
REMARK                         _______ _______ _______ _____ _____    ______ ____
ROOT
ATOM      1  S   UNL     1       0.025   0.171   2.726  0.00  0.00    +0.061 S 
ATOM      2  O   UNL     1      -1.014   1.137   2.645  0.00  0.00    -0.153 OA
ATOM      3  O   UNL     1       0.076  -0.810   3.753  0.00  0.00    -0.153 OA
ENDROOT
BRANCH   1   4
ATOM      4  N   UNL     1       1.449   1.014   2.807  0.00  0.00    -0.171 NA
ATOM      5  C   UNL     1       2.653   0.411   3.399  0.00  0.00    +0.140 C 
ATOM      6  C   UNL     1       3.227   1.391   4.429  0.00  0.00    +0.132 C 
ATOM      7  O   UNL     1       3.394   2.673   3.818  0.00  0.00    -0.368 OA
ATOM      8  C   UNL     1       2.174   3.271   3.372  0.00  0.00    +0.079 C 
ATOM      9  C   UNL     1       1.548   2.385   2.282  0.00  0.00    +0.144 C 
ATOM     10  C   UNL     1       1.207   3.399   4.550  0.00  0.00    +0.042 C 
ATOM     11  C   UNL     1       2.466   4.657   2.795  0.00  0.00    +0.042 C 
ATOM     12  C   UNL     1       4.583   0.879   4.920  0.00  0.00    +0.039 C 
ENDBRANCH   1   4
BRANCH   1  19
ATOM     13  C   UNL     1      -0.018   1.503   0.010  0.00  0.00    +0.046 C 
ATOM     14  C   UNL     1       0.002  -0.004   0.002  0.00  0.00    -0.024 A 
ATOM     15  C   UNL     1       0.006  -0.689  -1.199  0.00  0.00    +0.007 A 
ATOM     16  C   UNL     1       0.025  -2.071  -1.207  0.00  0.00    +0.033 A 
ATOM     17  C   UNL     1       0.040  -2.768  -0.013  0.00  0.00    +0.128 A 
ATOM     18  C   UNL     1       0.037  -2.084   1.188  0.00  0.00    +0.061 A 
ATOM     19  C   UNL     1       0.023  -0.702   1.195  0.00  0.00    +0.111 A 
BRANCH  17  20
ATOM     20  N   UNL     1       0.059  -4.248  -0.021  0.00  0.00    +0.056 N 
ATOM     21  O   UNL     1       0.061  -4.847  -1.072  0.00  0.00    -0.126 OA
ATOM     22  O   UNL     1       0.073  -4.859   1.022  0.00  0.00    -0.126 OA
ENDBRANCH  17  20
ENDBRANCH   1  19
TORSDOF 3
