REMARK  Name = ZINC38556697
REMARK  4 active torsions:
REMARK  status: ('A' for Active; 'I' for Inactive)
REMARK    1  A    between atoms: C_1  and  O_2
REMARK    2  A    between atoms: O_2  and  C_3
REMARK    3  A    between atoms: C_12  and  C_14
REMARK    4  A    between atoms: C_25  and  C_28
REMARK                            x       y       z     vdW  Elec       q    Type
REMARK                         _______ _______ _______ _____ _____    ______ ____
ROOT
ATOM      1  C   UNL     1       0.544  -6.250  -1.471  0.00  0.00    +0.254 C 
ATOM      2  O   UNL     1       1.111  -6.846  -2.368  0.00  0.00    -0.270 OA
ATOM      3  N   UNL     1      -0.116  -6.937  -0.518  0.00  0.00    -0.294 N 
ATOM      4  C   UNL     1      -0.911  -6.231   0.497  0.00  0.00    +0.127 C 
ATOM      5  C   UNL     1      -2.342  -6.783   0.470  0.00  0.00    +0.126 C 
ATOM      6  N   UNL     1      -2.280  -8.251   0.513  0.00  0.00    -0.307 N 
ATOM      7  C   UNL     1      -1.486  -8.956  -0.502  0.00  0.00    +0.126 C 
ATOM      8  C   UNL     1      -0.059  -8.405  -0.478  0.00  0.00    +0.127 C 
ATOM      9  C   UNL     1      -2.952  -8.950   1.484  0.00  0.00    +0.151 C 
ATOM     10  N   UNL     1      -3.766  -8.337   2.319  0.00  0.00    -0.258 N 
ATOM     11  N   UNL     1      -4.420  -8.902   3.248  0.00  0.00    -0.176 NA
ATOM     12  C   UNL     1      -4.220 -10.044   3.808  0.00  0.00    +0.079 C 
ATOM     13  C   UNL     1      -3.061 -10.938   3.431  0.00  0.00    +0.134 C 
ATOM     14  S   UNL     1      -2.756 -10.703   1.645  0.00  0.00    -0.085 S 
ATOM     15  H   UNL     1      -3.874  -7.379   2.216  0.00  0.00    +0.191 HD
ENDROOT
BRANCH   1  25
ATOM     16  C   UNL     1       0.349  -0.620  -1.298  0.00  0.00    +0.163 A 
ATOM     17  C   UNL     1       1.279   0.087  -0.555  0.00  0.00    +0.049 A 
ATOM     18  C   UNL     1       2.221  -0.580   0.215  0.00  0.00    +0.004 A 
ATOM     19  C   UNL     1       2.256  -1.944   0.244  0.00  0.00    +0.012 A 
ATOM     20  C   UNL     1       1.341  -2.684  -0.519  0.00  0.00    +0.022 A 
ATOM     21  C   UNL     1       0.359  -2.013  -1.272  0.00  0.00    +0.180 A 
ATOM     22  O   UNL     1      -0.577  -2.717  -1.952  0.00  0.00    -0.418 OA
ATOM     23  C   UNL     1      -0.235  -3.965  -2.349  0.00  0.00    +0.350 A 
ATOM     24  O   UNL     1      -0.587  -4.400  -3.430  0.00  0.00    -0.244 OA
ATOM     25  C   UNL     1       0.579  -4.779  -1.428  0.00  0.00    +0.122 A 
ATOM     26  C   UNL     1       1.387  -4.102  -0.527  0.00  0.00    +0.032 A 
BRANCH  16  28
ATOM     27  C   UNL     1      -0.524   1.470  -2.022  0.00  0.00    +0.277 C 
ATOM     28  O   UNL     1      -0.574   0.042  -2.044  0.00  0.00    -0.491 OA
ENDBRANCH  16  28
ENDBRANCH   1  25
BRANCH  12  29
ATOM     29  C   UNL     1      -5.153 -10.495   4.854  0.00  0.00    -0.001 A 
ATOM     30  C   UNL     1      -4.959 -11.728   5.485  0.00  0.00    +0.011 A 
ATOM     31  C   UNL     1      -5.836 -12.143   6.464  0.00  0.00    +0.020 A 
ATOM     32  C   UNL     1      -6.908 -11.342   6.823  0.00  0.00    +0.041 A 
ATOM     33  C   UNL     1      -7.107 -10.120   6.202  0.00  0.00    +0.020 A 
ATOM     34  C   UNL     1      -6.234  -9.689   5.225  0.00  0.00    +0.011 A 
ATOM     35 CL   UNL     1      -8.008 -11.874   8.056  0.00  0.00    -0.084 Cl
ENDBRANCH  12  29
TORSDOF 3
