REMARK  Name = ZINC65967092
REMARK  5 active torsions:
REMARK  status: ('A' for Active; 'I' for Inactive)
REMARK    1  A    between atoms: C_1  and  C_2
REMARK    2  A    between atoms: C_2  and  C_3
REMARK    3  A    between atoms: C_2  and  C_4
REMARK    4  A    between atoms: C_6  and  C_9
REMARK    5  A    between atoms: C_9  and  N_10
REMARK                            x       y       z     vdW  Elec       q    Type
REMARK                         _______ _______ _______ _____ _____    ______ ____
ROOT
ATOM      1  N   UNL     1      -4.056  -3.810  -0.957  0.00  0.00    +0.387 N 
ATOM      2  C   UNL     1      -2.699  -4.231  -1.152  0.00  0.00    -0.074 C 
ATOM      3  C   UNL     1      -2.475  -5.711  -1.276  0.00  0.00    -0.027 C 
ATOM      4  C   UNL     1      -2.497  -6.127  -2.745  0.00  0.00    +0.005 C 
ATOM      5  C   UNL     1      -3.942  -6.246  -3.219  0.00  0.00    -0.012 C 
ATOM      6  C   UNL     1      -4.630  -7.362  -2.430  0.00  0.00    +0.007 C 
ATOM      7  C   UNL     1      -4.704  -6.930  -0.965  0.00  0.00    -0.012 C 
ATOM      8  C   UNL     1      -3.336  -6.587  -0.415  0.00  0.00    +0.005 C 
ATOM      9  C   UNL     1      -5.636  -5.720  -0.863  0.00  0.00    -0.012 C 
ATOM     10  C   UNL     1      -5.049  -4.573  -1.657  0.00  0.00    -0.067 C 
ATOM     11  C   UNL     1      -4.701  -4.938  -3.082  0.00  0.00    -0.012 C 
ATOM     12  H   UNL     1      -4.260  -3.856   0.030  0.00  0.00    -0.081 HD
ENDROOT
BRANCH   1  13
ATOM     13  C   UNL     1      -4.169  -2.408  -1.382  0.00  0.00    +0.003 C 
BRANCH  13  16
ATOM     14  C   UNL     1      -1.412  -0.526   0.013  0.00  0.00    +0.230 A 
ATOM     15  N   UNL     1      -1.953  -1.285  -0.899  0.00  0.00    -0.198 NA
ATOM     16  C   UNL     1      -3.221  -1.560  -0.574  0.00  0.00    +0.156 A 
ATOM     17  N   UNL     1      -3.503  -0.976   0.555  0.00  0.00    -0.063 NA
ATOM     18  O   UNL     1      -2.326  -0.294   0.963  0.00  0.00    -0.338 OA
BRANCH  14  20
ATOM     19  C   UNL     1      -0.019   1.526   0.010  0.00  0.00    +0.017 C 
ATOM     20  C   UNL     1       0.002  -0.004   0.002  0.00  0.00    +0.072 C 
ATOM     21  C   UNL     1       0.742  -0.511   1.242  0.00  0.00    +0.017 C 
ENDBRANCH  14  20
ENDBRANCH  13  16
ENDBRANCH   1  13
TORSDOF 3
