REMARK  Name = ZINC03487657
REMARK  7 active torsions:
REMARK  status: ('A' for Active; 'I' for Inactive)
REMARK    1  A    between atoms: C_1  and  C_2
REMARK    2  A    between atoms: C_2  and  C_3
REMARK    3  A    between atoms: C_2  and  C_4
REMARK    4  A    between atoms: C_4  and  C_5
REMARK    5  A    between atoms: N_9  and  C_13
REMARK    6  A    between atoms: C_13  and  C_14
REMARK    7  A    between atoms: N_16  and  C_17
REMARK                            x       y       z     vdW  Elec       q    Type
REMARK                         _______ _______ _______ _____ _____    ______ ____
ROOT
ATOM      1  C   UNL     1       1.159   1.865   0.006  0.00  0.00    +0.161 C 
ATOM      2  C   UNL     1       0.542   3.250   0.022  0.00  0.00    +0.244 C 
ATOM      3  O   UNL     1       1.126   4.312   0.030  0.00  0.00    -0.273 OA
ATOM      4  N   UNL     1      -0.792   3.054   0.025  0.00  0.00    -0.216 N 
ATOM      5  C   UNL     1      -1.100   1.752   0.009  0.00  0.00    +0.310 C 
ATOM      6  O   UNL     1      -2.238   1.327   0.004  0.00  0.00    -0.252 OA
ATOM      7  N   UNL     1      -0.008   0.966   0.002  0.00  0.00    -0.288 N 
ATOM      8  H   UNL     1       0.138  -0.124  -0.005  0.00  0.00    +0.151 HD
ENDROOT
BRANCH   1   9
ATOM      9  C   UNL     1       2.010   1.637   1.257  0.00  0.00    +0.034 C 
BRANCH   9  11
ATOM     10  C   UNL     1       3.610   0.162   0.029  0.00  0.00    +0.007 C 
ATOM     11  C   UNL     1       2.632   0.240   1.203  0.00  0.00    -0.015 C 
ATOM     12  C   UNL     1       3.380  -0.035   2.509  0.00  0.00    +0.007 C 
ENDBRANCH   9  11
ENDBRANCH   1   9
BRANCH   4  13
ATOM     13  C   UNL     1      -1.782   4.134   0.038  0.00  0.00    +0.214 C 
BRANCH  13  14
ATOM     14  C   UNL     1      -2.127   4.517  -1.378  0.00  0.00    +0.235 C 
ATOM     15  O   UNL     1      -1.597   3.944  -2.307  0.00  0.00    -0.274 OA
ATOM     16  N   UNL     1      -3.023   5.495  -1.612  0.00  0.00    -0.284 N 
ATOM     17  H   UNL     1      -3.559   5.963  -0.773  0.00  0.00    +0.155 HD
BRANCH  16  18
ATOM     18  C   UNL     1      -3.272   5.918  -2.923  0.00  0.00    +0.033 A 
ATOM     19  C   UNL     1      -3.554   7.252  -3.182  0.00  0.00    +0.024 A 
ATOM     20  C   UNL     1      -3.794   7.667  -4.478  0.00  0.00    +0.016 A 
ATOM     21  C   UNL     1      -3.764   6.752  -5.515  0.00  0.00    +0.013 A 
ATOM     22  C   UNL     1      -3.488   5.421  -5.259  0.00  0.00    +0.016 A 
ATOM     23  C   UNL     1      -3.242   5.001  -3.966  0.00  0.00    +0.024 A 
ATOM     24  I   UNL     1      -4.137   7.384  -7.477  0.00  0.00    -0.044 I 
ENDBRANCH  16  18
ENDBRANCH  13  14
ENDBRANCH   4  13
TORSDOF 5
