REMARK  Name = ZINC38032782
REMARK  3 active torsions:
REMARK  status: ('A' for Active; 'I' for Inactive)
REMARK    1  A    between atoms: C_5  and  N_7
REMARK    2  A    between atoms: N_10  and  S_12
REMARK    3  A    between atoms: S_12  and  N_15
REMARK                            x       y       z     vdW  Elec       q    Type
REMARK                         _______ _______ _______ _____ _____    ______ ____
ROOT
ATOM      1  C   UNL     1      -0.017   1.377   0.010  0.00  0.00    +0.002 A 
ATOM      2  C   UNL     1       1.172   2.079   0.002  0.00  0.00    +0.005 A 
ATOM      3  C   UNL     1       2.389   1.411  -0.009  0.00  0.00    -0.027 A 
ATOM      4  C   UNL     1       2.416   0.035  -0.007  0.00  0.00    -0.021 A 
ATOM      5  C   UNL     1       1.215  -0.675  -0.007  0.00  0.00    +0.028 A 
ATOM      6  C   UNL     1       0.002  -0.004   0.002  0.00  0.00    +0.023 A 
ATOM      7  C   UNL     1       3.697  -0.757   0.011  0.00  0.00    +0.054 C 
ATOM      8  C   UNL     1       4.871   0.095  -0.469  0.00  0.00    +0.115 C 
ATOM      9  N   UNL     1       4.809   1.388   0.233  0.00  0.00    -0.162 NA
ATOM     10  C   UNL     1       3.647   2.243  -0.032  0.00  0.00    +0.146 C 
ENDROOT
BRANCH   5  11
ATOM     11  N   UNL     1       1.235  -2.072  -0.018  0.00  0.00    -0.358 N 
ATOM     12  H   UNL     1       2.082  -2.545  -0.024  0.00  0.00    +0.142 HD
ATOM     13  H   UNL     1       0.402  -2.569  -0.018  0.00  0.00    +0.142 HD
ENDBRANCH   5  11
BRANCH   9  14
ATOM     14  S   UNL     1       6.005   1.858   1.278  0.00  0.00    +0.100 S 
ATOM     15  O   UNL     1       5.419   2.800   2.167  0.00  0.00    -0.141 OA
ATOM     16  O   UNL     1       6.636   0.670   1.734  0.00  0.00    -0.141 OA
BRANCH  14  17
ATOM     17  N   UNL     1       7.134   2.683   0.391  0.00  0.00    -0.166 NA
ATOM     18  C   UNL     1       8.223   1.942  -0.205  0.00  0.00    +0.110 C 
ATOM     19  C   UNL     1       9.405   1.863   0.792  0.00  0.00    +0.017 C 
ATOM     20  C   UNL     1      10.048   3.180   0.927  0.00  0.00    +0.001 C 
ATOM     21  C   UNL     1       9.142   4.265   1.500  0.00  0.00    +0.001 C 
ATOM     22  C   UNL     1       8.331   4.880   0.386  0.00  0.00    +0.017 C 
ATOM     23  C   UNL     1       6.984   4.143   0.237  0.00  0.00    +0.110 C 
ENDBRANCH  14  17
ENDBRANCH   9  14
TORSDOF 3
