REMARK  Name = ZINC35233604
REMARK  5 active torsions:
REMARK  status: ('A' for Active; 'I' for Inactive)
REMARK    1  A    between atoms: C_1  and  C_2
REMARK    2  A    between atoms: C_7  and  N_10
REMARK    3  A    between atoms: N_10  and  S_11
REMARK    4  A    between atoms: S_11  and  C_14
REMARK    5  A    between atoms: C_16  and  N_21
REMARK                            x       y       z     vdW  Elec       q    Type
REMARK                         _______ _______ _______ _____ _____    ______ ____
ROOT
ATOM      1  S   UNL     1       2.473  -3.812   0.113  0.00  0.00    +0.060 S 
ATOM      2  O   UNL     1       1.806  -4.943   0.656  0.00  0.00    -0.153 OA
ATOM      3  O   UNL     1       3.062  -3.823  -1.180  0.00  0.00    -0.153 OA
ENDROOT
BRANCH   1   4
ATOM      4  C   UNL     1       3.754  -3.391   1.246  0.00  0.00    +0.126 A 
ATOM      5  C   UNL     1       3.953  -4.156   2.381  0.00  0.00    +0.062 A 
ATOM      6  C   UNL     1       4.958  -3.825   3.270  0.00  0.00    +0.128 A 
ATOM      7  C   UNL     1       5.765  -2.730   3.026  0.00  0.00    +0.034 A 
ATOM      8  C   UNL     1       5.568  -1.965   1.892  0.00  0.00    +0.024 A 
ATOM      9  C   UNL     1       4.566  -2.298   0.999  0.00  0.00    +0.067 A 
ATOM     10 CL   UNL     1       4.322  -1.342  -0.429  0.00  0.00    -0.082 Cl
BRANCH   6  11
ATOM     11  N   UNL     1       5.170  -4.644   4.485  0.00  0.00    +0.056 N 
ATOM     12  O   UNL     1       4.464  -5.602   4.699  0.00  0.00    -0.126 OA
ATOM     13  O   UNL     1       6.049  -4.355   5.263  0.00  0.00    -0.126 OA
ENDBRANCH   6  11
ENDBRANCH   1   4
BRANCH   1  14
ATOM     14  N   UNL     1       1.380  -2.567   0.125  0.00  0.00    -0.187 NA
ATOM     15  H   UNL     1       1.246  -2.033  -0.673  0.00  0.00    +0.148 HD
BRANCH  14  21
ATOM     16  C   UNL     1      -0.522   1.278   0.383  0.00  0.00    +0.007 C 
ATOM     17  C   UNL     1      -0.333  -0.235   0.253  0.00  0.00    -0.013 C 
ATOM     18  C   UNL     1      -1.701  -0.915   0.173  0.00  0.00    +0.003 C 
ATOM     19  C   UNL     1      -1.511  -2.428   0.042  0.00  0.00    +0.002 C 
ATOM     20  C   UNL     1      -0.751  -2.954   1.261  0.00  0.00    +0.020 C 
ATOM     21  C   UNL     1       0.618  -2.274   1.341  0.00  0.00    +0.077 C 
ATOM     22  C   UNL     1       0.428  -0.761   1.471  0.00  0.00    +0.023 C 
ENDBRANCH  14  21
ENDBRANCH   1  14
TORSDOF 4
