REMARK  Name = ZINC64963982
REMARK  6 active torsions:
REMARK  status: ('A' for Active; 'I' for Inactive)
REMARK    1  A    between atoms: C_1  and  C_2
REMARK    2  A    between atoms: N_5  and  S_8
REMARK    3  A    between atoms: S_8  and  C_11
REMARK    4  A    between atoms: C_13  and  C_17
REMARK    5  A    between atoms: N_14  and  C_16
REMARK    6  A    between atoms: N_19  and  C_20
REMARK                            x       y       z     vdW  Elec       q    Type
REMARK                         _______ _______ _______ _____ _____    ______ ____
ROOT
ATOM      1  C   UNL     1      -0.923  -5.286   1.445  0.00  0.00    +0.124 A 
ATOM      2  C   UNL     1      -1.593  -6.136   0.559  0.00  0.00    +0.061 A 
ATOM      3  C   UNL     1      -0.806  -7.256   0.399  0.00  0.00    +0.106 A 
ATOM      4  N   UNL     1       0.319  -7.087   1.174  0.00  0.00    -0.344 N 
ATOM      5  C   UNL     1       0.239  -5.886   1.798  0.00  0.00    +0.114 A 
ATOM      6  C   UNL     1       1.422  -8.042   1.298  0.00  0.00    +0.149 C 
ENDROOT
BRANCH   3   7
ATOM      7  C   UNL     1      -1.112  -8.417  -0.443  0.00  0.00    +0.261 C 
ATOM      8  O   UNL     1      -0.288  -9.302  -0.583  0.00  0.00    -0.269 OA
ATOM      9  N   UNL     1      -2.306  -8.505  -1.062  0.00  0.00    -0.307 N 
ATOM     10  H   UNL     1      -2.935  -7.768  -1.010  0.00  0.00    +0.149 HD
BRANCH   9  11
ATOM     11  C   UNL     1      -2.655  -9.713  -1.813  0.00  0.00    +0.073 C 
ATOM     12  C   UNL     1      -2.020  -9.631  -3.216  0.00  0.00    +0.022 C 
ATOM     13  C   UNL     1      -1.931 -11.022  -3.783  0.00  0.00    +0.002 C 
ATOM     14  C   UNL     1      -3.143 -11.377  -4.666  0.00  0.00    +0.000 C 
ATOM     15  C   UNL     1      -4.479 -10.892  -4.070  0.00  0.00    +0.000 C 
ATOM     16  C   UNL     1      -4.563 -11.119  -2.585  0.00  0.00    +0.002 C 
ATOM     17  C   UNL     1      -4.105  -9.833  -1.866  0.00  0.00    +0.022 C 
ENDBRANCH   9  11
ENDBRANCH   3   7
BRANCH   1  18
ATOM     18  S   UNL     1      -1.486  -3.711   1.998  0.00  0.00    +0.062 S 
ATOM     19  O   UNL     1      -0.839  -3.460   3.238  0.00  0.00    -0.153 OA
ATOM     20  O   UNL     1      -2.901  -3.716   1.865  0.00  0.00    -0.153 OA
BRANCH  18  25
ATOM     21  C   UNL     1      -0.639   1.498  -0.244  0.00  0.00    +0.007 C 
ATOM     22  C   UNL     1      -0.483  -0.023  -0.195  0.00  0.00    -0.012 C 
ATOM     23  C   UNL     1      -1.864  -0.680  -0.267  0.00  0.00    +0.020 C 
ATOM     24  C   UNL     1      -1.702  -2.203  -0.251  0.00  0.00    +0.110 C 
ATOM     25  N   UNL     1      -0.914  -2.583   0.929  0.00  0.00    -0.177 NA
ATOM     26  C   UNL     1       0.391  -1.943   1.143  0.00  0.00    +0.110 C 
ATOM     27  C   UNL     1       0.206  -0.423   1.112  0.00  0.00    +0.020 C 
ENDBRANCH  18  25
ENDBRANCH   1  18
TORSDOF 4
