REMARK  Name = ZINC01510894
REMARK  2 active torsions:
REMARK  status: ('A' for Active; 'I' for Inactive)
REMARK    1  A    between atoms: C_10  and  C_11
REMARK    2  A    between atoms: N_13  and  C_14
REMARK                            x       y       z     vdW  Elec       q    Type
REMARK                         _______ _______ _______ _____ _____    ______ ____
ROOT
ATOM      1  C   UNL     1      -2.496   5.349   0.030  0.00  0.00    +0.249 C 
ATOM      2  O   UNL     1      -1.455   5.974   0.107  0.00  0.00    -0.270 OA
ATOM      3  N   UNL     1      -3.672   6.004  -0.032  0.00  0.00    -0.276 N 
ATOM      4  H   UNL     1      -4.505   5.508  -0.009  0.00  0.00    +0.155 HD
ENDROOT
BRANCH   3   5
ATOM      5  C   UNL     1      -3.691   7.399  -0.130  0.00  0.00    +0.120 A 
ATOM      6  C   UNL     1      -2.716   8.056  -0.818  0.00  0.00    +0.042 A 
ATOM      7  C   UNL     1      -2.784   9.518  -0.894  0.00  0.00    +0.019 A 
ATOM      8  C   UNL     1      -1.810  10.241  -1.593  0.00  0.00    +0.011 A 
ATOM      9  C   UNL     1      -1.886  11.604  -1.651  0.00  0.00    +0.001 A 
ATOM     10  C   UNL     1      -2.923  12.277  -1.022  0.00  0.00    +0.004 A 
ATOM     11  C   UNL     1      -3.892  11.584  -0.328  0.00  0.00    +0.047 A 
ATOM     12  C   UNL     1      -3.836  10.197  -0.256  0.00  0.00    +0.139 A 
ATOM     13  O   UNL     1      -4.782   9.512   0.421  0.00  0.00    -0.421 OA
ATOM     14  C   UNL     1      -4.756   8.173   0.509  0.00  0.00    +0.359 A 
ATOM     15  O   UNL     1      -5.629   7.595   1.129  0.00  0.00    -0.243 OA
ENDBRANCH   3   5
BRANCH   1  25
ATOM     16  C   UNL     1       1.149   1.774  -0.172  0.00  0.00    +0.001 A 
ATOM     17  C   UNL     1       1.151   3.166  -0.150  0.00  0.00    +0.001 A 
ATOM     18  C   UNL     1      -0.017   3.867  -0.092  0.00  0.00    +0.009 A 
ATOM     19  C   UNL     1      -1.237   3.180  -0.054  0.00  0.00    -0.006 A 
ATOM     20  C   UNL     1      -1.241   1.764  -0.083  0.00  0.00    -0.017 A 
ATOM     21  C   UNL     1      -0.018   1.074  -0.137  0.00  0.00    +0.008 A 
ATOM     22  C   UNL     1      -2.465   1.074  -0.039  0.00  0.00    +0.008 A 
ATOM     23  C   UNL     1      -3.638   1.764   0.019  0.00  0.00    +0.001 A 
ATOM     24  C   UNL     1      -3.655   3.153   0.042  0.00  0.00    +0.014 A 
ATOM     25  C   UNL     1      -2.471   3.875   0.006  0.00  0.00    +0.045 A 
ENDBRANCH   1  25
TORSDOF 2
