REMARK  Name = ZINC05488745
REMARK  13 active torsions:
REMARK  status: ('A' for Active; 'I' for Inactive)
REMARK    1  A    between atoms: C_1  and  C_2
REMARK    2  A    between atoms: C_2  and  N_3
REMARK    3  A    between atoms: C_10  and  C_22
REMARK    4  A    between atoms: C_12  and  C_18
REMARK    5  A    between atoms: C_12  and  C_20
REMARK    6  A    between atoms: C_13  and  N_17
REMARK    7  A    between atoms: C_14  and  C_15
REMARK    8  A    between atoms: C_25  and  O_30
REMARK    9  A    between atoms: C_26  and  O_28
REMARK   10  A    between atoms: O_28  and  C_29
REMARK   11  A    between atoms: O_30  and  C_31
REMARK   12  A    between atoms: C_31  and  C_32
REMARK   13  A    between atoms: C_31  and  C_33
REMARK                            x       y       z     vdW  Elec       q    Type
REMARK                         _______ _______ _______ _____ _____    ______ ____
ROOT
ATOM      1  N   UNL     1       1.318  -1.300  -0.585  0.00  0.00    -0.298 NA
ATOM      2  C   UNL     1       0.309  -1.078  -1.636  0.00  0.00    +0.112 C 
ATOM      3  C   UNL     1       0.996  -1.248  -2.969  0.00  0.00    -0.007 C 
ATOM      4  C   UNL     1       1.982  -2.115  -3.097  0.00  0.00    -0.026 C 
ATOM      5  C   UNL     1       2.439  -3.005  -1.976  0.00  0.00    +0.044 C 
ATOM      6  C   UNL     1       1.812  -2.679  -0.640  0.00  0.00    +0.093 C 
ATOM      7  C   UNL     1       3.967  -2.956  -1.923  0.00  0.00    +0.068 C 
ATOM      8  C   UNL     1       4.526  -3.523  -3.228  0.00  0.00    +0.188 C 
ATOM      9  C   UNL     1       3.889  -2.892  -4.428  0.00  0.00    +0.054 C 
ATOM     10  C   UNL     1       2.698  -2.241  -4.391  0.00  0.00    +0.074 C 
ENDROOT
BRANCH   7  11
ATOM     11  C   UNL     1       4.421  -1.529  -1.755  0.00  0.00    -0.037 A 
ATOM     12  C   UNL     1       4.579  -1.000  -0.487  0.00  0.00    +0.008 A 
ATOM     13  C   UNL     1       4.995   0.309  -0.328  0.00  0.00    +0.050 A 
ATOM     14  C   UNL     1       5.255   1.093  -1.440  0.00  0.00    +0.162 A 
ATOM     15  C   UNL     1       5.096   0.561  -2.716  0.00  0.00    +0.162 A 
ATOM     16  C   UNL     1       4.684  -0.753  -2.868  0.00  0.00    +0.053 A 
BRANCH  15  17
ATOM     17  O   UNL     1       5.351   1.327  -3.810  0.00  0.00    -0.491 OA
ATOM     18  C   UNL     1       5.166   0.714  -5.088  0.00  0.00    +0.277 C 
ENDBRANCH  15  17
BRANCH  14  19
ATOM     19  O   UNL     1       5.664   2.381  -1.285  0.00  0.00    -0.486 OA
BRANCH  19  20
ATOM     20  C   UNL     1       5.689   2.898   0.047  0.00  0.00    +0.167 C 
ATOM     21  C   UNL     1       7.017   2.529   0.712  0.00  0.00    +0.051 C 
ATOM     22  C   UNL     1       5.545   4.421   0.006  0.00  0.00    +0.051 C 
ENDBRANCH  19  20
ENDBRANCH  14  19
ENDBRANCH   7  11
BRANCH   9  23
ATOM     23  N   UNL     1       4.543  -2.975  -5.626  0.00  0.00    -0.358 N 
ATOM     24  H   UNL     1       5.395  -3.433  -5.682  0.00  0.00    +0.142 HD
ATOM     25  H   UNL     1       4.154  -2.575  -6.419  0.00  0.00    +0.142 HD
ENDBRANCH   9  23
BRANCH   1  27
ATOM     26  C   UNL     1       0.498   0.513   0.843  0.00  0.00    +0.020 C 
ATOM     27  C   UNL     1       0.772  -0.989   0.743  0.00  0.00    +0.081 C 
ENDBRANCH   1  27
BRANCH  10  28
ATOM     28  C   UNL     1       2.139  -1.683  -5.586  0.00  0.00    +0.101 C 
ATOM     29  N   UNL     1       1.695  -1.240  -6.533  0.00  0.00    -0.191 NA
ENDBRANCH  10  28
BRANCH   8  30
ATOM     30  C   UNL     1       5.977  -3.283  -3.273  0.00  0.00    +0.091 C 
ATOM     31  N   UNL     1       7.097  -3.097  -3.307  0.00  0.00    -0.194 NA
ENDBRANCH   8  30
BRANCH   8  32
ATOM     32  C   UNL     1       4.281  -4.974  -3.263  0.00  0.00    +0.091 C 
ATOM     33  N   UNL     1       4.092  -6.094  -3.291  0.00  0.00    -0.194 NA
ENDBRANCH   8  32
TORSDOF 9
