REMARK  Name = ZINC08916604
REMARK  7 active torsions:
REMARK  status: ('A' for Active; 'I' for Inactive)
REMARK    1  A    between atoms: C_1  and  C_2
REMARK    2  A    between atoms: C_5  and  C_8
REMARK    3  A    between atoms: C_8  and  N_9
REMARK    4  A    between atoms: N_9  and  C_10
REMARK    5  A    between atoms: C_18  and  C_20
REMARK    6  A    between atoms: N_25  and  C_27
REMARK    7  A    between atoms: C_30  and  C_33
REMARK                            x       y       z     vdW  Elec       q    Type
REMARK                         _______ _______ _______ _____ _____    ______ ____
ROOT
ATOM      1  N   UNL     1      -2.335  -4.267   0.015  0.00  0.00    -0.287 N 
ATOM      2  C   UNL     1      -1.146  -4.901  -0.005  0.00  0.00    +0.271 C 
ATOM      3  O   UNL     1      -1.103  -6.114   0.071  0.00  0.00    -0.268 OA
ENDROOT
BRANCH   1   4
ATOM      4  C   UNL     1      -2.393  -2.814  -0.161  0.00  0.00    +0.099 C 
ATOM      5  C   UNL     1      -1.606  -2.411  -1.419  0.00  0.00    +0.047 C 
ATOM      6  C   UNL     1      -1.390  -0.879  -1.439  0.00  0.00    +0.168 C 
ATOM      7  S   UNL     1      -1.389  -0.448   0.349  0.00  0.00    -0.029 S 
ATOM      8  O   UNL     1      -2.487   0.412   0.619  0.00  0.00    -0.174 OA
ATOM      9  O   UNL     1      -0.079  -0.050   0.729  0.00  0.00    -0.174 OA
ATOM     10  C   UNL     1      -1.741  -2.110   1.063  0.00  0.00    +0.188 C 
ENDBRANCH   1   4
BRANCH   2  11
ATOM     11  C   UNL     1       0.104  -4.123  -0.118  0.00  0.00    +0.193 A 
ATOM     12  C   UNL     1       0.835  -4.061  -1.394  0.00  0.00    +0.212 A 
ATOM     13  O   UNL     1       0.432  -4.646  -2.387  0.00  0.00    -0.285 OA
ATOM     14  C   UNL     1       2.028  -3.293  -1.421  0.00  0.00    +0.073 A 
ATOM     15  C   UNL     1       2.405  -2.671  -0.279  0.00  0.00    +0.117 A 
ATOM     16  N   UNL     1       1.668  -2.790   0.853  0.00  0.00    -0.239 N 
ATOM     17  N   UNL     1       0.586  -3.473   0.920  0.00  0.00    -0.158 NA
BRANCH  16  18
ATOM     18  C   UNL     1       2.108  -2.129   2.005  0.00  0.00    +0.065 A 
ATOM     19  C   UNL     1       3.274  -1.373   1.972  0.00  0.00    +0.028 A 
ATOM     20  C   UNL     1       3.705  -0.722   3.110  0.00  0.00    +0.005 A 
ATOM     21  C   UNL     1       2.979  -0.822   4.283  0.00  0.00    -0.050 A 
ATOM     22  C   UNL     1       1.819  -1.573   4.320  0.00  0.00    +0.005 A 
ATOM     23  C   UNL     1       1.381  -2.227   3.185  0.00  0.00    +0.028 A 
ATOM     24  C   UNL     1       3.453  -0.110   5.524  0.00  0.00    +0.044 C 
ENDBRANCH  16  18
ENDBRANCH   2  11
BRANCH   1  25
ATOM     25  C   UNL     1      -3.570  -5.031   0.212  0.00  0.00    +0.143 C 
BRANCH  25  30
ATOM     26  C   UNL     1      -4.746  -5.365   5.859  0.00  0.00    +0.044 C 
ATOM     27  C   UNL     1      -4.440  -5.279   4.386  0.00  0.00    -0.050 A 
ATOM     28  C   UNL     1      -4.936  -4.227   3.638  0.00  0.00    +0.003 A 
ATOM     29  C   UNL     1      -4.654  -4.147   2.287  0.00  0.00    +0.005 A 
ATOM     30  C   UNL     1      -3.877  -5.118   1.685  0.00  0.00    -0.030 A 
ATOM     31  C   UNL     1      -3.385  -6.172   2.432  0.00  0.00    +0.005 A 
ATOM     32  C   UNL     1      -3.663  -6.250   3.784  0.00  0.00    +0.003 A 
ENDBRANCH  25  30
ENDBRANCH   1  25
TORSDOF 5
