REMARK  Name = ZINC17835713
REMARK  8 active torsions:
REMARK  status: ('A' for Active; 'I' for Inactive)
REMARK    1  A    between atoms: C_1  and  C_2
REMARK    2  A    between atoms: C_3  and  C_23
REMARK    3  A    between atoms: C_5  and  S_9
REMARK    4  A    between atoms: C_7  and  C_8
REMARK    5  A    between atoms: S_9  and  C_10
REMARK    6  A    between atoms: C_10  and  C_11
REMARK    7  A    between atoms: C_15  and  C_22
REMARK    8  A    between atoms: C_18  and  C_21
REMARK                            x       y       z     vdW  Elec       q    Type
REMARK                         _______ _______ _______ _____ _____    ______ ____
ROOT
ATOM      1  C   UNL     1       0.076  -4.891   1.735  0.00  0.00    +0.173 C 
ENDROOT
BRANCH   1   2
ATOM      2  C   UNL     1       0.096  -6.392   1.871  0.00  0.00    +0.226 C 
ATOM      3  O   UNL     1       0.101  -7.090   0.879  0.00  0.00    -0.275 OA
ATOM      4  N   UNL     1       0.110  -6.958   3.094  0.00  0.00    -0.296 N 
ATOM      5  C   UNL     1       0.099  -6.132   4.311  0.00  0.00    +0.139 C 
ATOM      6  C   UNL     1       1.232  -6.606   5.228  0.00  0.00    +0.133 C 
ATOM      7  O   UNL     1       1.124  -8.018   5.418  0.00  0.00    -0.371 OA
ATOM      8  C   UNL     1       1.268  -8.783   4.219  0.00  0.00    +0.133 C 
ATOM      9  C   UNL     1       0.130  -8.421   3.251  0.00  0.00    +0.139 C 
ATOM     10  C   UNL     1       1.198 -10.275   4.553  0.00  0.00    +0.039 C 
ATOM     11  C   UNL     1       1.127  -5.897   6.580  0.00  0.00    +0.039 C 
ENDBRANCH   1   2
BRANCH   1  12
ATOM     12  S   UNL     1       0.061  -4.443  -0.022  0.00  0.00    -0.077 S 
BRANCH  12  17
ATOM     13  C   UNL     1      -0.018   1.503   0.010  0.00  0.00    +0.047 C 
ATOM     14  C   UNL     1       0.002  -0.004   0.002  0.00  0.00    -0.008 A 
ATOM     15  C   UNL     1       0.006  -0.706  -1.194  0.00  0.00    +0.046 A 
ATOM     16  N   UNL     1       0.024  -2.028  -1.166  0.00  0.00    -0.227 NA
ATOM     17  C   UNL     1       0.038  -2.681  -0.013  0.00  0.00    +0.189 A 
ATOM     18  N   UNL     1       0.035  -2.040   1.148  0.00  0.00    -0.227 NA
ATOM     19  C   UNL     1       0.023  -0.718   1.190  0.00  0.00    +0.046 A 
ATOM     20  C   UNL     1       0.026   0.002   2.513  0.00  0.00    +0.066 C 
ATOM     21  C   UNL     1      -0.011   0.029  -2.509  0.00  0.00    +0.066 C 
ENDBRANCH  12  17
ENDBRANCH   1  12
TORSDOF 3
