REMARK  Name = ZINC02205752
REMARK  8 active torsions:
REMARK  status: ('A' for Active; 'I' for Inactive)
REMARK    1  A    between atoms: C_1  and  C_2
REMARK    2  A    between atoms: C_2  and  C_3
REMARK    3  A    between atoms: C_2  and  N_4
REMARK    4  A    between atoms: C_8  and  C_9
REMARK    5  A    between atoms: C_10  and  O_20
REMARK    6  A    between atoms: O_20  and  C_21
REMARK    7  A    between atoms: C_24  and  O_27
REMARK    8  A    between atoms: O_27  and  C_28
REMARK                            x       y       z     vdW  Elec       q    Type
REMARK                         _______ _______ _______ _____ _____    ______ ____
ROOT
ATOM      1  C   UNL     1      -0.780  -4.367   1.564  0.00  0.00    +0.103 A 
ATOM      2  C   UNL     1      -1.270  -5.379   2.418  0.00  0.00    +0.235 A 
ATOM      3  N   UNL     1      -1.041  -6.649   2.124  0.00  0.00    -0.194 NA
ATOM      4  C   UNL     1      -0.355  -7.004   1.038  0.00  0.00    +0.144 A 
ATOM      5  C   UNL     1      -0.143  -8.369   0.777  0.00  0.00    +0.047 A 
ATOM      6  C   UNL     1       0.558  -8.742  -0.331  0.00  0.00    +0.005 A 
ATOM      7  C   UNL     1       1.057  -7.758  -1.196  0.00  0.00    +0.018 A 
ATOM      8  C   UNL     1       0.844  -6.450  -0.930  0.00  0.00    +0.096 A 
ATOM      9  N   UNL     1       0.144  -6.068   0.175  0.00  0.00    -0.268 N 
ATOM     10  C   UNL     1      -0.057  -4.753   0.409  0.00  0.00    +0.269 A 
ATOM     11  O   UNL     1       0.380  -3.913  -0.359  0.00  0.00    -0.266 OA
ENDROOT
BRANCH   1  16
ATOM     12  N   UNL     1      -0.190  -0.871   4.718  0.00  0.00    -0.253 N 
ATOM     13  C   UNL     1      -0.659  -1.132   3.510  0.00  0.00    +0.259 C 
ATOM     14  O   UNL     1      -1.123  -0.246   2.813  0.00  0.00    -0.269 OA
ATOM     15  C   UNL     1      -0.601  -2.477   3.044  0.00  0.00    +0.077 C 
ATOM     16  C   UNL     1      -1.010  -3.000   1.852  0.00  0.00    +0.039 C 
ATOM     17  S   UNL     1       0.145  -3.293   4.449  0.00  0.00    -0.061 S 
ATOM     18  C   UNL     1       0.320  -1.854   5.493  0.00  0.00    +0.121 C 
ATOM     19  S   UNL     1       0.970  -1.747   7.073  0.00  0.00    -0.027 S 
BRANCH  12  21
ATOM     20  C   UNL     1      -1.075   0.550   6.501  0.00  0.00    +0.028 C 
ATOM     21  C   UNL     1      -0.230   0.503   5.227  0.00  0.00    +0.077 C 
ATOM     22  C   UNL     1       1.193   0.971   5.540  0.00  0.00    +0.028 C 
ENDBRANCH  12  21
ENDBRANCH   1  16
BRANCH   2  23
ATOM     23  O   UNL     1      -1.970  -5.053   3.528  0.00  0.00    -0.437 OA
BRANCH  23  24
ATOM     24  C   UNL     1      -2.332  -6.055   4.372  0.00  0.00    +0.131 A 
ATOM     25  C   UNL     1      -3.672  -6.366   4.546  0.00  0.00    +0.050 A 
ATOM     26  C   UNL     1      -4.039  -7.389   5.399  0.00  0.00    +0.049 A 
ATOM     27  C   UNL     1      -3.067  -8.097   6.092  0.00  0.00    +0.120 A 
ATOM     28  C   UNL     1      -1.727  -7.781   5.922  0.00  0.00    +0.049 A 
ATOM     29  C   UNL     1      -1.360  -6.763   5.064  0.00  0.00    +0.050 A 
BRANCH  27  30
ATOM     30  O   UNL     1      -3.428  -9.099   6.936  0.00  0.00    -0.495 OA
ATOM     31  C   UNL     1      -4.826  -9.370   7.062  0.00  0.00    +0.277 C 
ENDBRANCH  27  30
ENDBRANCH  23  24
ENDBRANCH   2  23
TORSDOF 5
