REMARK  Name = ZINC49517967
REMARK  4 active torsions:
REMARK  status: ('A' for Active; 'I' for Inactive)
REMARK    1  A    between atoms: C_1  and  C_2
REMARK    2  A    between atoms: C_2  and  C_3
REMARK    3  A    between atoms: N_12  and  N_13
REMARK    4  A    between atoms: C_14  and  C_16
REMARK                            x       y       z     vdW  Elec       q    Type
REMARK                         _______ _______ _______ _____ _____    ______ ____
ROOT
ATOM      1  C   UNL     1       0.715  -0.497  -1.258  0.00  0.00    +0.135 C 
ATOM      2  C   UNL     1       0.632  -2.026  -1.329  0.00  0.00    +0.141 C 
ATOM      3  N   UNL     1       1.482  -2.486  -2.438  0.00  0.00    -0.280 N 
ATOM      4  C   UNL     1       2.867  -1.992  -2.500  0.00  0.00    +0.137 C 
ATOM      5  C   UNL     1       2.841  -0.464  -2.373  0.00  0.00    +0.179 C 
ATOM      6  O   UNL     1       2.088  -0.101  -1.213  0.00  0.00    -0.373 OA
ATOM      7  C   UNL     1       1.007  -3.336  -3.370  0.00  0.00    +0.319 C 
ATOM      8  O   UNL     1      -0.109  -3.804  -3.253  0.00  0.00    -0.251 OA
ATOM      9  N   UNL     1       1.768  -3.666  -4.432  0.00  0.00    -0.218 N 
ATOM     10  H   UNL     1       2.684  -3.352  -4.489  0.00  0.00    +0.174 HD
ENDROOT
BRANCH   9  11
ATOM     11  N   UNL     1       1.236  -4.463  -5.454  0.00  0.00    -0.228 N 
ATOM     12  C   UNL     1       2.026  -4.877  -6.465  0.00  0.00    +0.276 C 
ATOM     13  O   UNL     1       3.200  -4.559  -6.491  0.00  0.00    -0.267 OA
ATOM     14  H   UNL     1       0.301  -4.717  -5.434  0.00  0.00    +0.173 HD
BRANCH  12  15
ATOM     15  C   UNL     1       1.469  -5.712  -7.535  0.00  0.00    +0.104 A 
ATOM     16  C   UNL     1       2.157  -6.210  -8.622  0.00  0.00    +0.047 A 
ATOM     17  C   UNL     1       1.245  -6.949  -9.383  0.00  0.00    +0.036 A 
ATOM     18  C   UNL     1       0.042  -6.890  -8.761  0.00  0.00    +0.098 A 
ATOM     19  N   UNL     1       0.167  -6.146  -7.635  0.00  0.00    -0.356 N 
ATOM     20  H   UNL     1      -0.544  -5.950  -7.005  0.00  0.00    +0.166 HD
ATOM     21 BR   UNL     1       1.623  -7.865 -10.993  0.00  0.00    -0.049 Br
ENDBRANCH  12  15
ENDBRANCH   9  11
BRANCH   1  23
ATOM     22  C   UNL     1      -0.024   1.526   0.008  0.00  0.00    +0.006 C 
ATOM     23  C   UNL     1      -0.001  -0.003   0.000  0.00  0.00    +0.030 C 
ENDBRANCH   1  23
TORSDOF 3
