REMARK  Name = ZINC03519399
REMARK  4 active torsions:
REMARK  status: ('A' for Active; 'I' for Inactive)
REMARK    1  A    between atoms: N_13  and  C_17
REMARK    2  A    between atoms: C_17  and  C_18
REMARK    3  A    between atoms: N_20  and  C_21
REMARK    4  A    between atoms: C_21  and  C_22
REMARK                            x       y       z     vdW  Elec       q    Type
REMARK                         _______ _______ _______ _____ _____    ______ ____
ROOT
ATOM      1  C   UNL     1       8.109   1.070   1.437  0.00  0.00    +0.001 A 
ATOM      2  C   UNL     1       9.061   1.972   1.877  0.00  0.00    +0.004 A 
ATOM      3  C   UNL     1       8.768   3.321   1.909  0.00  0.00    +0.046 A 
ATOM      4  C   UNL     1       7.519   3.776   1.501  0.00  0.00    +0.126 A 
ATOM      5  C   UNL     1       6.569   2.870   1.057  0.00  0.00    +0.027 A 
ATOM      6  C   UNL     1       6.869   1.519   1.029  0.00  0.00    +0.010 A 
ATOM      7  C   UNL     1       5.213   3.329   0.601  0.00  0.00    +0.144 C 
ATOM      8  C   UNL     1       4.931   4.748   1.088  0.00  0.00    +0.081 C 
ATOM      9  C   UNL     1       6.164   5.613   0.792  0.00  0.00    +0.232 C 
ATOM     10  O   UNL     1       7.263   5.109   1.552  0.00  0.00    -0.492 OA
ATOM     11  C   UNL     1       4.143   2.382   1.091  0.00  0.00    +0.252 C 
ATOM     12  O   UNL     1       3.864   2.120   2.242  0.00  0.00    -0.272 OA
ATOM     13  N   UNL     1       3.562   1.887  -0.022  0.00  0.00    -0.215 N 
ATOM     14  C   UNL     1       4.121   2.385  -1.132  0.00  0.00    +0.310 C 
ATOM     15  O   UNL     1       3.772   2.086  -2.257  0.00  0.00    -0.252 OA
ATOM     16  N   UNL     1       5.110   3.258  -0.862  0.00  0.00    -0.281 N 
ATOM     17  H   UNL     1       5.651   3.741  -1.506  0.00  0.00    +0.152 HD
ENDROOT
BRANCH  13  18
ATOM     18  C   UNL     1       2.462   0.920  -0.017  0.00  0.00    +0.213 C 
BRANCH  18  19
ATOM     19  C   UNL     1       1.147   1.655   0.000  0.00  0.00    +0.231 C 
ATOM     20  O   UNL     1       1.130   2.868   0.007  0.00  0.00    -0.274 OA
ATOM     21  N   UNL     1      -0.011   0.966   0.007  0.00  0.00    -0.310 N 
ATOM     22  H   UNL     1       0.002  -0.004   0.002  0.00  0.00    +0.149 HD
BRANCH  21  23
ATOM     23  C   UNL     1      -1.290   1.681   0.017  0.00  0.00    +0.139 C 
BRANCH  23  24
ATOM     24  C   UNL     1      -2.422   0.686   0.017  0.00  0.00    -0.029 A 
ATOM     25  C   UNL     1      -2.935   0.224   1.215  0.00  0.00    +0.005 A 
ATOM     26  C   UNL     1      -3.973  -0.689   1.216  0.00  0.00    +0.002 A 
ATOM     27  C   UNL     1      -4.499  -1.139   0.019  0.00  0.00    +0.020 A 
ATOM     28  C   UNL     1      -3.986  -0.677  -1.179  0.00  0.00    +0.041 A 
ATOM     29  C   UNL     1      -2.950   0.241  -1.179  0.00  0.00    +0.025 A 
ATOM     30 CL   UNL     1      -4.645  -1.242  -2.683  0.00  0.00    -0.084 Cl
ENDBRANCH  23  24
ENDBRANCH  21  23
ENDBRANCH  18  19
ENDBRANCH  13  18
TORSDOF 4
