REMARK  Name = ZINC19688870
REMARK  4 active torsions:
REMARK  status: ('A' for Active; 'I' for Inactive)
REMARK    1  A    between atoms: C_1  and  C_2
REMARK    2  A    between atoms: N_6  and  C_14
REMARK    3  A    between atoms: C_14  and  C_15
REMARK    4  A    between atoms: C_18  and  N_21
REMARK                            x       y       z     vdW  Elec       q    Type
REMARK                         _______ _______ _______ _____ _____    ______ ____
ROOT
ATOM      1  C   UNL     1      -2.411   4.795   2.254  0.00  0.00    +0.062 C 
ATOM      2  C   UNL     1      -2.435   5.056   0.746  0.00  0.00    +0.256 C 
ATOM      3  C   UNL     1      -1.226   5.870   0.359  0.00  0.00    +0.261 C 
ATOM      4  O   UNL     1      -1.287   7.081   0.342  0.00  0.00    -0.271 OA
ATOM      5  N   UNL     1      -0.074   5.245   0.031  0.00  0.00    -0.261 N 
ATOM      6  C   UNL     1      -0.041   3.843   0.023  0.00  0.00    +0.079 A 
ATOM      7  C   UNL     1       1.166   3.164   0.008  0.00  0.00    +0.027 A 
ATOM      8  C   UNL     1       1.177   1.781   0.000  0.00  0.00    +0.002 A 
ATOM      9  C   UNL     1      -0.013   1.076   0.008  0.00  0.00    +0.004 A 
ATOM     10  C   UNL     1      -1.221   1.748   0.017  0.00  0.00    +0.047 A 
ATOM     11  C   UNL     1      -1.240   3.132   0.031  0.00  0.00    +0.143 A 
ATOM     12  O   UNL     1      -2.419   3.809   0.047  0.00  0.00    -0.478 OA
ENDROOT
BRANCH   5  13
ATOM     13  C   UNL     1       1.121   6.019  -0.312  0.00  0.00    +0.149 C 
BRANCH  13  14
ATOM     14  C   UNL     1       1.141   6.282  -1.796  0.00  0.00    -0.030 A 
ATOM     15  C   UNL     1       1.764   5.388  -2.647  0.00  0.00    +0.007 A 
ATOM     16  C   UNL     1       1.779   5.624  -4.008  0.00  0.00    +0.023 A 
ATOM     17  C   UNL     1       1.177   6.766  -4.520  0.00  0.00    +0.025 A 
ATOM     18  C   UNL     1       0.556   7.665  -3.662  0.00  0.00    +0.023 A 
ATOM     19  C   UNL     1       0.540   7.420  -2.302  0.00  0.00    +0.007 A 
BRANCH  17  20
ATOM     20  N   UNL     1       1.195   7.010  -5.895  0.00  0.00    -0.358 N 
ATOM     21  H   UNL     1       0.717   7.915  -6.299  0.00  0.00    +0.142 HD
ATOM     22  H   UNL     1       1.686   6.297  -6.574  0.00  0.00    +0.142 HD
ENDBRANCH  17  20
ENDBRANCH  13  14
ENDBRANCH   5  13
TORSDOF 3
