REMARK  Name = ZINC08791602
REMARK  10 active torsions:
REMARK  status: ('A' for Active; 'I' for Inactive)
REMARK    1  A    between atoms: C_1  and  C_2
REMARK    2  A    between atoms: C_12  and  C_13
REMARK    3  A    between atoms: C_13  and  C_14
REMARK    4  A    between atoms: N_16  and  C_17
REMARK    5  A    between atoms: C_19  and  O_25
REMARK    6  A    between atoms: C_22  and  O_23
REMARK    7  A    between atoms: O_23  and  C_24
REMARK    8  A    between atoms: O_25  and  C_26
REMARK    9  A    between atoms: C_28  and  C_31
REMARK   10  A    between atoms: C_28  and  C_32
REMARK                            x       y       z     vdW  Elec       q    Type
REMARK                         _______ _______ _______ _____ _____    ______ ____
ROOT
ATOM      1  C   UNL     1      -2.561   5.346   0.076  0.00  0.00    +0.045 C 
ATOM      2  C   UNL     1      -2.512   3.840   0.056  0.00  0.00    -0.029 A 
ATOM      3  C   UNL     1      -1.235   3.123   0.035  0.00  0.00    +0.021 A 
ATOM      4  C   UNL     1      -0.021   3.817   0.032  0.00  0.00    +0.019 A 
ATOM      5  C   UNL     1       1.163   3.132   0.015  0.00  0.00    -0.005 A 
ATOM      6  C   UNL     1       1.166   1.741   0.003  0.00  0.00    +0.128 A 
ATOM      7  C   UNL     1      -0.032   1.038   0.003  0.00  0.00    +0.093 A 
ATOM      8  C   UNL     1      -1.241   1.717   0.013  0.00  0.00    +0.143 A 
ATOM      9  O   UNL     1      -2.405   1.036   0.020  0.00  0.00    -0.422 OA
ATOM     10  C   UNL     1      -3.569   1.693   0.039  0.00  0.00    +0.341 A 
ATOM     11  O   UNL     1      -4.602   1.048   0.040  0.00  0.00    -0.245 OA
ATOM     12  C   UNL     1      -3.652   3.099   0.058  0.00  0.00    +0.049 A 
ATOM     13  O   UNL     1       2.325   1.032  -0.001  0.00  0.00    -0.486 OA
ATOM     14  C   UNL     1       3.523   1.712  -0.374  0.00  0.00    +0.105 C 
ATOM     15  C   UNL     1       3.610   3.017   0.428  0.00  0.00    +0.052 C 
ATOM     16  C   UNL     1       2.449   3.920   0.004  0.00  0.00    +0.043 C 
ATOM     17  C   UNL     1       4.735   0.832  -0.060  0.00  0.00    +0.055 C 
ATOM     18  C   UNL     1       3.492   2.030  -1.871  0.00  0.00    +0.055 C 
ENDROOT
BRANCH  12  19
ATOM     19  C   UNL     1      -4.997   3.779   0.079  0.00  0.00    +0.138 C 
BRANCH  19  20
ATOM     20  C   UNL     1      -5.459   4.022  -1.335  0.00  0.00    +0.222 C 
ATOM     21  O   UNL     1      -4.764   3.679  -2.268  0.00  0.00    -0.275 OA
ATOM     22  N   UNL     1      -6.644   4.623  -1.563  0.00  0.00    -0.282 N 
ATOM     23  H   UNL     1      -7.228   4.839  -0.820  0.00  0.00    +0.155 HD
BRANCH  22  24
ATOM     24  C   UNL     1      -7.031   4.934  -2.873  0.00  0.00    +0.079 A 
ATOM     25  C   UNL     1      -6.676   4.096  -3.920  0.00  0.00    +0.072 A 
ATOM     26  C   UNL     1      -7.061   4.407  -5.215  0.00  0.00    +0.122 A 
ATOM     27  C   UNL     1      -7.801   5.554  -5.464  0.00  0.00    +0.049 A 
ATOM     28  C   UNL     1      -8.155   6.391  -4.422  0.00  0.00    +0.051 A 
ATOM     29  C   UNL     1      -7.777   6.083  -3.125  0.00  0.00    +0.141 A 
BRANCH  29  30
ATOM     30  O   UNL     1      -8.131   6.904  -2.100  0.00  0.00    -0.493 OA
ATOM     31  C   UNL     1      -8.897   8.064  -2.432  0.00  0.00    +0.277 C 
ENDBRANCH  29  30
BRANCH  26  32
ATOM     32  O   UNL     1      -6.715   3.586  -6.242  0.00  0.00    -0.495 OA
ATOM     33  C   UNL     1      -7.144   3.966  -7.550  0.00  0.00    +0.277 C 
ENDBRANCH  26  32
ENDBRANCH  22  24
ENDBRANCH  19  20
ENDBRANCH  12  19
TORSDOF 5
