REMARK  Name = ZINC67288924
REMARK  7 active torsions:
REMARK  status: ('A' for Active; 'I' for Inactive)
REMARK    1  A    between atoms: C_1  and  S_2
REMARK    2  A    between atoms: S_2  and  C_3
REMARK    3  A    between atoms: C_6  and  C_9
REMARK    4  A    between atoms: N_17  and  C_21
REMARK    5  A    between atoms: C_21  and  C_22
REMARK    6  A    between atoms: N_24  and  C_25
REMARK    7  A    between atoms: C_30  and  C_31
REMARK                            x       y       z     vdW  Elec       q    Type
REMARK                         _______ _______ _______ _____ _____    ______ ____
ROOT
ATOM      1  C   UNL     1       2.919  -1.390  -5.099  0.00  0.00    +0.144 C 
ATOM      2  C   UNL     1       4.368  -1.654  -4.748  0.00  0.00    +0.082 C 
ATOM      3  C   UNL     1       4.884  -2.861  -5.065  0.00  0.00    +0.065 C 
ATOM      4  C   UNL     1       6.323  -2.837  -4.603  0.00  0.00    +0.284 C 
ATOM      5  O   UNL     1       6.516  -1.539  -4.027  0.00  0.00    -0.455 OA
ATOM      6  C   UNL     1       5.354  -0.866  -4.126  0.00  0.00    +0.339 C 
ATOM      7  O   UNL     1       5.179   0.272  -3.730  0.00  0.00    -0.245 OA
ATOM      8  N   UNL     1       4.125  -3.813  -5.681  0.00  0.00    -0.247 N 
ATOM      9  C   UNL     1       2.840  -3.635  -6.013  0.00  0.00    +0.307 C 
ATOM     10  O   UNL     1       2.243  -4.541  -6.560  0.00  0.00    -0.252 OA
ATOM     11  N   UNL     1       2.187  -2.483  -5.763  0.00  0.00    -0.288 N 
ATOM     12  H   UNL     1       1.256  -2.376  -6.013  0.00  0.00    +0.151 HD
ENDROOT
BRANCH   1  16
ATOM     13  C   UNL     1       0.845  -0.411  -1.493  0.00  0.00    +0.008 A 
ATOM     14  C   UNL     1       1.320   0.600  -2.320  0.00  0.00    +0.015 A 
ATOM     15  C   UNL     1       1.990   0.280  -3.484  0.00  0.00    +0.007 A 
ATOM     16  C   UNL     1       2.188  -1.045  -3.828  0.00  0.00    -0.022 A 
ATOM     17  C   UNL     1       1.716  -2.054  -3.008  0.00  0.00    +0.007 A 
ATOM     18  C   UNL     1       1.051  -1.741  -1.839  0.00  0.00    +0.015 A 
BRANCH  13  20
ATOM     19  C   UNL     1      -0.030   1.807   0.010  0.00  0.00    +0.090 C 
ATOM     20  S   UNL     1      -0.011  -0.007  -0.006  0.00  0.00    -0.129 S 
ENDBRANCH  13  20
ENDBRANCH   1  16
BRANCH   8  21
ATOM     21  C   UNL     1       4.749  -5.100  -5.995  0.00  0.00    +0.211 C 
BRANCH  21  22
ATOM     22  C   UNL     1       4.565  -6.045  -4.835  0.00  0.00    +0.235 C 
ATOM     23  O   UNL     1       3.970  -5.678  -3.843  0.00  0.00    -0.274 OA
ATOM     24  N   UNL     1       5.061  -7.296  -4.899  0.00  0.00    -0.284 N 
ATOM     25  H   UNL     1       5.465  -7.616  -5.721  0.00  0.00    +0.155 HD
BRANCH  24  26
ATOM     26  C   UNL     1       4.992  -8.134  -3.781  0.00  0.00    +0.045 A 
ATOM     27  C   UNL     1       4.913  -7.589  -2.506  0.00  0.00    +0.024 A 
ATOM     28  C   UNL     1       4.845  -8.419  -1.405  0.00  0.00    +0.002 A 
ATOM     29  C   UNL     1       4.857  -9.792  -1.570  0.00  0.00    +0.001 A 
ATOM     30  C   UNL     1       4.936 -10.338  -2.838  0.00  0.00    +0.014 A 
ATOM     31  C   UNL     1       4.997  -9.513  -3.944  0.00  0.00    +0.076 A 
BRANCH  31  32
ATOM     32  C   UNL     1       5.076 -10.109  -5.326  0.00  0.00    +0.419 C 
ATOM     33  F   UNL     1       5.066 -11.505  -5.233  0.00  0.00    -0.166 F 
ATOM     34  F   UNL     1       3.978  -9.684  -6.081  0.00  0.00    -0.166 F 
ATOM     35  F   UNL     1       6.258  -9.692  -5.947  0.00  0.00    -0.166 F 
ENDBRANCH  31  32
ENDBRANCH  24  26
ENDBRANCH  21  22
ENDBRANCH   8  21
TORSDOF 6
