REMARK  Name = ZINC61775437
REMARK  5 active torsions:
REMARK  status: ('A' for Active; 'I' for Inactive)
REMARK    1  A    between atoms: C_3  and  N_11
REMARK    2  A    between atoms: N_14  and  C_15
REMARK    3  A    between atoms: C_15  and  C_16
REMARK    4  A    between atoms: N_19  and  C_22
REMARK    5  A    between atoms: C_22  and  C_23
REMARK                            x       y       z     vdW  Elec       q    Type
REMARK                         _______ _______ _______ _____ _____    ______ ____
ROOT
ATOM      1  N   UNL     1       3.584   2.136  -0.023  0.00  0.00    -0.266 N 
ATOM      2  C   UNL     1       3.563   3.481  -0.117  0.00  0.00    +0.304 C 
ATOM      3  O   UNL     1       2.502   4.074  -0.102  0.00  0.00    -0.253 OA
ATOM      4  N   UNL     1       4.718   4.167  -0.226  0.00  0.00    -0.299 N 
ATOM      5  H   UNL     1       4.431   1.668   0.047  0.00  0.00    +0.156 HD
ATOM      6  H   UNL     1       5.564   3.693  -0.238  0.00  0.00    +0.150 HD
ENDROOT
BRANCH   1   9
ATOM      7  C   UNL     1       0.066   1.242  -0.628  0.00  0.00    +0.006 A 
ATOM      8  C   UNL     1       1.251   1.954  -0.622  0.00  0.00    +0.027 A 
ATOM      9  C   UNL     1       2.382   1.414  -0.028  0.00  0.00    +0.080 A 
ATOM     10  C   UNL     1       2.324   0.155   0.564  0.00  0.00    +0.183 A 
ATOM     11  C   UNL     1       1.131  -0.554   0.558  0.00  0.00    +0.164 A 
ATOM     12  C   UNL     1       0.004  -0.007  -0.041  0.00  0.00    +0.049 A 
ATOM     13  O   UNL     1       1.049  -1.784   1.137  0.00  0.00    -0.485 OA
ATOM     14  C   UNL     1       2.285  -2.457   1.396  0.00  0.00    +0.270 C 
ATOM     15  C   UNL     1       3.251  -1.457   2.047  0.00  0.00    +0.270 C 
ATOM     16  O   UNL     1       3.442  -0.365   1.140  0.00  0.00    -0.483 OA
ENDBRANCH   1   9
BRANCH   4  17
ATOM     17  C   UNL     1       4.695   5.628  -0.328  0.00  0.00    +0.109 C 
BRANCH  17  18
ATOM     18  C   UNL     1       6.127   6.154  -0.441  0.00  0.00    +0.003 C 
ATOM     19  C   UNL     1       6.885   5.859   0.857  0.00  0.00    -0.014 C 
ATOM     20  C   UNL     1       8.290   6.457   0.767  0.00  0.00    -0.078 C 
ATOM     21  N   UNL     1       8.197   7.909   0.573  0.00  0.00    +0.383 N 
ATOM     22  C   UNL     1       7.535   8.199  -0.705  0.00  0.00    -0.078 C 
ATOM     23  C   UNL     1       6.100   7.668  -0.672  0.00  0.00    -0.014 C 
ATOM     24  H   UNL     1       7.663   8.315   1.326  0.00  0.00    -0.081 HD
BRANCH  21  25
ATOM     25  C   UNL     1       9.546   8.489   0.565  0.00  0.00    -0.036 C 
BRANCH  25  26
ATOM     26  C   UNL     1       9.448   9.991   0.489  0.00  0.00    -0.027 A 
ATOM     27  C   UNL     1       9.381  10.894   1.497  0.00  0.00    +0.009 A 
ATOM     28  C   UNL     1       9.295  12.239   1.188  0.00  0.00    +0.008 A 
ATOM     29  C   UNL     1       9.280  12.614  -0.115  0.00  0.00    +0.045 A 
ATOM     30  S   UNL     1       9.397  11.042  -0.953  0.00  0.00    -0.103 S 
ENDBRANCH  25  26
ENDBRANCH  21  25
ENDBRANCH  17  18
ENDBRANCH   4  17
TORSDOF 5
