REMARK  Name = ZINC59514459
REMARK  4 active torsions:
REMARK  status: ('A' for Active; 'I' for Inactive)
REMARK    1  A    between atoms: C_5  and  N_7
REMARK    2  A    between atoms: N_8  and  C_9
REMARK    3  A    between atoms: C_12  and  O_23
REMARK    4  A    between atoms: C_13  and  C_15
REMARK                            x       y       z     vdW  Elec       q    Type
REMARK                         _______ _______ _______ _____ _____    ______ ____
ROOT
ATOM      1  C   UNL     1      -1.103  -2.096  -0.454  0.00  0.00    +0.087 A 
ATOM      2  C   UNL     1      -1.073  -0.700  -0.350  0.00  0.00    +0.033 A 
ATOM      3  C   UNL     1      -2.213  -0.003  -0.015  0.00  0.00    +0.048 A 
ATOM      4  C   UNL     1      -3.401  -0.679   0.224  0.00  0.00    +0.124 A 
ATOM      5  C   UNL     1      -3.445  -2.081   0.124  0.00  0.00    +0.020 A 
ATOM      6  C   UNL     1      -2.292  -2.787  -0.222  0.00  0.00    +0.041 A 
ENDROOT
BRANCH   5   7
ATOM      7  C   UNL     1      -4.702  -2.799   0.376  0.00  0.00    +0.032 C 
ATOM      8  C   UNL     1      -4.687  -3.974   1.054  0.00  0.00    +0.078 C 
ATOM      9  C   UNL     1      -3.563  -4.650   1.730  0.00  0.00    +0.256 C 
ATOM     10  O   UNL     1      -2.446  -4.169   1.742  0.00  0.00    -0.269 OA
ATOM     11  N   UNL     1      -3.826  -5.802   2.324  0.00  0.00    -0.261 N 
ATOM     12  C   UNL     1      -5.101  -6.330   2.299  0.00  0.00    +0.158 C 
ATOM     13  N   UNL     1      -5.528  -7.443   2.828  0.00  0.00    -0.279 NA
ATOM     14  S   UNL     1      -6.025  -5.115   1.373  0.00  0.00    -0.049 S 
ATOM     15  H   UNL     1      -3.116  -6.280   2.781  0.00  0.00    +0.157 HD
ATOM     16  H   UNL     1      -6.460  -7.699   2.735  0.00  0.00    +0.189 HD
ENDBRANCH   5   7
BRANCH   1  18
ATOM     17  N   UNL     1      -0.049  -4.005  -1.188  0.00  0.00    -0.148 NA
ATOM     18  N   UNL     1       0.031  -2.781  -0.787  0.00  0.00    -0.149 NA
BRANCH  17  23
ATOM     19  C   UNL     1      -3.211  -4.023  -3.013  0.00  0.00    +0.002 A 
ATOM     20  C   UNL     1      -3.521  -5.372  -2.975  0.00  0.00    +0.002 A 
ATOM     21  C   UNL     1      -2.675  -6.266  -2.343  0.00  0.00    +0.022 A 
ATOM     22  C   UNL     1      -1.515  -5.817  -1.744  0.00  0.00    +0.068 A 
ATOM     23  C   UNL     1      -1.196  -4.456  -1.779  0.00  0.00    +0.104 A 
ATOM     24  C   UNL     1      -2.056  -3.560  -2.420  0.00  0.00    +0.031 A 
ATOM     25 CL   UNL     1      -0.455  -6.940  -0.950  0.00  0.00    -0.081 Cl
ENDBRANCH  17  23
ENDBRANCH   1  18
BRANCH   4  26
ATOM     26  O   UNL     1      -4.520   0.013   0.555  0.00  0.00    -0.506 OA
ATOM     27  H   UNL     1      -5.055   0.282  -0.204  0.00  0.00    +0.292 HD
ENDBRANCH   4  26
TORSDOF 4
