REMARK  Name = ZINC37065713
REMARK  3 active torsions:
REMARK  status: ('A' for Active; 'I' for Inactive)
REMARK    1  A    between atoms: C_1  and  C_2
REMARK    2  A    between atoms: C_5  and  C_25
REMARK    3  A    between atoms: C_14  and  C_23
REMARK                            x       y       z     vdW  Elec       q    Type
REMARK                         _______ _______ _______ _____ _____    ______ ____
ROOT
ATOM      1  C   UNL     1      -0.019   1.526   0.010  0.00  0.00    +0.009 C 
ATOM      2  C   UNL     1       0.002  -0.004   0.002  0.00  0.00    +0.004 C 
ATOM      3  C   UNL     1      -1.433  -0.534   0.015  0.00  0.00    +0.009 C 
ATOM      4  C   UNL     1      -1.414  -2.064  -0.027  0.00  0.00    +0.004 C 
ATOM      5  C   UNL     1      -0.692  -2.596   1.215  0.00  0.00    +0.110 C 
ATOM      6  N   UNL     1       0.639  -1.977   1.288  0.00  0.00    -0.305 N 
ATOM      7  C   UNL     1       0.742  -0.512   1.244  0.00  0.00    +0.110 C 
ATOM      8  C   UNL     1       1.758  -2.748   1.396  0.00  0.00    +0.175 C 
ATOM      9  N   UNL     1       1.650  -4.066   1.430  0.00  0.00    -0.150 NA
ATOM     10  C   UNL     1       2.702  -4.864   1.552  0.00  0.00    +0.258 C 
ATOM     11  O   UNL     1       2.538  -6.069   1.550  0.00  0.00    -0.272 OA
ATOM     12  C   UNL     1       4.096  -4.308   1.692  0.00  0.00    +0.202 C 
ATOM     13  C   UNL     1       4.151  -2.934   1.015  0.00  0.00    +0.058 C 
ATOM     14  N   UNL     1       2.988  -2.157   1.464  0.00  0.00    -0.312 N 
ATOM     15  C   UNL     1       5.437  -2.213   1.412  0.00  0.00    +0.027 C 
ATOM     16  C   UNL     1       5.481  -0.838   0.741  0.00  0.00    +0.002 C 
ATOM     17  C   UNL     1       5.433  -1.011  -0.778  0.00  0.00    +0.000 C 
ATOM     18  C   UNL     1       4.139  -1.727  -1.171  0.00  0.00    +0.002 C 
ATOM     19  C   UNL     1       4.095  -3.103  -0.502  0.00  0.00    +0.027 C 
ATOM     20  C   UNL     1      -0.680  -2.532  -1.285  0.00  0.00    +0.009 C 
ATOM     21  H   UNL     1       3.092  -1.253   1.800  0.00  0.00    +0.149 HD
ENDROOT
BRANCH  12  22
ATOM     22  C   UNL     1       4.431  -4.171   3.119  0.00  0.00    +0.077 C 
ATOM     23  N   UNL     1       4.690  -4.065   4.220  0.00  0.00    -0.196 NA
ENDBRANCH  12  22
TORSDOF 1
