REMARK  Name = ZINC49176409
REMARK  9 active torsions:
REMARK  status: ('A' for Active; 'I' for Inactive)
REMARK    1  A    between atoms: C_1  and  C_2
REMARK    2  A    between atoms: N_5  and  C_11
REMARK    3  A    between atoms: C_7  and  C_9
REMARK    4  A    between atoms: C_7  and  C_10
REMARK    5  A    between atoms: C_11  and  N_12
REMARK    6  A    between atoms: N_15  and  C_18
REMARK    7  A    between atoms: C_18  and  C_19
REMARK    8  A    between atoms: C_18  and  C_20
REMARK    9  A    between atoms: C_18  and  C_21
REMARK                            x       y       z     vdW  Elec       q    Type
REMARK                         _______ _______ _______ _____ _____    ______ ____
ROOT
ATOM      1  C   UNL     1      -2.768  -2.557   0.042  0.00  0.00    +0.235 C 
ENDROOT
BRANCH   1   5
ATOM      2  C   UNL     1      -0.019   1.526   0.010  0.00  0.00    +0.039 C 
ATOM      3  C   UNL     1       0.002  -0.004   0.002  0.00  0.00    +0.130 C 
ATOM      4  C   UNL     1      -1.434  -0.535   0.015  0.00  0.00    +0.117 C 
ATOM      5  N   UNL     1      -1.407  -2.003   0.085  0.00  0.00    -0.278 NA
ATOM      6  C   UNL     1      -0.692  -2.455   1.287  0.00  0.00    +0.120 C 
ATOM      7  C   UNL     1       0.736  -1.905   1.261  0.00  0.00    +0.077 C 
ATOM      8  O   UNL     1       0.692  -0.479   1.161  0.00  0.00    -0.368 OA
ATOM      9  C   UNL     1       1.483  -2.478   0.055  0.00  0.00    +0.042 C 
ATOM     10  C   UNL     1       1.461  -2.304   2.548  0.00  0.00    +0.042 C 
ENDBRANCH   1   5
BRANCH   1  11
ATOM     11  N   UNL     1      -3.232  -2.605  -1.346  0.00  0.00    -0.207 N 
ATOM     12  C   UNL     1      -4.123  -1.769  -1.920  0.00  0.00    +0.197 A 
ATOM     13  S   UNL     1      -4.926  -0.455  -1.172  0.00  0.00    -0.010 S 
ATOM     14  N   UNL     1      -4.257  -2.175  -3.201  0.00  0.00    -0.216 N 
ATOM     15  N   UNL     1      -3.418  -3.281  -3.382  0.00  0.00    -0.044 NA
ATOM     16  N   UNL     1      -2.828  -3.524  -2.323  0.00  0.00    -0.044 NA
BRANCH  14  17
ATOM     17  C   UNL     1      -5.122  -1.568  -4.217  0.00  0.00    +0.060 C 
ATOM     18  C   UNL     1      -4.716  -0.108  -4.426  0.00  0.00    +0.036 C 
ATOM     19  C   UNL     1      -4.975  -2.332  -5.534  0.00  0.00    +0.036 C 
ATOM     20  C   UNL     1      -6.577  -1.631  -3.750  0.00  0.00    +0.036 C 
ENDBRANCH  14  17
ENDBRANCH   1  11
TORSDOF 3
