REMARK  Name = ZINC07384124
REMARK  4 active torsions:
REMARK  status: ('A' for Active; 'I' for Inactive)
REMARK    1  A    between atoms: C_1  and  C_2
REMARK    2  A    between atoms: C_7  and  C_13
REMARK    3  A    between atoms: C_13  and  N_41
REMARK    4  A    between atoms: C_17  and  C_20
REMARK                            x       y       z     vdW  Elec       q    Type
REMARK                         _______ _______ _______ _____ _____    ______ ____
ROOT
ATOM      1  C   UNL     1      -2.485   0.947   0.019  0.00  0.00    +0.045 C 
ATOM      2  C   UNL     1      -1.197   1.728   0.017  0.00  0.00    -0.034 A 
ATOM      3  C   UNL     1      -1.228   3.130   0.030  0.00  0.00    +0.008 A 
ATOM      4  C   UNL     1      -0.059   3.829   0.023  0.00  0.00    +0.047 A 
ATOM      5  C   UNL     1       1.163   3.132   0.008  0.00  0.00    +0.140 A 
ATOM      6  N   UNL     1       2.308   3.814   0.001  0.00  0.00    -0.236 NA
ATOM      7  C   UNL     1       3.478   3.195  -0.014  0.00  0.00    +0.032 A 
ATOM      8  C   UNL     1       3.530   1.814  -0.021  0.00  0.00    +0.092 A 
ATOM      9  C   UNL     1       2.332   1.091  -0.014  0.00  0.00    +0.258 A 
ATOM     10  O   UNL     1       2.344  -0.130  -0.020  0.00  0.00    -0.267 OA
ATOM     11  N   UNL     1       1.162   1.765   0.000  0.00  0.00    -0.268 N 
ATOM     12  C   UNL     1      -0.013   1.076   0.008  0.00  0.00    +0.099 A 
ENDROOT
BRANCH   7  13
ATOM     13  C   UNL     1       4.754   3.997  -0.022  0.00  0.00    -0.022 C 
BRANCH  13  20
ATOM     14  C   UNL     1       4.983   3.861  -2.428  0.00  0.00    -0.078 C 
ATOM     15  C   UNL     1       4.929   4.678  -3.721  0.00  0.00    -0.018 C 
ATOM     16  C   UNL     1       6.061   5.710  -3.715  0.00  0.00    -0.001 C 
ATOM     17  C   UNL     1       5.921   6.601  -2.477  0.00  0.00    -0.031 C 
ATOM     18  C   UNL     1       5.947   5.729  -1.220  0.00  0.00    -0.075 C 
ATOM     19  C   UNL     1       7.082   7.597  -2.432  0.00  0.00    +0.005 C 
ATOM     20  N   UNL     1       4.819   4.774  -1.276  0.00  0.00    +0.384 N 
ATOM     21  H   UNL     1       3.944   5.299  -1.389  0.00  0.00    -0.081 HD
ENDBRANCH  13  20
ENDBRANCH   7  13
TORSDOF 2
