REMARK  Name = ZINC62220217
REMARK  4 active torsions:
REMARK  status: ('A' for Active; 'I' for Inactive)
REMARK    1  A    between atoms: C_6  and  C_7
REMARK    2  A    between atoms: C_7  and  C_9
REMARK    3  A    between atoms: C_7  and  C_14
REMARK    4  A    between atoms: N_16  and  C_17
REMARK                            x       y       z     vdW  Elec       q    Type
REMARK                         _______ _______ _______ _____ _____    ______ ____
ROOT
ATOM      1  C   UNL     1      -1.641  -0.566  -0.310  0.00  0.00    +0.108 C 
ENDROOT
BRANCH   1   7
ATOM      2  C   UNL     1       0.543  -0.746   0.898  0.00  0.00    +0.008 A 
ATOM      3  C   UNL     1       1.676  -1.448   1.262  0.00  0.00    +0.050 A 
ATOM      4  C   UNL     1       1.862  -2.748   0.815  0.00  0.00    +0.162 A 
ATOM      5  C   UNL     1       0.905  -3.342   0.001  0.00  0.00    +0.162 A 
ATOM      6  C   UNL     1      -0.229  -2.631  -0.362  0.00  0.00    +0.053 A 
ATOM      7  C   UNL     1      -0.407  -1.336   0.086  0.00  0.00    -0.032 A 
ATOM      8  O   UNL     1       1.064  -4.619  -0.443  0.00  0.00    -0.485 OA
ATOM      9  C   UNL     1       2.384  -5.167  -0.366  0.00  0.00    +0.270 C 
ATOM     10  C   UNL     1       2.957  -4.848   1.022  0.00  0.00    +0.270 C 
ATOM     11  O   UNL     1       2.985  -3.425   1.179  0.00  0.00    -0.485 OA
ENDBRANCH   1   7
BRANCH   1  12
ATOM     12  C   UNL     1      -1.231   0.695  -1.075  0.00  0.00    +0.005 C 
ATOM     13  C   UNL     1      -2.479   1.383  -1.666  0.00  0.00    +0.004 C 
ATOM     14  C   UNL     1      -2.002   1.919  -3.039  0.00  0.00    +0.000 C 
ATOM     15  C   UNL     1      -1.063   0.793  -3.538  0.00  0.00    +0.000 C 
ATOM     16  C   UNL     1      -0.331   0.320  -2.265  0.00  0.00    +0.004 C 
ENDBRANCH   1  12
BRANCH   1  17
ATOM     17  C   UNL     1      -2.408  -0.175   0.926  0.00  0.00    +0.225 C 
ATOM     18  O   UNL     1      -2.255   0.925   1.414  0.00  0.00    -0.275 OA
ATOM     19  N   UNL     1      -3.266  -1.049   1.491  0.00  0.00    -0.285 N 
ATOM     20  H   UNL     1      -3.323  -1.957   1.156  0.00  0.00    +0.155 HD
BRANCH  19  21
ATOM     21  C   UNL     1      -4.074  -0.644   2.561  0.00  0.00    +0.036 A 
ATOM     22  C   UNL     1      -3.636   0.354   3.424  0.00  0.00    +0.027 A 
ATOM     23  C   UNL     1      -4.428   0.757   4.480  0.00  0.00    +0.050 A 
ATOM     24  C   UNL     1      -5.665   0.166   4.684  0.00  0.00    +0.157 A 
ATOM     25  C   UNL     1      -6.107  -0.836   3.819  0.00  0.00    +0.089 A 
ATOM     26  C   UNL     1      -5.313  -1.236   2.756  0.00  0.00    +0.052 A 
ATOM     27  N   UNL     1      -7.365  -1.229   4.274  0.00  0.00    -0.288 N 
ATOM     28  H   UNL     1      -7.930  -1.912   3.880  0.00  0.00    +0.172 HD
ATOM     29  C   UNL     1      -7.652  -0.488   5.363  0.00  0.00    +0.419 A 
ATOM     30  O   UNL     1      -8.674  -0.568   6.017  0.00  0.00    -0.223 OA
ATOM     31  O   UNL     1      -6.635   0.351   5.614  0.00  0.00    -0.408 OA
ENDBRANCH  19  21
ENDBRANCH   1  17
TORSDOF 4
