REMARK  Name = ZINC65541083
REMARK  5 active torsions:
REMARK  status: ('A' for Active; 'I' for Inactive)
REMARK    1  A    between atoms: C_1  and  C_2
REMARK    2  A    between atoms: C_2  and  C_4
REMARK    3  A    between atoms: C_2  and  N_15
REMARK    4  A    between atoms: N_6  and  C_7
REMARK    5  A    between atoms: C_19  and  C_22
REMARK                            x       y       z     vdW  Elec       q    Type
REMARK                         _______ _______ _______ _____ _____    ______ ____
ROOT
ATOM      1  N   UNL     1       0.594  -0.619   1.195  0.00  0.00    +0.388 N 
ATOM      2  C   UNL     1       0.570  -2.076   1.020  0.00  0.00    -0.078 C 
ATOM      3  C   UNL     1       1.288  -2.746   2.193  0.00  0.00    -0.018 C 
ATOM      4  C   UNL     1       0.578  -2.376   3.498  0.00  0.00    +0.009 C 
ATOM      5  C   UNL     1       0.543  -0.851   3.634  0.00  0.00    +0.059 C 
ATOM      6  C   UNL     1      -0.147  -0.251   2.408  0.00  0.00    -0.065 C 
ATOM      7  H   UNL     1       1.550  -0.308   1.279  0.00  0.00    -0.081 HD
ENDROOT
BRANCH   5   8
ATOM      8  C   UNL     1      -0.220  -0.473   4.877  0.00  0.00    +0.220 C 
ATOM      9  O   UNL     1      -1.217   0.212   4.792  0.00  0.00    -0.275 OA
ATOM     10  N   UNL     1       0.206  -0.897   6.084  0.00  0.00    -0.263 N 
ATOM     11  C   UNL     1      -0.498  -0.549   7.231  0.00  0.00    +0.187 A 
ATOM     12  N   UNL     1      -1.595   0.174   7.347  0.00  0.00    -0.126 NA
ATOM     13  N   UNL     1      -2.125   0.409   8.469  0.00  0.00    -0.148 NA
ATOM     14  C   UNL     1      -1.567  -0.083   9.557  0.00  0.00    +0.183 A 
ATOM     15  S   UNL     1      -0.177  -0.947   8.838  0.00  0.00    -0.039 S 
ATOM     16  H   UNL     1       1.003  -1.445   6.152  0.00  0.00    +0.157 HD
ENDBRANCH   5   8
BRANCH   1  18
ATOM     17  C   UNL     1      -0.119   1.532   0.266  0.00  0.00    -0.004 C 
ATOM     18  C   UNL     1      -0.028   0.023   0.029  0.00  0.00    +0.016 C 
BRANCH  18  19
ATOM     19  C   UNL     1       0.808  -0.244  -1.196  0.00  0.00    +0.203 C 
ATOM     20  O   UNL     1       1.930  -0.689  -1.080  0.00  0.00    -0.277 OA
ATOM     21  N   UNL     1       0.308   0.012  -2.421  0.00  0.00    -0.286 N 
ATOM     22  H   UNL     1      -0.558   0.439  -2.513  0.00  0.00    +0.155 HD
BRANCH  21  23
ATOM     23  C   UNL     1       1.039  -0.338  -3.563  0.00  0.00    +0.052 A 
ATOM     24  C   UNL     1       2.426  -0.274  -3.547  0.00  0.00    +0.026 A 
ATOM     25  C   UNL     1       3.146  -0.619  -4.674  0.00  0.00    +0.022 A 
ATOM     26  C   UNL     1       2.486  -1.029  -5.820  0.00  0.00    +0.042 A 
ATOM     27  C   UNL     1       1.104  -1.094  -5.839  0.00  0.00    +0.041 A 
ATOM     28  C   UNL     1       0.379  -0.755  -4.712  0.00  0.00    +0.064 A 
ATOM     29 CL   UNL     1      -1.355  -0.844  -4.734  0.00  0.00    -0.082 Cl
ATOM     30 CL   UNL     1       3.393  -1.461  -7.235  0.00  0.00    -0.083 Cl
ENDBRANCH  21  23
ENDBRANCH  18  19
ENDBRANCH   1  18
TORSDOF 4
