REMARK  Name = ZINC64435832
REMARK  4 active torsions:
REMARK  status: ('A' for Active; 'I' for Inactive)
REMARK    1  A    between atoms: C_1  and  O_2
REMARK    2  A    between atoms: O_2  and  C_3
REMARK    3  A    between atoms: C_3  and  C_4
REMARK    4  A    between atoms: C_13  and  C_19
REMARK                            x       y       z     vdW  Elec       q    Type
REMARK                         _______ _______ _______ _____ _____    ______ ____
ROOT
ATOM      1  C   UNL     1      -1.156  -2.103   0.002  0.00  0.00    +0.178 A 
ATOM      2  N   UNL     1      -1.089  -2.868  -1.093  0.00  0.00    -0.195 NA
ATOM      3  C   UNL     1      -0.967  -4.119  -0.749  0.00  0.00    +0.222 A 
ATOM      4  N   UNL     1      -0.967  -4.174   0.614  0.00  0.00    -0.211 N 
ATOM      5  N   UNL     1      -1.075  -2.865   1.066  0.00  0.00    -0.149 NA
ATOM      6  C   UNL     1      -0.872  -5.443   1.314  0.00  0.00    +0.209 C 
ATOM      7  C   UNL     1      -1.600  -6.498   0.473  0.00  0.00    +0.126 C 
ATOM      8  C   UNL     1      -1.416  -7.853   1.146  0.00  0.00    +0.045 C 
ATOM      9  C   UNL     1      -2.185  -7.825   2.472  0.00  0.00    +0.105 C 
ATOM     10  C   UNL     1      -1.959  -6.535   3.204  0.00  0.00    +0.215 C 
ATOM     11  O   UNL     1      -2.293  -6.481   4.368  0.00  0.00    -0.276 OA
ATOM     12  N   UNL     1      -1.425  -5.443   2.655  0.00  0.00    -0.293 N 
ATOM     13  C   UNL     1      -1.107  -6.472  -0.940  0.00  0.00    +0.227 C 
ATOM     14  O   UNL     1      -0.960  -7.507  -1.555  0.00  0.00    -0.275 OA
ATOM     15  N   UNL     1      -0.844  -5.265  -1.528  0.00  0.00    -0.254 N 
ATOM     16  H   UNL     1      -1.399  -4.625   3.176  0.00  0.00    +0.151 HD
ATOM     17  H   UNL     1      -0.573  -5.212  -2.458  0.00  0.00    +0.158 HD
ENDROOT
BRANCH   8  18
ATOM     18  C   UNL     1      -1.964  -8.941   0.259  0.00  0.00    -0.025 A 
ATOM     19  C   UNL     1      -3.297  -8.929  -0.107  0.00  0.00    +0.005 A 
ATOM     20  C   UNL     1      -3.800  -9.927  -0.920  0.00  0.00    +0.000 A 
ATOM     21  C   UNL     1      -2.970 -10.939  -1.367  0.00  0.00    +0.001 A 
ATOM     22  C   UNL     1      -1.637 -10.952  -1.002  0.00  0.00    +0.020 A 
ATOM     23  C   UNL     1      -1.132  -9.950  -0.193  0.00  0.00    +0.044 A 
ATOM     24 CL   UNL     1       0.543  -9.963   0.262  0.00  0.00    -0.083 Cl
ENDBRANCH   8  18
BRANCH   1  25
ATOM     25  C   UNL     1      -1.295  -0.603   0.011  0.00  0.00    +0.237 C 
BRANCH  25  27
ATOM     26  C   UNL     1      -0.017   1.425   0.010  0.00  0.00    +0.194 C 
ATOM     27  O   UNL     1       0.002  -0.004   0.002  0.00  0.00    -0.375 OA
ENDBRANCH  25  27
ENDBRANCH   1  25
TORSDOF 3
