REMARK  Name = ZINC08403638
REMARK  6 active torsions:
REMARK  status: ('A' for Active; 'I' for Inactive)
REMARK    1  A    between atoms: C_1  and  C_2
REMARK    2  A    between atoms: C_2  and  C_3
REMARK    3  A    between atoms: C_2  and  C_4
REMARK    4  A    between atoms: N_11  and  N_12
REMARK    5  A    between atoms: N_12  and  C_13
REMARK    6  A    between atoms: C_23  and  O_25
REMARK                            x       y       z     vdW  Elec       q    Type
REMARK                         _______ _______ _______ _____ _____    ______ ____
ROOT
ATOM      1  C   UNL     1      -1.690   0.018  -0.350  0.00  0.00    -0.044 A 
ATOM      2  C   UNL     1      -2.501   0.272   0.746  0.00  0.00    +0.006 A 
ATOM      3  C   UNL     1      -3.690  -0.403   0.914  0.00  0.00    +0.029 A 
ATOM      4  C   UNL     1      -4.093  -1.357  -0.028  0.00  0.00    +0.077 A 
ATOM      5  C   UNL     1      -3.261  -1.607  -1.139  0.00  0.00    +0.033 A 
ATOM      6  C   UNL     1      -2.068  -0.914  -1.294  0.00  0.00    +0.016 A 
ATOM      7  C   UNL     1      -3.956  -2.647  -1.928  0.00  0.00    +0.152 C 
ATOM      8  N   UNL     1      -3.564  -3.204  -3.055  0.00  0.00    -0.176 NA
ATOM      9  C   UNL     1      -5.187  -2.918  -1.166  0.00  0.00    +0.241 C 
ATOM     10  N   UNL     1      -5.192  -2.150  -0.105  0.00  0.00    -0.211 NA
ENDROOT
BRANCH   1  12
ATOM     11  C   UNL     1      -0.679   2.269  -0.595  0.00  0.00    +0.012 C 
ATOM     12  C   UNL     1      -0.393   0.769  -0.513  0.00  0.00    +0.013 C 
ATOM     13  C   UNL     1       0.514   0.487   0.687  0.00  0.00    +0.012 C 
ENDBRANCH   1  12
BRANCH   8  14
ATOM     14  N   UNL     1      -2.396  -2.939  -3.532  0.00  0.00    -0.231 N 
ATOM     15  H   UNL     1      -1.775  -2.396  -3.022  0.00  0.00    +0.175 HD
BRANCH  14  16
ATOM     16  C   UNL     1      -2.025  -3.435  -4.782  0.00  0.00    +0.128 A 
ATOM     17  C   UNL     1      -2.757  -4.453  -5.394  0.00  0.00    +0.203 A 
ATOM     18  C   UNL     1      -2.357  -4.917  -6.635  0.00  0.00    +0.253 A 
ATOM     19  N   UNL     1      -1.296  -4.409  -7.238  0.00  0.00    -0.186 NA
ATOM     20  C   UNL     1      -0.576  -3.446  -6.690  0.00  0.00    +0.253 A 
ATOM     21  C   UNL     1      -0.914  -2.923  -5.454  0.00  0.00    +0.203 A 
ATOM     22  F   UNL     1      -0.177  -1.934  -4.904  0.00  0.00    -0.199 F 
ATOM     23  F   UNL     1       0.500  -2.961  -7.348  0.00  0.00    -0.181 F 
ATOM     24  F   UNL     1      -3.058  -5.902  -7.237  0.00  0.00    -0.181 F 
ATOM     25  F   UNL     1      -3.843  -4.977  -4.785  0.00  0.00    -0.199 F 
ENDBRANCH  14  16
ENDBRANCH   8  14
BRANCH   9  26
ATOM     26  O   UNL     1      -6.150  -3.809  -1.504  0.00  0.00    -0.491 OA
ATOM     27  H   UNL     1      -6.887  -3.848  -0.879  0.00  0.00    +0.294 HD
ENDBRANCH   9  26
TORSDOF 4
