REMARK  Name = ZINC10296818
REMARK  5 active torsions:
REMARK  status: ('A' for Active; 'I' for Inactive)
REMARK    1  A    between atoms: C_3  and  N_22
REMARK    2  A    between atoms: C_6  and  C_7
REMARK    3  A    between atoms: N_11  and  C_19
REMARK    4  A    between atoms: C_13  and  C_14
REMARK    5  A    between atoms: C_13  and  C_16
REMARK                            x       y       z     vdW  Elec       q    Type
REMARK                         _______ _______ _______ _____ _____    ______ ____
ROOT
ATOM      1  C   UNL     1       1.298   3.361   0.340  0.00  0.00    +0.028 C 
ATOM      2  C   UNL     1       2.406   4.142   0.275  0.00  0.00    +0.079 A 
ATOM      3  C   UNL     1       2.515   5.604   0.098  0.00  0.00    +0.266 A 
ATOM      4  O   UNL     1       1.528   6.307  -0.015  0.00  0.00    -0.266 OA
ATOM      5  N   UNL     1       3.735   6.114   0.069  0.00  0.00    -0.297 N 
ATOM      6  C   UNL     1       4.837   5.307   0.198  0.00  0.00    +0.112 A 
ATOM      7  C   UNL     1       6.185   5.672   0.191  0.00  0.00    +0.158 C 
ATOM      8  S   UNL     1       4.129   3.679   0.387  0.00  0.00    -0.064 S 
ENDROOT
BRANCH   1  14
ATOM      9  C   UNL     1       2.588   1.477   1.326  0.00  0.00    +0.010 A 
ATOM     10  C   UNL     1       2.691   0.148   1.679  0.00  0.00    +0.033 A 
ATOM     11  C   UNL     1       1.642  -0.721   1.433  0.00  0.00    +0.126 A 
ATOM     12  C   UNL     1       0.481  -0.265   0.833  0.00  0.00    +0.033 A 
ATOM     13  C   UNL     1       0.361   1.061   0.474  0.00  0.00    +0.010 A 
ATOM     14  C   UNL     1       1.417   1.946   0.719  0.00  0.00    -0.024 A 
BRANCH  11  15
ATOM     15  N   UNL     1       1.762  -2.147   1.815  0.00  0.00    +0.056 N 
ATOM     16  O   UNL     1       2.782  -2.552   2.343  0.00  0.00    -0.126 OA
ATOM     17  O   UNL     1       0.841  -2.914   1.600  0.00  0.00    -0.126 OA
ENDBRANCH  11  15
ENDBRANCH   1  14
BRANCH   5  18
ATOM     18  C   UNL     1       3.911   7.558  -0.103  0.00  0.00    +0.091 C 
ATOM     19  C   UNL     1       3.071   8.249  -1.179  0.00  0.00    +0.027 C 
ATOM     20  C   UNL     1       4.571   8.040  -1.396  0.00  0.00    +0.027 C 
ENDBRANCH   5  18
BRANCH   7  21
ATOM     21  C   UNL     1       7.200   4.662   0.192  0.00  0.00    +0.113 C 
ATOM     22  N   UNL     1       8.005   3.861   0.192  0.00  0.00    -0.190 NA
ENDBRANCH   7  21
BRANCH   7  23
ATOM     23  C   UNL     1       6.552   7.056   0.183  0.00  0.00    +0.113 C 
ATOM     24  N   UNL     1       6.843   8.154   0.176  0.00  0.00    -0.190 NA
ENDBRANCH   7  23
TORSDOF 5
