REMARK  Name = ZINC48629090
REMARK  4 active torsions:
REMARK  status: ('A' for Active; 'I' for Inactive)
REMARK    1  A    between atoms: C_1  and  C_2
REMARK    2  A    between atoms: C_4  and  C_8
REMARK    3  A    between atoms: C_5  and  C_7
REMARK    4  A    between atoms: C_11  and  C_12
REMARK                            x       y       z     vdW  Elec       q    Type
REMARK                         _______ _______ _______ _____ _____    ______ ____
ROOT
ATOM      1  C   UNL     1      -1.371  -3.418  -0.055  0.00  0.00    +0.235 C 
ATOM      2  N   UNL     1      -0.856  -4.618  -0.041  0.00  0.00    -0.205 NA
ATOM      3  C   UNL     1      -1.865  -5.537  -0.035  0.00  0.00    +0.152 C 
ATOM      4  C   UNL     1      -1.744  -6.908  -0.020  0.00  0.00    +0.043 C 
ATOM      5  C   UNL     1      -3.113  -4.749  -0.046  0.00  0.00    +0.364 C 
ATOM      6  O   UNL     1      -4.253  -5.172  -0.046  0.00  0.00    -0.243 OA
ATOM      7  O   UNL     1      -2.718  -3.458  -0.053  0.00  0.00    -0.402 OA
ENDROOT
BRANCH   1  11
ATOM      8  C   UNL     1      -0.029   1.505  -0.091  0.00  0.00    +0.086 C 
ATOM      9  C   UNL     1      -0.006  -0.002  -0.080  0.00  0.00    +0.103 A 
ATOM     10  C   UNL     1      -1.088  -0.796  -0.074  0.00  0.00    +0.058 A 
ATOM     11  C   UNL     1      -0.579  -2.175  -0.064  0.00  0.00    +0.078 A 
ATOM     12  C   UNL     1       0.781  -2.064  -0.066  0.00  0.00    +0.114 A 
ATOM     13  O   UNL     1       1.098  -0.764  -0.080  0.00  0.00    -0.464 OA
ATOM     14  C   UNL     1       1.759  -3.211  -0.058  0.00  0.00    +0.087 C 
ENDBRANCH   1  11
BRANCH   4  15
ATOM     15  C   UNL     1      -0.420  -7.529  -0.134  0.00  0.00    -0.023 A 
ATOM     16  C   UNL     1       0.734  -6.734  -0.129  0.00  0.00    +0.008 A 
ATOM     17  C   UNL     1       1.974  -7.326  -0.237  0.00  0.00    +0.001 A 
ATOM     18  C   UNL     1       2.081  -8.702  -0.351  0.00  0.00    +0.000 A 
ATOM     19  C   UNL     1       0.946  -9.495  -0.357  0.00  0.00    +0.001 A 
ATOM     20  C   UNL     1      -0.301  -8.920  -0.243  0.00  0.00    +0.008 A 
ENDBRANCH   4  15
TORSDOF 2
