REMARK  Name = ZINC26600885
REMARK  6 active torsions:
REMARK  status: ('A' for Active; 'I' for Inactive)
REMARK    1  A    between atoms: C_1  and  C_2
REMARK    2  A    between atoms: C_2  and  C_3
REMARK    3  A    between atoms: C_2  and  C_4
REMARK    4  A    between atoms: C_10  and  C_12
REMARK    5  A    between atoms: C_12  and  C_13
REMARK    6  A    between atoms: C_20  and  C_25
REMARK                            x       y       z     vdW  Elec       q    Type
REMARK                         _______ _______ _______ _____ _____    ______ ____
ROOT
ATOM      1  C   UNL     1       3.808   2.966   0.810  0.00  0.00    +0.146 C 
ATOM      2  C   UNL     1       3.590   1.572   0.281  0.00  0.00    +0.231 C 
ATOM      3  O   UNL     1       4.558   0.859   0.117  0.00  0.00    -0.274 OA
ATOM      4  N   UNL     1       2.389   1.087  -0.016  0.00  0.00    -0.284 N 
ATOM      5  C   UNL     1       1.184   1.784   0.000  0.00  0.00    +0.047 A 
ATOM      6  C   UNL     1      -0.013   1.076   0.008  0.00  0.00    +0.036 A 
ATOM      7  C   UNL     1      -1.220   1.746   0.017  0.00  0.00    +0.057 A 
ATOM      8  C   UNL     1      -1.253   3.129   0.024  0.00  0.00    +0.013 A 
ATOM      9  C   UNL     1      -0.071   3.846   0.008  0.00  0.00    +0.017 A 
ATOM     10  C   UNL     1       1.142   3.179  -0.008  0.00  0.00    +0.030 A 
ATOM     11  S   UNL     1       2.655   4.089  -0.039  0.00  0.00    -0.110 S 
ATOM     12  H   UNL     1       2.279   0.033  -0.311  0.00  0.00    +0.155 HD
ENDROOT
BRANCH   7  13
ATOM     13  C   UNL     1      -2.509   0.966   0.026  0.00  0.00    +0.417 C 
ATOM     14  F   UNL     1      -2.898   0.723   1.348  0.00  0.00    -0.166 F 
ATOM     15  F   UNL     1      -3.504   1.702  -0.626  0.00  0.00    -0.166 F 
ATOM     16  F   UNL     1      -2.321  -0.252  -0.636  0.00  0.00    -0.166 F 
ENDBRANCH   7  13
BRANCH   1  17
ATOM     17  C   UNL     1       3.538   2.994   2.316  0.00  0.00    +0.120 C 
BRANCH  17  24
ATOM     18  C   UNL     1       4.509   8.124   5.957  0.00  0.00    +0.106 A 
ATOM     19  N   UNL     1       4.717   8.025   4.659  0.00  0.00    -0.144 NA
ATOM     20  N   UNL     1       4.489   6.942   4.052  0.00  0.00    -0.126 NA
ATOM     21  C   UNL     1       4.024   5.874   4.679  0.00  0.00    +0.188 A 
ATOM     22  S   UNL     1       3.915   6.474   6.308  0.00  0.00    -0.035 S 
ATOM     23  N   UNL     1       3.714   4.616   4.175  0.00  0.00    -0.263 N 
ATOM     24  C   UNL     1       3.874   4.357   2.862  0.00  0.00    +0.220 C 
ATOM     25  O   UNL     1       4.288   5.222   2.119  0.00  0.00    -0.275 OA
ATOM     26  H   UNL     1       3.338   3.831   4.848  0.00  0.00    +0.157 HD
BRANCH  18  28
ATOM     27  C   UNL     1       6.184   9.716   6.857  0.00  0.00    +0.014 C 
ATOM     28  C   UNL     1       4.713   9.296   6.882  0.00  0.00    +0.040 C 
ATOM     29  C   UNL     1       3.841  10.466   6.423  0.00  0.00    +0.014 C 
ENDBRANCH  18  28
ENDBRANCH  17  24
ENDBRANCH   1  17
TORSDOF 4
