REMARK  Name = ZINC21933049
REMARK  8 active torsions:
REMARK  status: ('A' for Active; 'I' for Inactive)
REMARK    1  A    between atoms: C_1  and  C_2
REMARK    2  A    between atoms: C_7  and  C_8
REMARK    3  A    between atoms: N_10  and  C_11
REMARK    4  A    between atoms: C_11  and  C_13
REMARK    5  A    between atoms: C_11  and  C_14
REMARK    6  A    between atoms: C_17  and  N_20
REMARK    7  A    between atoms: C_26  and  C_30
REMARK    8  A    between atoms: C_26  and  C_31
REMARK                            x       y       z     vdW  Elec       q    Type
REMARK                         _______ _______ _______ _____ _____    ______ ____
ROOT
ATOM      1  C   UNL     1      -1.220   2.220   0.020  0.00  0.00    +0.261 C 
ATOM      2  O   UNL     1      -1.114   3.432   0.026  0.00  0.00    -0.269 OA
ATOM      3  N   UNL     1      -2.441   1.649   0.024  0.00  0.00    -0.304 N 
ATOM      4  H   UNL     1      -2.537   0.554   0.019  0.00  0.00    +0.150 HD
ENDROOT
BRANCH   1  11
ATOM      5  C   UNL     1       1.725   3.267   0.002  0.00  0.00    +0.047 C 
ATOM      6  C   UNL     1       1.274   1.829  -0.000  0.00  0.00    -0.010 A 
ATOM      7  C   UNL     1       2.095   0.695  -0.014  0.00  0.00    +0.042 A 
ATOM      8  C   UNL     1       1.266  -0.428  -0.014  0.00  0.00    +0.028 A 
ATOM      9  N   UNL     1       0.002  -0.004   0.002  0.00  0.00    -0.354 N 
ATOM     10  H   UNL     1      -0.822  -0.733   0.007  0.00  0.00    +0.166 HD
ATOM     11  C   UNL     1      -0.017   1.378   0.010  0.00  0.00    +0.106 A 
ATOM     12  C   UNL     1       1.799  -1.838  -0.033  0.00  0.00    +0.060 C 
ATOM     13  C   UNL     1       3.239  -1.827  -0.554  0.00  0.00    -0.023 C 
ATOM     14  C   UNL     1       4.093  -0.830   0.236  0.00  0.00    +0.086 C 
ATOM     15  C   UNL     1       3.560   0.571  -0.025  0.00  0.00    +0.166 C 
ATOM     16  O   UNL     1       4.292   1.518  -0.227  0.00  0.00    -0.292 OA
ATOM     17  C   UNL     1       3.237  -1.429  -2.031  0.00  0.00    +0.011 C 
ATOM     18  C   UNL     1       3.837  -3.228  -0.410  0.00  0.00    +0.011 C 
ENDBRANCH   1  11
BRANCH   3  19
ATOM     19  C   UNL     1      -3.641   2.489   0.034  0.00  0.00    +0.100 C 
ATOM     20  C   UNL     1      -3.995   2.892  -1.399  0.00  0.00    +0.033 C 
BRANCH  19  21
ATOM     21  C   UNL     1      -4.788   1.719   0.637  0.00  0.00    -0.027 A 
ATOM     22  C   UNL     1      -4.956   0.381   0.332  0.00  0.00    +0.007 A 
ATOM     23  C   UNL     1      -6.003  -0.329   0.887  0.00  0.00    +0.028 A 
ATOM     24  C   UNL     1      -6.894   0.305   1.742  0.00  0.00    +0.067 A 
ATOM     25  C   UNL     1      -6.726   1.651   2.042  0.00  0.00    +0.028 A 
ATOM     26  C   UNL     1      -5.674   2.354   1.488  0.00  0.00    +0.007 A 
BRANCH  24  27
ATOM     27  N   UNL     1      -7.960  -0.411   2.303  0.00  0.00    -0.220 N 
ATOM     28  C   UNL     1      -8.254  -1.711   2.104  0.00  0.00    +0.225 A 
ATOM     29  N   UNL     1      -9.321  -1.998   2.805  0.00  0.00    -0.222 NA
ATOM     30  C   UNL     1      -9.740  -0.912   3.455  0.00  0.00    +0.245 A 
ATOM     31  N   UNL     1      -8.940   0.084   3.179  0.00  0.00    -0.154 NA
ENDBRANCH  24  27
ENDBRANCH  19  21
ENDBRANCH   3  19
TORSDOF 4
