REMARK  Name = ZINC07191680
REMARK  7 active torsions:
REMARK  status: ('A' for Active; 'I' for Inactive)
REMARK    1  A    between atoms: C_1  and  C_2
REMARK    2  A    between atoms: C_9  and  C_11
REMARK    3  A    between atoms: C_11  and  O_13
REMARK    4  A    between atoms: O_13  and  C_14
REMARK    5  A    between atoms: C_14  and  C_15
REMARK    6  A    between atoms: N_17  and  C_18
REMARK    7  A    between atoms: C_23  and  N_24
REMARK                            x       y       z     vdW  Elec       q    Type
REMARK                         _______ _______ _______ _____ _____    ______ ____
ROOT
ATOM      1  C   UNL     1      -1.146   2.728   7.332  0.00  0.00    +0.328 C 
ENDROOT
BRANCH   1   2
ATOM      2  C   UNL     1       0.045   2.401   8.195  0.00  0.00    +0.255 C 
ATOM      3  O   UNL     1       1.044   1.929   7.696  0.00  0.00    -0.272 OA
ATOM      4  N   UNL     1      -0.001   2.632   9.522  0.00  0.00    -0.281 N 
ATOM      5  H   UNL     1      -0.767   3.082   9.910  0.00  0.00    +0.155 HD
BRANCH   4   6
ATOM      6  C   UNL     1       1.058   2.221  10.341  0.00  0.00    +0.064 A 
ATOM      7  C   UNL     1       1.871   1.165   9.950  0.00  0.00    +0.028 A 
ATOM      8  C   UNL     1       2.914   0.761  10.759  0.00  0.00    +0.040 A 
ATOM      9  C   UNL     1       3.151   1.410  11.960  0.00  0.00    +0.126 A 
ATOM     10  C   UNL     1       2.342   2.462  12.352  0.00  0.00    +0.073 A 
ATOM     11  C   UNL     1       1.301   2.873  11.543  0.00  0.00    +0.150 A 
ATOM     12  F   UNL     1       4.173   1.014  12.750  0.00  0.00    -0.205 F 
BRANCH  11  13
ATOM     13  N   UNL     1       0.440   4.003  11.959  0.00  0.00    +0.058 N 
ATOM     14  O   UNL     1       0.707   4.632  12.968  0.00  0.00    -0.126 OA
ATOM     15  O   UNL     1      -0.534   4.304  11.293  0.00  0.00    -0.126 OA
ENDBRANCH  11  13
ENDBRANCH   4   6
ENDBRANCH   1   2
BRANCH   1  16
ATOM     16  O   UNL     1      -0.851   2.391   5.951  0.00  0.00    -0.451 OA
BRANCH  16  17
ATOM     17  C   UNL     1      -1.820   2.624   5.043  0.00  0.00    +0.346 C 
ATOM     18  O   UNL     1      -2.883   3.098   5.396  0.00  0.00    -0.244 OA
BRANCH  17  26
ATOM     19  C   UNL     1      -2.991   1.565  -2.364  0.00  0.00    +0.008 C 
ATOM     20  C   UNL     1      -2.257   1.315  -1.045  0.00  0.00    -0.009 C 
ATOM     21  C   UNL     1      -0.767   1.616  -1.228  0.00  0.00    +0.009 C 
ATOM     22  C   UNL     1      -0.006   1.108   0.005  0.00  0.00    +0.043 C 
ATOM     23  C   UNL     1      -0.722   1.584   1.232  0.00  0.00    -0.006 A 
ATOM     24  C   UNL     1      -1.990   2.090   1.300  0.00  0.00    -0.036 A 
ATOM     25  C   UNL     1      -2.443   2.469   2.553  0.00  0.00    +0.026 A 
ATOM     26  C   UNL     1      -1.592   2.308   3.631  0.00  0.00    +0.097 A 
ATOM     27  S   UNL     1      -0.143   1.616   2.853  0.00  0.00    -0.086 S 
ATOM     28  C   UNL     1      -2.842   2.220   0.040  0.00  0.00    +0.039 C 
ENDBRANCH  17  26
ENDBRANCH  16  17
ENDBRANCH   1  16
TORSDOF 6
