REMARK  Name = ZINC21949211
REMARK  6 active torsions:
REMARK  status: ('A' for Active; 'I' for Inactive)
REMARK    1  A    between atoms: C_1  and  C_2
REMARK    2  A    between atoms: C_5  and  N_8
REMARK    3  A    between atoms: C_10  and  C_16
REMARK    4  A    between atoms: C_11  and  C_13
REMARK    5  A    between atoms: C_13  and  O_14
REMARK    6  A    between atoms: O_14  and  C_15
REMARK                            x       y       z     vdW  Elec       q    Type
REMARK                         _______ _______ _______ _____ _____    ______ ____
ROOT
ATOM      1  N   UNL     1      -0.717   3.513   0.026  0.00  0.00    -0.220 N 
ATOM      2  C   UNL     1      -1.141   2.233   0.019  0.00  0.00    +0.150 A 
ATOM      3  C   UNL     1      -0.017   1.428   0.010  0.00  0.00    +0.114 A 
ATOM      4  C   UNL     1       1.109   2.282   0.004  0.00  0.00    +0.108 A 
ATOM      5  N   UNL     1       0.682   3.515   0.014  0.00  0.00    -0.166 NA
ATOM      6 CL   UNL     1      -2.792   1.696   0.024  0.00  0.00    -0.061 Cl
ENDROOT
BRANCH   1  11
ATOM      7  C   UNL     1      -4.045   8.110   0.077  0.00  0.00    +0.044 C 
ATOM      8  C   UNL     1      -3.161   6.889   0.064  0.00  0.00    -0.050 A 
ATOM      9  C   UNL     1      -1.955   6.903   0.740  0.00  0.00    +0.005 A 
ATOM     10  C   UNL     1      -1.143   5.785   0.730  0.00  0.00    +0.028 A 
ATOM     11  C   UNL     1      -1.539   4.648   0.039  0.00  0.00    +0.067 A 
ATOM     12  C   UNL     1      -2.747   4.639  -0.644  0.00  0.00    +0.028 A 
ATOM     13  C   UNL     1      -3.558   5.758  -0.625  0.00  0.00    +0.005 A 
ENDBRANCH   1  11
BRANCH   3  14
ATOM     14  C   UNL     1       0.002  -0.004   0.002  0.00  0.00    +0.104 C 
ATOM     15  N   UNL     1       0.018  -1.140  -0.004  0.00  0.00    -0.191 NA
ENDBRANCH   3  14
BRANCH   4  16
ATOM     16  C   UNL     1       2.551   1.845  -0.011  0.00  0.00    +0.218 C 
BRANCH  16  17
ATOM     17  O   UNL     1       2.994   1.713  -1.363  0.00  0.00    -0.377 OA
ATOM     18  C   UNL     1       4.357   1.300  -1.490  0.00  0.00    +0.194 C 
ENDBRANCH  16  17
ENDBRANCH   4  16
TORSDOF 4
