REMARK  Name = ZINC16943265
REMARK  8 active torsions:
REMARK  status: ('A' for Active; 'I' for Inactive)
REMARK    1  A    between atoms: C_1  and  O_2
REMARK    2  A    between atoms: O_2  and  C_3
REMARK    3  A    between atoms: C_5  and  C_11
REMARK    4  A    between atoms: C_8  and  O_9
REMARK    5  A    between atoms: C_12  and  C_13
REMARK    6  A    between atoms: C_12  and  C_15
REMARK    7  A    between atoms: C_17  and  C_20
REMARK    8  A    between atoms: C_24  and  N_26
REMARK                            x       y       z     vdW  Elec       q    Type
REMARK                         _______ _______ _______ _____ _____    ______ ____
ROOT
ATOM      1  C   UNL     1       1.823   9.648   0.035  0.00  0.00    +0.029 C 
ATOM      2  C   UNL     1       2.073   8.263  -0.105  0.00  0.00    +0.084 C 
ENDROOT
BRANCH   1   5
ATOM      3  C   UNL     1       3.815  12.730  -0.264  0.00  0.00    +0.163 A 
ATOM      4  C   UNL     1       2.767  11.862  -0.366  0.00  0.00    +0.057 A 
ATOM      5  C   UNL     1       2.894  10.546   0.136  0.00  0.00    -0.019 A 
ATOM      6  C   UNL     1       4.108  10.142   0.745  0.00  0.00    +0.027 A 
ATOM      7  C   UNL     1       5.146  11.017   0.835  0.00  0.00    +0.063 A 
ATOM      8  C   UNL     1       5.016  12.318   0.337  0.00  0.00    +0.173 A 
ATOM      9 BR   UNL     1       6.768  10.475   1.641  0.00  0.00    -0.046 Br
BRANCH   3  11
ATOM     10  C   UNL     1       2.447  14.348  -1.343  0.00  0.00    +0.277 C 
ATOM     11  O   UNL     1       3.696  13.995  -0.745  0.00  0.00    -0.491 OA
ENDBRANCH   3  11
BRANCH   8  12
ATOM     12  O   UNL     1       6.051  13.183   0.434  0.00  0.00    -0.503 OA
ATOM     13  H   UNL     1       6.052  13.705   1.248  0.00  0.00    +0.292 HD
ENDBRANCH   8  12
ENDBRANCH   1   5
BRANCH   2  14
ATOM     14  C   UNL     1       1.009   7.350  -0.057  0.00  0.00    +0.119 A 
ATOM     15  N   UNL     1       1.050   6.016  -0.164  0.00  0.00    -0.238 NA
ATOM     16  C   UNL     1      -0.036   5.308  -0.102  0.00  0.00    +0.079 A 
ATOM     17  C   UNL     1      -1.300   6.044   0.102  0.00  0.00    +0.075 A 
ATOM     18  S   UNL     1      -0.730   7.683   0.169  0.00  0.00    -0.074 S 
BRANCH  16  19
ATOM     19  C   UNL     1      -0.009   3.839  -0.224  0.00  0.00    +0.003 A 
ATOM     20  C   UNL     1      -1.199   3.104  -0.147  0.00  0.00    +0.010 A 
ATOM     21  C   UNL     1      -1.165   1.732  -0.268  0.00  0.00    +0.003 A 
ATOM     22  C   UNL     1       0.043   1.078  -0.453  0.00  0.00    +0.033 A 
ATOM     23  C   UNL     1       1.224   1.798  -0.530  0.00  0.00    +0.127 A 
ATOM     24  C   UNL     1       1.207   3.171  -0.417  0.00  0.00    +0.042 A 
BRANCH  23  25
ATOM     25  N   UNL     1       2.507   1.090  -0.734  0.00  0.00    +0.056 N 
ATOM     26  O   UNL     1       2.526  -0.223  -0.843  0.00  0.00    -0.126 OA
ATOM     27  O   UNL     1       3.631   1.772  -0.808  0.00  0.00    -0.126 OA
ENDBRANCH  23  25
ENDBRANCH  16  19
ENDBRANCH   2  14
BRANCH   2  28
ATOM     28  C   UNL     1       3.412   7.792  -0.295  0.00  0.00    +0.102 C 
ATOM     29  N   UNL     1       4.474   7.419  -0.447  0.00  0.00    -0.191 NA
ENDBRANCH   2  28
TORSDOF 7
