REMARK  Name = ZINC64093872
REMARK  7 active torsions:
REMARK  status: ('A' for Active; 'I' for Inactive)
REMARK    1  A    between atoms: C_1  and  O_2
REMARK    2  A    between atoms: O_2  and  C_3
REMARK    3  A    between atoms: C_3  and  C_4
REMARK    4  A    between atoms: C_7  and  C_9
REMARK    5  A    between atoms: C_24  and  C_26
REMARK    6  A    between atoms: C_30  and  O_32
REMARK    7  A    between atoms: O_32  and  C_33
REMARK                            x       y       z     vdW  Elec       q    Type
REMARK                         _______ _______ _______ _____ _____    ______ ____
ROOT
ATOM      1  C   UNL     1      -1.150  -6.250   0.382  0.00  0.00    +0.254 C 
ATOM      2  O   UNL     1      -0.552  -7.218  -0.051  0.00  0.00    -0.269 OA
ATOM      3  N   UNL     1      -1.912  -6.369   1.488  0.00  0.00    -0.287 N 
ATOM      4  C   UNL     1      -2.748  -5.242   1.916  0.00  0.00    +0.113 C 
ATOM      5  C   UNL     1      -2.369  -4.841   3.353  0.00  0.00    +0.052 C 
ATOM      6  C   UNL     1      -2.264  -6.120   4.146  0.00  0.00    -0.035 C 
ATOM      7  C   UNL     1      -2.818  -6.489   5.295  0.00  0.00    -0.001 A 
ATOM      8  C   UNL     1      -3.644  -5.753   6.265  0.00  0.00    +0.010 A 
ATOM      9  C   UNL     1      -4.068  -6.457   7.348  0.00  0.00    +0.001 A 
ATOM     10  C   UNL     1      -3.757  -7.804   7.559  0.00  0.00    +0.002 A 
ATOM     11  C   UNL     1      -2.997  -8.556   6.724  0.00  0.00    +0.026 A 
ATOM     12  C   UNL     1      -2.486  -7.923   5.554  0.00  0.00    +0.043 A 
ATOM     13  N   UNL     1      -1.724  -8.390   4.609  0.00  0.00    -0.375 N 
ATOM     14  C   UNL     1      -1.429  -7.304   3.674  0.00  0.00    +0.131 C 
ATOM     15  C   UNL     1      -1.901  -7.628   2.248  0.00  0.00    +0.133 C 
ATOM     16  H   UNL     1      -1.405  -9.304   4.537  0.00  0.00    +0.160 HD
ENDROOT
BRANCH  15  17
ATOM     17  C   UNL     1      -0.952  -8.605   1.603  0.00  0.00    -0.021 A 
ATOM     18  C   UNL     1       0.414  -8.425   1.726  0.00  0.00    +0.006 A 
ATOM     19  C   UNL     1       1.287  -9.320   1.136  0.00  0.00    +0.004 A 
ATOM     20  C   UNL     1       0.797 -10.396   0.421  0.00  0.00    +0.045 A 
ATOM     21  C   UNL     1      -0.572 -10.578   0.296  0.00  0.00    +0.120 A 
ATOM     22  C   UNL     1      -1.447  -9.683   0.894  0.00  0.00    +0.051 A 
BRANCH  21  23
ATOM     23  O   UNL     1      -1.057 -11.636  -0.407  0.00  0.00    -0.495 OA
ATOM     24  C   UNL     1      -0.098 -12.521  -0.991  0.00  0.00    +0.277 C 
ENDBRANCH  21  23
ENDBRANCH  15  17
BRANCH   1  28
ATOM     25  C   UNL     1      -0.918  -2.423  -1.017  0.00  0.00    +0.016 A 
ATOM     26  C   UNL     1      -0.780  -3.361  -1.987  0.00  0.00    +0.014 A 
ATOM     27  C   UNL     1      -0.839  -4.690  -1.643  0.00  0.00    +0.021 A 
ATOM     28  C   UNL     1      -1.041  -4.956  -0.298  0.00  0.00    +0.074 A 
ATOM     29  S   UNL     1      -1.126  -3.314   0.391  0.00  0.00    -0.086 S 
BRANCH  25  30
ATOM     30  C   UNL     1      -0.885  -0.924  -1.168  0.00  0.00    +0.201 C 
BRANCH  30  32
ATOM     31  C   UNL     1      -2.290   0.978  -1.566  0.00  0.00    +0.194 C 
ATOM     32  O   UNL     1      -2.209  -0.440  -1.407  0.00  0.00    -0.378 OA
ENDBRANCH  30  32
ENDBRANCH  25  30
ENDBRANCH   1  28
TORSDOF 5
