REMARK  Name = ZINC39537111
REMARK  4 active torsions:
REMARK  status: ('A' for Active; 'I' for Inactive)
REMARK    1  A    between atoms: C_1  and  C_2
REMARK    2  A    between atoms: C_2  and  C_3
REMARK    3  A    between atoms: C_2  and  N_4
REMARK    4  A    between atoms: C_9  and  C_12
REMARK                            x       y       z     vdW  Elec       q    Type
REMARK                         _______ _______ _______ _____ _____    ______ ____
ROOT
ATOM      1  N   UNL     1       0.711  -0.489   1.189  0.00  0.00    -0.230 N 
ATOM      2  C   UNL     1       0.191  -1.351   2.252  0.00  0.00    +0.212 C 
ATOM      3  C   UNL     1       0.980  -0.840   3.456  0.00  0.00    +0.094 C 
ATOM      4  N   UNL     1       0.211  -0.885   4.489  0.00  0.00    -0.260 NA
ATOM      5  C   UNL     1      -1.141  -1.319   4.101  0.00  0.00    +0.206 C 
ATOM      6  N   UNL     1      -1.214  -1.132   2.612  0.00  0.00    -0.267 NA
ATOM      7  C   UNL     1       2.229  -0.389   2.844  0.00  0.00    +0.156 C 
ATOM      8  N   UNL     1       2.049  -0.235   1.560  0.00  0.00    -0.189 NA
ATOM      9  H   UNL     1      -1.505  -0.194   2.380  0.00  0.00    +0.126 HD
ENDROOT
BRANCH   5  10
ATOM     10  C   UNL     1      -1.341  -2.773   4.442  0.00  0.00    +0.010 A 
ATOM     11  C   UNL     1      -2.081  -3.585   3.602  0.00  0.00    +0.011 A 
ATOM     12  C   UNL     1      -2.265  -4.918   3.914  0.00  0.00    +0.039 A 
ATOM     13  C   UNL     1      -1.709  -5.443   5.069  0.00  0.00    +0.125 A 
ATOM     14  C   UNL     1      -0.968  -4.630   5.910  0.00  0.00    +0.058 A 
ATOM     15  C   UNL     1      -0.780  -3.297   5.593  0.00  0.00    +0.050 A 
ATOM     16 CL   UNL     1       0.154  -2.279   6.644  0.00  0.00    -0.083 Cl
ATOM     17  F   UNL     1      -1.890  -6.746   5.374  0.00  0.00    -0.205 F 
ENDBRANCH   5  10
BRANCH   1  19
ATOM     18  C   UNL     1      -0.019   1.526   0.010  0.00  0.00    +0.029 C 
ATOM     19  C   UNL     1       0.002  -0.004   0.002  0.00  0.00    +0.089 C 
ATOM     20  C   UNL     1       0.718  -0.497  -1.257  0.00  0.00    +0.029 C 
ENDBRANCH   1  19
TORSDOF 2
