REMARK  Name = ZINC14549610
REMARK  3 active torsions:
REMARK  status: ('A' for Active; 'I' for Inactive)
REMARK    1  A    between atoms: C_1  and  C_2
REMARK    2  A    between atoms: C_3  and  N_25
REMARK    3  A    between atoms: C_9  and  C_18
REMARK                            x       y       z     vdW  Elec       q    Type
REMARK                         _______ _______ _______ _____ _____    ______ ____
ROOT
ATOM      1  C   UNL     1       3.229   0.709   3.806  0.00  0.00    +0.048 C 
ATOM      2  C   UNL     1       2.135  -0.073   3.128  0.00  0.00    +0.001 A 
ATOM      3  C   UNL     1       1.511  -1.098   3.805  0.00  0.00    +0.131 A 
ATOM      4  C   UNL     1       0.506  -1.825   3.195  0.00  0.00    +0.033 A 
ATOM      5  C   UNL     1       0.133  -1.522   1.899  0.00  0.00    +0.008 A 
ATOM      6  C   UNL     1       0.755  -0.501   1.212  0.00  0.00    -0.019 A 
ATOM      7  C   UNL     1       1.765   0.249   1.821  0.00  0.00    +0.036 A 
ATOM      8  N   UNL     1       2.426   1.311   1.208  0.00  0.00    -0.336 N 
ATOM      9  C   UNL     1       2.079   1.585  -0.213  0.00  0.00    +0.105 C 
ATOM     10  C   UNL     1       0.584   1.379  -0.331  0.00  0.00    +0.029 C 
ATOM     11  C   UNL     1       0.385  -0.161  -0.179  0.00  0.00    +0.049 C 
ATOM     12  C   UNL     1      -0.986  -0.376  -0.703  0.00  0.00    -0.023 C 
ATOM     13  C   UNL     1      -1.248   0.568  -1.600  0.00  0.00    -0.030 C 
ATOM     14  C   UNL     1      -0.057   1.523  -1.716  0.00  0.00    +0.033 C 
ATOM     15  H   UNL     1       3.425   1.230   1.323  0.00  0.00    +0.147 HD
ENDROOT
BRANCH   9  16
ATOM     16  C   UNL     1       2.432   3.008  -0.563  0.00  0.00    -0.027 A 
ATOM     17  C   UNL     1       2.255   4.012   0.370  0.00  0.00    +0.008 A 
ATOM     18  C   UNL     1       2.582   5.317   0.052  0.00  0.00    +0.038 A 
ATOM     19  C   UNL     1       3.077   5.619  -1.205  0.00  0.00    +0.123 A 
ATOM     20  C   UNL     1       3.248   4.613  -2.141  0.00  0.00    +0.038 A 
ATOM     21  C   UNL     1       2.926   3.308  -1.819  0.00  0.00    +0.008 A 
ATOM     22  F   UNL     1       3.393   6.895  -1.519  0.00  0.00    -0.205 F 
ENDBRANCH   9  16
BRANCH   3  23
ATOM     23  N   UNL     1       1.918  -1.421   5.190  0.00  0.00    +0.057 N 
ATOM     24  O   UNL     1       1.940  -2.580   5.564  0.00  0.00    -0.126 OA
ATOM     25  O   UNL     1       2.232  -0.528   5.957  0.00  0.00    -0.126 OA
ENDBRANCH   3  23
TORSDOF 2
