REMARK  Name = ZINC34812522
REMARK  3 active torsions:
REMARK  status: ('A' for Active; 'I' for Inactive)
REMARK    1  A    between atoms: C_1  and  C_2
REMARK    2  A    between atoms: C_12  and  C_17
REMARK    3  A    between atoms: C_22  and  C_25
REMARK                            x       y       z     vdW  Elec       q    Type
REMARK                         _______ _______ _______ _____ _____    ______ ____
ROOT
ATOM      1  C   UNL     1       0.825   1.699   0.571  0.00  0.00    +0.044 C 
ATOM      2  C   UNL     1       0.626   0.218   0.378  0.00  0.00    -0.050 A 
ATOM      3  C   UNL     1       0.634  -0.318  -0.898  0.00  0.00    +0.007 A 
ATOM      4  C   UNL     1       0.465  -1.678  -1.084  0.00  0.00    +0.047 A 
ATOM      5  C   UNL     1       0.280  -2.511   0.007  0.00  0.00    +0.139 A 
ATOM      6  C   UNL     1       0.250  -1.972   1.297  0.00  0.00    +0.057 A 
ATOM      7  C   UNL     1       0.443  -0.600   1.474  0.00  0.00    +0.018 A 
ATOM      8  C   UNL     1      -0.010  -2.832   2.462  0.00  0.00    +0.133 C 
ATOM      9  N   UNL     1       0.439  -4.029   2.620  0.00  0.00    -0.228 NA
ATOM     10  C   UNL     1       1.250  -4.718   1.768  0.00  0.00    +0.108 A 
ATOM     11  C   UNL     1       2.276  -5.505   2.300  0.00  0.00    +0.035 A 
ATOM     12  C   UNL     1       3.093  -6.238   1.464  0.00  0.00    -0.048 A 
ATOM     13  C   UNL     1       2.901  -6.198   0.095  0.00  0.00    +0.007 A 
ATOM     14  C   UNL     1       1.897  -5.413  -0.443  0.00  0.00    +0.049 A 
ATOM     15  C   UNL     1       1.079  -4.662   0.384  0.00  0.00    +0.154 A 
ATOM     16  O   UNL     1       0.147  -3.847  -0.176  0.00  0.00    -0.453 OA
ATOM     17  C   UNL     1       4.199  -7.082   2.043  0.00  0.00    +0.044 C 
ATOM     18  N   UNL     1      -0.797  -2.316   3.466  0.00  0.00    -0.318 N 
ATOM     19  C   UNL     1      -1.480  -1.023   3.302  0.00  0.00    +0.087 C 
ATOM     20  C   UNL     1      -2.957  -1.204   3.667  0.00  0.00    -0.063 C 
ATOM     21  N   UNL     1      -3.060  -1.777   5.015  0.00  0.00    +0.383 N 
ATOM     22  C   UNL     1      -2.481  -3.127   5.030  0.00  0.00    -0.057 C 
ATOM     23  C   UNL     1      -0.985  -3.043   4.730  0.00  0.00    +0.090 C 
ATOM     24  C   UNL     1      -2.693  -3.757   6.408  0.00  0.00    -0.012 C 
ATOM     25  H   UNL     1      -2.561  -1.191   5.668  0.00  0.00    -0.085 HD
ATOM     26  H   UNL     1      -4.031  -1.826   5.285  0.00  0.00    -0.085 HD
ENDROOT
TORSDOF 0
