REMARK  Name = ZINC11124608
REMARK  5 active torsions:
REMARK  status: ('A' for Active; 'I' for Inactive)
REMARK    1  A    between atoms: C_1  and  N_2
REMARK    2  A    between atoms: C_4  and  C_7
REMARK    3  A    between atoms: N_11  and  C_19
REMARK    4  A    between atoms: C_13  and  C_14
REMARK    5  A    between atoms: C_13  and  C_16
REMARK                            x       y       z     vdW  Elec       q    Type
REMARK                         _______ _______ _______ _____ _____    ______ ____
ROOT
ATOM      1  C   UNL     1      -3.938   1.362   3.996  0.00  0.00    +0.031 C 
ATOM      2  C   UNL     1      -3.829   2.369   4.902  0.00  0.00    +0.080 A 
ATOM      3  C   UNL     1      -4.888   3.107   5.611  0.00  0.00    +0.270 A 
ATOM      4  O   UNL     1      -6.067   2.856   5.433  0.00  0.00    -0.266 OA
ATOM      5  N   UNL     1      -4.502   4.050   6.452  0.00  0.00    -0.269 N 
ATOM      6  C   UNL     1      -3.169   4.324   6.636  0.00  0.00    +0.116 A 
ATOM      7  C   UNL     1      -2.585   5.280   7.472  0.00  0.00    +0.159 C 
ATOM      8  S   UNL     1      -2.363   3.161   5.548  0.00  0.00    -0.064 S 
ENDROOT
BRANCH   1  12
ATOM      9  C   UNL     1      -0.882  -1.495   1.267  0.00  0.00    +0.172 C 
ATOM     10  N   UNL     1      -1.389  -0.488   2.202  0.00  0.00    -0.274 N 
ATOM     11  C   UNL     1      -2.685  -0.249   2.473  0.00  0.00    +0.116 A 
ATOM     12  C   UNL     1      -2.730   0.772   3.406  0.00  0.00    +0.014 A 
ATOM     13  C   UNL     1      -1.393   1.145   3.679  0.00  0.00    +0.142 A 
ATOM     14  N   UNL     1      -0.608   0.391   2.960  0.00  0.00    -0.179 NA
ENDBRANCH   1  12
BRANCH   5  15
ATOM     15  C   UNL     1      -5.464   4.783   7.160  0.00  0.00    +0.051 A 
ATOM     16  C   UNL     1      -5.939   4.314   8.377  0.00  0.00    +0.026 A 
ATOM     17  C   UNL     1      -6.883   5.042   9.075  0.00  0.00    +0.002 A 
ATOM     18  C   UNL     1      -7.364   6.231   8.557  0.00  0.00    +0.000 A 
ATOM     19  C   UNL     1      -6.896   6.698   7.342  0.00  0.00    +0.002 A 
ATOM     20  C   UNL     1      -5.948   5.977   6.642  0.00  0.00    +0.026 A 
ENDBRANCH   5  15
BRANCH   7  21
ATOM     21  C   UNL     1      -1.169   5.493   7.437  0.00  0.00    +0.113 C 
ATOM     22  N   UNL     1      -0.046   5.662   7.409  0.00  0.00    -0.190 NA
ENDBRANCH   7  21
BRANCH   7  23
ATOM     23  C   UNL     1      -3.402   6.046   8.364  0.00  0.00    +0.113 C 
ATOM     24  N   UNL     1      -4.051   6.654   9.072  0.00  0.00    -0.190 NA
ENDBRANCH   7  23
TORSDOF 4
