REMARK  Name = ZINC00390928
REMARK  8 active torsions:
REMARK  status: ('A' for Active; 'I' for Inactive)
REMARK    1  A    between atoms: C_1  and  C_2
REMARK    2  A    between atoms: C_2  and  C_4
REMARK    3  A    between atoms: C_2  and  C_14
REMARK    4  A    between atoms: C_8  and  C_12
REMARK    5  A    between atoms: C_8  and  C_13
REMARK    6  A    between atoms: C_15  and  O_23
REMARK    7  A    between atoms: C_17  and  C_21
REMARK    8  A    between atoms: C_17  and  C_22
REMARK                            x       y       z     vdW  Elec       q    Type
REMARK                         _______ _______ _______ _____ _____    ______ ____
ROOT
ATOM      1  C   UNL     1      -2.084   1.834  -1.288  0.00  0.00    +0.014 C 
ATOM      2  C   UNL     1      -1.340   2.120   0.018  0.00  0.00    +0.047 C 
ENDROOT
BRANCH   2   3
ATOM      3  C   UNL     1      -2.178   1.630   1.200  0.00  0.00    +0.213 C 
ATOM      4  C   UNL     1      -3.490   2.390   1.255  0.00  0.00    +0.325 C 
ATOM      5  O   UNL     1      -4.524   1.891   0.878  0.00  0.00    -0.250 OA
ATOM      6  O   UNL     1      -3.451   3.650   1.745  0.00  0.00    -0.422 OA
ATOM      7  C   UNL     1      -2.782   3.803   3.029  0.00  0.00    +0.254 C 
ATOM      8  O   UNL     1      -1.467   3.180   2.958  0.00  0.00    -0.422 OA
ATOM      9  C   UNL     1      -1.450   1.907   2.502  0.00  0.00    +0.325 C 
ATOM     10  O   UNL     1      -0.879   1.030   3.105  0.00  0.00    -0.250 OA
ATOM     11  C   UNL     1      -3.610   3.126   4.123  0.00  0.00    +0.104 C 
ATOM     12  C   UNL     1      -2.626   5.290   3.353  0.00  0.00    +0.104 C 
ENDBRANCH   2   3
BRANCH   2  13
ATOM     13  C   UNL     1      -0.015   1.401   0.009  0.00  0.00    +0.036 C 
ATOM     14  C   UNL     1       1.121   2.120   0.048  0.00  0.00    +0.101 C 
ATOM     15  C   UNL     1       2.469   1.451   0.029  0.00  0.00    +0.080 C 
ATOM     16  C   UNL     1       2.364   0.072   0.686  0.00  0.00    -0.021 C 
ATOM     17  C   UNL     1       1.307  -0.751  -0.058  0.00  0.00    +0.086 C 
ATOM     18  C   UNL     1       0.001  -0.000  -0.046  0.00  0.00    +0.163 C 
ATOM     19  O   UNL     1      -1.047  -0.614  -0.085  0.00  0.00    -0.292 OA
ATOM     20  C   UNL     1       1.951   0.231   2.151  0.00  0.00    +0.012 C 
ATOM     21  C   UNL     1       3.716  -0.640   0.609  0.00  0.00    +0.012 C 
BRANCH  14  22
ATOM     22  O   UNL     1       1.050   3.463   0.106  0.00  0.00    -0.511 OA
ATOM     23  H   UNL     1       1.975   3.845   0.130  0.00  0.00    +0.292 HD
ENDBRANCH  14  22
ENDBRANCH   2  13
TORSDOF 3
