REMARK  Name = ZINC41647314
REMARK  6 active torsions:
REMARK  status: ('A' for Active; 'I' for Inactive)
REMARK    1  A    between atoms: C_1  and  C_2
REMARK    2  A    between atoms: C_11  and  C_12
REMARK    3  A    between atoms: N_21  and  C_24
REMARK    4  A    between atoms: C_24  and  C_25
REMARK    5  A    between atoms: C_25  and  C_26
REMARK    6  A    between atoms: C_25  and  C_27
REMARK                            x       y       z     vdW  Elec       q    Type
REMARK                         _______ _______ _______ _____ _____    ______ ____
ROOT
ATOM      1  C   UNL     1      -0.082   1.509   0.016  0.00  0.00    +0.045 C 
ATOM      2  C   UNL     1      -0.072   0.003   0.006  0.00  0.00    -0.033 A 
ATOM      3  C   UNL     1      -0.095  -0.674  -1.180  0.00  0.00    +0.050 A 
ATOM      4  C   UNL     1      -0.085  -2.068  -1.196  0.00  0.00    +0.131 A 
ATOM      5  C   UNL     1      -0.051  -2.782  -0.010  0.00  0.00    +0.051 A 
ATOM      6  C   UNL     1      -0.031  -2.108   1.206  0.00  0.00    +0.148 A 
ATOM      7  C   UNL     1      -0.034  -0.705   1.208  0.00  0.00    +0.071 A 
ATOM      8  C   UNL     1       0.002  -0.290   2.622  0.00  0.00    +0.232 C 
ATOM      9  O   UNL     1       0.007   0.844   3.067  0.00  0.00    -0.283 OA
ATOM     10  C   UNL     1       0.030  -1.554   3.376  0.00  0.00    +0.176 C 
ATOM     11  C   UNL     1       0.069  -1.682   4.725  0.00  0.00    +0.058 C 
ATOM     12  O   UNL     1      -0.000  -2.566   2.477  0.00  0.00    -0.451 OA
ATOM     13  C   UNL     1      -0.032  -4.289  -0.015  0.00  0.00    +0.130 C 
ATOM     14  N   UNL     1      -0.468  -4.784  -1.328  0.00  0.00    -0.266 NA
ATOM     15  C   UNL     1       0.266  -4.090  -2.400  0.00  0.00    +0.318 C 
ATOM     16  O   UNL     1      -0.112  -2.712  -2.393  0.00  0.00    -0.476 OA
ENDROOT
BRANCH  11  17
ATOM     17  C   UNL     1      -0.019  -3.014   5.340  0.00  0.00    -0.019 A 
ATOM     18  C   UNL     1      -0.116  -3.142   6.731  0.00  0.00    +0.008 A 
ATOM     19  C   UNL     1      -0.197  -4.394   7.301  0.00  0.00    +0.003 A 
ATOM     20  C   UNL     1      -0.183  -5.525   6.503  0.00  0.00    +0.038 A 
ATOM     21  C   UNL     1      -0.087  -5.409   5.125  0.00  0.00    +0.124 A 
ATOM     22  C   UNL     1      -0.011  -4.160   4.538  0.00  0.00    +0.046 A 
ATOM     23  F   UNL     1      -0.074  -6.518   4.353  0.00  0.00    -0.205 F 
ENDBRANCH  11  17
BRANCH  14  24
ATOM     24  C   UNL     1      -0.294  -6.239  -1.427  0.00  0.00    +0.091 C 
BRANCH  24  25
ATOM     25  C   UNL     1      -0.981  -6.750  -2.695  0.00  0.00    -0.003 C 
ATOM     26  C   UNL     1      -0.695  -8.243  -2.864  0.00  0.00    +0.008 C 
ATOM     27  C   UNL     1      -2.491  -6.529  -2.581  0.00  0.00    +0.008 C 
ENDBRANCH  24  25
ENDBRANCH  14  24
TORSDOF 3
