REMARK  Name = ZINC54876237
REMARK  8 active torsions:
REMARK  status: ('A' for Active; 'I' for Inactive)
REMARK    1  A    between atoms: C_1  and  C_2
REMARK    2  A    between atoms: C_2  and  C_3
REMARK    3  A    between atoms: C_3  and  C_5
REMARK    4  A    between atoms: C_3  and  N_6
REMARK    5  A    between atoms: C_7  and  C_9
REMARK    6  A    between atoms: C_12  and  N_15
REMARK    7  A    between atoms: C_16  and  C_18
REMARK    8  A    between atoms: C_28  and  C_30
REMARK                            x       y       z     vdW  Elec       q    Type
REMARK                         _______ _______ _______ _____ _____    ______ ____
ROOT
ATOM      1  N   UNL     1       8.297   1.453   1.923  0.00  0.00    -0.278 N 
ATOM      2  C   UNL     1       8.716   2.356   1.016  0.00  0.00    +0.303 C 
ATOM      3  O   UNL     1       7.908   2.947   0.329  0.00  0.00    -0.265 OA
ATOM      4  H   UNL     1       8.931   1.054   2.539  0.00  0.00    +0.155 HD
ENDROOT
BRANCH   2   5
ATOM      5  C   UNL     1      10.176   2.630   0.854  0.00  0.00    +0.302 C 
ATOM      6  O   UNL     1      10.975   2.132   1.619  0.00  0.00    -0.265 OA
ATOM      7  N   UNL     1      10.605   3.431  -0.142  0.00  0.00    -0.287 N 
ATOM      8  C   UNL     1      12.016   3.836  -0.217  0.00  0.00    +0.114 C 
ATOM      9  C   UNL     1      12.623   3.236  -1.495  0.00  0.00    +0.062 C 
ATOM     10  C   UNL     1      11.649   3.409  -2.615  0.00  0.00    -0.004 A 
ATOM     11  C   UNL     1      10.323   3.703  -2.532  0.00  0.00    -0.017 A 
ATOM     12  C   UNL     1       9.628   3.803  -3.736  0.00  0.00    +0.013 A 
ATOM     13  C   UNL     1      10.275   3.615  -4.908  0.00  0.00    +0.046 A 
ATOM     14  S   UNL     1      11.942   3.279  -4.359  0.00  0.00    -0.101 S 
ATOM     15  C   UNL     1       9.670   3.906  -1.171  0.00  0.00    +0.104 C 
ATOM     16  C   UNL     1       9.377   5.393  -0.958  0.00  0.00    +0.033 C 
ENDBRANCH   2   5
BRANCH   1  20
ATOM     17  C   UNL     1       4.278   0.373   2.084  0.00  0.00    +0.037 A 
ATOM     18  C   UNL     1       4.866   0.704   0.860  0.00  0.00    +0.015 A 
ATOM     19  C   UNL     1       6.195   1.060   0.810  0.00  0.00    +0.024 A 
ATOM     20  C   UNL     1       6.953   1.092   1.977  0.00  0.00    +0.034 A 
ATOM     21  C   UNL     1       6.370   0.763   3.198  0.00  0.00    +0.024 A 
ATOM     22  C   UNL     1       5.041   0.411   3.255  0.00  0.00    +0.015 A 
BRANCH  17  24
ATOM     23  N   UNL     1       2.120  -0.045   1.011  0.00  0.00    -0.309 N 
ATOM     24  C   UNL     1       2.854  -0.009   2.141  0.00  0.00    +0.244 C 
ATOM     25  O   UNL     1       2.342  -0.292   3.207  0.00  0.00    -0.270 OA
ATOM     26  H   UNL     1       2.528   0.180   0.160  0.00  0.00    +0.149 HD
BRANCH  23  27
ATOM     27  C   UNL     1       0.706  -0.425   1.068  0.00  0.00    +0.070 C 
ATOM     28  C   UNL     1       0.585  -1.949   1.021  0.00  0.00    +0.028 C 
BRANCH  27  30
ATOM     29  C   UNL     1      -0.019   1.708  -0.013  0.00  0.00    +0.005 C 
ATOM     30  C   UNL     1      -0.033   0.182  -0.126  0.00  0.00    +0.018 C 
ENDBRANCH  27  30
ENDBRANCH  23  27
ENDBRANCH  17  24
ENDBRANCH   1  20
TORSDOF 5
