REMARK  Name = ZINC00434957
REMARK  2 active torsions:
REMARK  status: ('A' for Active; 'I' for Inactive)
REMARK    1  A    between atoms: C_4  and  O_20
REMARK    2  A    between atoms: C_5  and  N_7
REMARK                            x       y       z     vdW  Elec       q    Type
REMARK                         _______ _______ _______ _____ _____    ______ ____
ROOT
ATOM      1  N   UNL     1       1.158   3.490   0.009  0.00  0.00    -0.199 N 
ATOM      2  C   UNL     1       1.145   4.257  -1.096  0.00  0.00    +0.260 C 
ATOM      3  O   UNL     1       1.146   3.851  -2.241  0.00  0.00    -0.269 OA
ATOM      4  C   UNL     1       1.126   5.676  -0.685  0.00  0.00    +0.069 A 
ATOM      5  C   UNL     1       1.106   6.882  -1.368  0.00  0.00    +0.054 A 
ATOM      6  C   UNL     1       1.099   8.075  -0.657  0.00  0.00    +0.022 A 
ATOM      7  C   UNL     1       1.112   8.068   0.723  0.00  0.00    +0.022 A 
ATOM      8  C   UNL     1       1.132   6.868   1.421  0.00  0.00    +0.054 A 
ATOM      9  C   UNL     1       1.139   5.669   0.726  0.00  0.00    +0.069 A 
ATOM     10  C   UNL     1       1.160   4.246   1.122  0.00  0.00    +0.260 C 
ATOM     11  O   UNL     1       1.175   3.828   2.263  0.00  0.00    -0.269 OA
ATOM     12 CL   UNL     1       1.147   6.870   3.157  0.00  0.00    -0.083 Cl
ATOM     13 CL   UNL     1       1.090   6.901  -3.104  0.00  0.00    -0.083 Cl
ENDROOT
BRANCH   1  18
ATOM     14  C   UNL     1       0.002  -0.004   0.002  0.00  0.00    +0.002 A 
ATOM     15  C   UNL     1       1.207  -0.682  -0.014  0.00  0.00    +0.004 A 
ATOM     16  C   UNL     1       2.399   0.018  -0.021  0.00  0.00    +0.047 A 
ATOM     17  C   UNL     1       2.388   1.403  -0.013  0.00  0.00    +0.139 A 
ATOM     18  C   UNL     1       1.175   2.087   0.002  0.00  0.00    +0.086 A 
ATOM     19  C   UNL     1      -0.017   1.378   0.010  0.00  0.00    +0.027 A 
BRANCH  17  20
ATOM     20  O   UNL     1       3.559   2.094  -0.019  0.00  0.00    -0.505 OA
ATOM     21  H   UNL     1       3.890   2.299  -0.905  0.00  0.00    +0.292 HD
ENDBRANCH  17  20
ENDBRANCH   1  18
TORSDOF 2
