REMARK  Name = ZINC57406013
REMARK  6 active torsions:
REMARK  status: ('A' for Active; 'I' for Inactive)
REMARK    1  A    between atoms: C_1  and  C_2
REMARK    2  A    between atoms: C_15  and  C_17
REMARK    3  A    between atoms: C_17  and  C_19
REMARK    4  A    between atoms: C_17  and  N_20
REMARK    5  A    between atoms: C_22  and  C_29
REMARK    6  A    between atoms: C_25  and  C_28
REMARK                            x       y       z     vdW  Elec       q    Type
REMARK                         _______ _______ _______ _____ _____    ______ ____
ROOT
ATOM      1  C   UNL     1      -0.019   1.526   0.010  0.00  0.00    +0.008 C 
ATOM      2  C   UNL     1       0.002  -0.004   0.002  0.00  0.00    -0.009 C 
ATOM      3  C   UNL     1      -1.433  -0.537   0.021  0.00  0.00    +0.008 C 
ATOM      4  C   UNL     1      -1.430  -2.044  -0.237  0.00  0.00    +0.037 C 
ATOM      5  C   UNL     1      -0.472  -2.712   0.745  0.00  0.00    -0.023 A 
ATOM      6  C   UNL     1       0.476  -1.985   1.383  0.00  0.00    -0.004 A 
ATOM      7  S   UNL     1       1.343  -3.148   2.406  0.00  0.00    -0.073 S 
ATOM      8  C   UNL     1       0.437  -4.601   1.978  0.00  0.00    +0.116 A 
ATOM      9  C   UNL     1      -0.517  -4.131   1.048  0.00  0.00    +0.075 A 
ATOM     10  C   UNL     1      -1.426  -5.099   0.502  0.00  0.00    +0.260 A 
ATOM     11  O   UNL     1      -2.286  -4.796  -0.308  0.00  0.00    -0.267 OA
ATOM     12  N   UNL     1      -1.267  -6.369   0.944  0.00  0.00    -0.309 N 
ATOM     13  H   UNL     1      -1.860  -7.056   0.601  0.00  0.00    +0.170 HD
ATOM     14  C   UNL     1      -0.319  -6.726   1.843  0.00  0.00    +0.128 A 
ATOM     15  N   UNL     1       0.532  -5.869   2.365  0.00  0.00    -0.225 NA
ATOM     16  C   UNL     1       0.737  -0.516   1.249  0.00  0.00    +0.046 C 
ENDROOT
BRANCH  14  17
ATOM     17  C   UNL     1      -0.234  -8.170   2.263  0.00  0.00    +0.120 C 
ATOM     18  C   UNL     1      -1.595  -8.629   2.789  0.00  0.00    +0.032 C 
BRANCH  17  19
ATOM     19  N   UNL     1       0.774  -8.314   3.323  0.00  0.00    -0.288 NA
ATOM     20  C   UNL     1       0.350  -7.623   4.550  0.00  0.00    +0.116 C 
ATOM     21  C   UNL     1       1.452  -7.747   5.605  0.00  0.00    +0.130 C 
ATOM     22  O   UNL     1       1.735  -9.130   5.832  0.00  0.00    -0.371 OA
ATOM     23  C   UNL     1       2.151  -9.833   4.658  0.00  0.00    +0.130 C 
ATOM     24  C   UNL     1       1.056  -9.731   3.593  0.00  0.00    +0.116 C 
ATOM     25  C   UNL     1       2.394 -11.304   5.003  0.00  0.00    +0.039 C 
ATOM     26  C   UNL     1       0.985  -7.099   6.910  0.00  0.00    +0.039 C 
ENDBRANCH  17  19
ENDBRANCH  14  17
TORSDOF 2
