REMARK  Name = ZINC65116152
REMARK  8 active torsions:
REMARK  status: ('A' for Active; 'I' for Inactive)
REMARK    1  A    between atoms: C_1  and  C_2
REMARK    2  A    between atoms: N_6  and  C_8
REMARK    3  A    between atoms: C_8  and  C_9
REMARK    4  A    between atoms: C_9  and  C_10
REMARK    5  A    between atoms: C_9  and  N_11
REMARK    6  A    between atoms: C_12  and  C_14
REMARK    7  A    between atoms: N_16  and  N_17
REMARK    8  A    between atoms: N_17  and  C_18
REMARK                            x       y       z     vdW  Elec       q    Type
REMARK                         _______ _______ _______ _____ _____    ______ ____
ROOT
ATOM      1  N   UNL     1       2.250  -4.358   1.016  0.00  0.00    -0.307 N 
ATOM      2  C   UNL     1       2.013  -5.581   0.502  0.00  0.00    +0.301 C 
ATOM      3  O   UNL     1       1.323  -6.372   1.111  0.00  0.00    -0.265 OA
ATOM      4  H   UNL     1       2.802  -3.726   0.530  0.00  0.00    +0.149 HD
ENDROOT
BRANCH   2   5
ATOM      5  C   UNL     1       2.602  -5.964  -0.817  0.00  0.00    +0.315 C 
ATOM      6  O   UNL     1       3.292  -5.173  -1.426  0.00  0.00    -0.264 OA
ATOM      7  N   UNL     1       2.365  -7.187  -1.331  0.00  0.00    -0.229 N 
ATOM      8  H   UNL     1       1.813  -7.819  -0.845  0.00  0.00    +0.173 HD
BRANCH   7   9
ATOM      9  N   UNL     1       2.916  -7.545  -2.568  0.00  0.00    -0.263 N 
ATOM     10  H   UNL     1       3.468  -6.913  -3.055  0.00  0.00    +0.170 HD
BRANCH   9  11
ATOM     11  C   UNL     1       2.671  -8.815  -3.102  0.00  0.00    +0.063 A 
ATOM     12  C   UNL     1       1.877  -9.719  -2.409  0.00  0.00    +0.027 A 
ATOM     13  C   UNL     1       1.636 -10.972  -2.938  0.00  0.00    +0.022 A 
ATOM     14  C   UNL     1       2.186 -11.327  -4.157  0.00  0.00    +0.042 A 
ATOM     15  C   UNL     1       2.978 -10.429  -4.850  0.00  0.00    +0.042 A 
ATOM     16  C   UNL     1       3.217  -9.172  -4.329  0.00  0.00    +0.065 A 
ATOM     17 CL   UNL     1       4.205  -8.042  -5.202  0.00  0.00    -0.082 Cl
ATOM     18 CL   UNL     1       1.882 -12.903  -4.818  0.00  0.00    -0.083 Cl
ENDBRANCH   9  11
ENDBRANCH   7   9
ENDBRANCH   2   5
BRANCH   1  19
ATOM     19  C   UNL     1       1.673  -3.983   2.310  0.00  0.00    +0.054 C 
ATOM     20  C   UNL     1       2.587  -4.472   3.436  0.00  0.00    +0.026 C 
BRANCH  19  21
ATOM     21  C   UNL     1       1.539  -2.461   2.387  0.00  0.00    -0.057 C 
BRANCH  21  27
ATOM     22  C   UNL     1      -0.019   1.526   0.010  0.00  0.00    +0.005 C 
ATOM     23  C   UNL     1       0.002  -0.004   0.002  0.00  0.00    -0.031 C 
ATOM     24  C   UNL     1      -1.434  -0.535   0.018  0.00  0.00    -0.001 C 
ATOM     25  C   UNL     1      -1.402  -2.064   0.089  0.00  0.00    -0.018 C 
ATOM     26  C   UNL     1      -0.610  -2.496   1.325  0.00  0.00    -0.079 C 
ATOM     27  N   UNL     1       0.761  -1.980   1.237  0.00  0.00    +0.381 N 
ATOM     28  C   UNL     1       0.742  -0.512   1.241  0.00  0.00    -0.076 C 
ATOM     29  H   UNL     1       1.189  -2.307   0.384  0.00  0.00    -0.082 HD
ENDBRANCH  21  27
ENDBRANCH  19  21
ENDBRANCH   1  19
TORSDOF 6
