REMARK  Name = ZINC38970858
REMARK  6 active torsions:
REMARK  status: ('A' for Active; 'I' for Inactive)
REMARK    1  A    between atoms: C_1  and  C_2
REMARK    2  A    between atoms: C_4  and  C_8
REMARK    3  A    between atoms: C_12  and  S_26
REMARK    4  A    between atoms: N_14  and  N_15
REMARK    5  A    between atoms: C_16  and  C_17
REMARK    6  A    between atoms: C_18  and  C_19
REMARK                            x       y       z     vdW  Elec       q    Type
REMARK                         _______ _______ _______ _____ _____    ______ ____
ROOT
ATOM      1  C   UNL     1      -0.948  -2.907  -0.706  0.00  0.00    +0.206 C 
ATOM      2  N   UNL     1      -2.410  -2.903  -0.472  0.00  0.00    -0.231 NA
ATOM      3  N   UNL     1      -2.848  -4.248  -0.878  0.00  0.00    -0.225 NA
ATOM      4  C   UNL     1      -1.734  -5.116  -0.414  0.00  0.00    +0.231 C 
ATOM      5  N   UNL     1      -0.518  -4.316  -0.669  0.00  0.00    -0.207 N 
ATOM      6  H   UNL     1      -2.620  -2.732   0.500  0.00  0.00    +0.143 HD
ATOM      7  H   UNL     1      -3.714  -4.498  -0.425  0.00  0.00    +0.143 HD
ENDROOT
BRANCH   1  11
ATOM      8  C   UNL     1       0.283   1.569   0.139  0.00  0.00    +0.067 C 
ATOM      9  C   UNL     1       0.294   0.063   0.193  0.00  0.00    +0.058 C 
ATOM     10  C   UNL     1      -0.772  -0.694   0.461  0.00  0.00    +0.029 C 
ATOM     11  C   UNL     1      -0.239  -2.114   0.394  0.00  0.00    +0.190 C 
ATOM     12  N   UNL     1       1.183  -1.918   0.067  0.00  0.00    -0.177 NA
ATOM     13  N   UNL     1       1.384  -0.705  -0.030  0.00  0.00    -0.159 NA
ENDBRANCH   1  11
BRANCH   5  14
ATOM     14  N   UNL     1       0.785  -4.801  -0.841  0.00  0.00    -0.188 NA
ATOM     15  C   UNL     1       1.017  -6.080  -0.782  0.00  0.00    +0.145 C 
BRANCH  15  16
ATOM     16  C   UNL     1       2.376  -6.586  -0.961  0.00  0.00    +0.038 C 
ATOM     17  C   UNL     1       2.617  -7.912  -0.900  0.00  0.00    +0.024 C 
ATOM     18 BR   UNL     1       3.799  -5.381  -1.279  0.00  0.00    -0.049 Br
BRANCH  17  19
ATOM     19  C   UNL     1       4.001  -8.411  -0.915  0.00  0.00    -0.024 A 
ATOM     20  C   UNL     1       5.015  -7.689  -0.277  0.00  0.00    +0.008 A 
ATOM     21  C   UNL     1       6.310  -8.162  -0.295  0.00  0.00    +0.001 A 
ATOM     22  C   UNL     1       6.608  -9.349  -0.943  0.00  0.00    +0.000 A 
ATOM     23  C   UNL     1       5.610 -10.069  -1.576  0.00  0.00    +0.001 A 
ATOM     24  C   UNL     1       4.309  -9.612  -1.562  0.00  0.00    +0.008 A 
ENDBRANCH  17  19
ENDBRANCH  15  16
ENDBRANCH   5  14
BRANCH   4  25
ATOM     25  S   UNL     1      -1.904  -5.474   1.357  0.00  0.00    -0.138 S 
ATOM     26  H   UNL     1      -3.077  -6.125   1.446  0.00  0.00    +0.105 HD
ENDBRANCH   4  25
TORSDOF 5
