REMARK  Name = ZINC04771114
REMARK  4 active torsions:
REMARK  status: ('A' for Active; 'I' for Inactive)
REMARK    1  A    between atoms: C_14  and  N_27
REMARK    2  A    between atoms: C_15  and  C_25
REMARK    3  A    between atoms: C_16  and  C_18
REMARK    4  A    between atoms: C_21  and  O_24
REMARK                            x       y       z     vdW  Elec       q    Type
REMARK                         _______ _______ _______ _____ _____    ______ ____
ROOT
ATOM      1  C   UNL     1      -0.017   1.382   0.010  0.00  0.00    +0.001 A 
ATOM      2  C   UNL     1       1.165   2.099   0.002  0.00  0.00    +0.001 A 
ATOM      3  C   UNL     1       2.384   1.441  -0.014  0.00  0.00    +0.012 A 
ATOM      4  C   UNL     1       2.419   0.051  -0.022  0.00  0.00    +0.036 A 
ATOM      5  C   UNL     1       1.216  -0.678  -0.013  0.00  0.00    +0.033 A 
ATOM      6  C   UNL     1       0.002  -0.004   0.002  0.00  0.00    +0.012 A 
ATOM      7  C   UNL     1       1.265  -2.155  -0.022  0.00  0.00    +0.194 C 
ATOM      8  O   UNL     1       0.231  -2.795  -0.013  0.00  0.00    -0.287 OA
ATOM      9  C   UNL     1       2.557  -2.855  -0.043  0.00  0.00    +0.058 C 
ATOM     10  C   UNL     1       3.715  -2.162  -0.053  0.00  0.00    +0.185 C 
ATOM     11  C   UNL     1       3.703  -0.677  -0.042  0.00  0.00    +0.229 C 
ATOM     12  O   UNL     1       4.750  -0.061  -0.048  0.00  0.00    -0.283 OA
ATOM     13  O   UNL     1       4.909  -2.795  -0.075  0.00  0.00    -0.437 OA
ATOM     14  C   UNL     1       5.002  -4.076   0.321  0.00  0.00    +0.199 C 
ATOM     15  C   UNL     1       3.912  -4.882   0.353  0.00  0.00    +0.098 C 
ATOM     16  C   UNL     1       2.562  -4.362  -0.053  0.00  0.00    +0.102 C 
ENDROOT
BRANCH  16  17
ATOM     17  C   UNL     1       2.235  -4.854  -1.440  0.00  0.00    -0.034 A 
ATOM     18  C   UNL     1       3.050  -4.512  -2.503  0.00  0.00    +0.008 A 
ATOM     19  C   UNL     1       2.753  -4.961  -3.775  0.00  0.00    +0.046 A 
ATOM     20  C   UNL     1       1.635  -5.755  -3.985  0.00  0.00    +0.117 A 
ATOM     21  C   UNL     1       0.818  -6.096  -2.917  0.00  0.00    +0.046 A 
ATOM     22  C   UNL     1       1.123  -5.649  -1.646  0.00  0.00    +0.008 A 
BRANCH  20  23
ATOM     23  O   UNL     1       1.339  -6.197  -5.236  0.00  0.00    -0.507 OA
ATOM     24  H   UNL     1       1.741  -7.048  -5.457  0.00  0.00    +0.292 HD
ENDBRANCH  20  23
ENDBRANCH  16  17
BRANCH  14  25
ATOM     25  N   UNL     1       6.223  -4.577   0.697  0.00  0.00    -0.328 N 
ATOM     26  H   UNL     1       7.008  -4.009   0.677  0.00  0.00    +0.145 HD
ATOM     27  H   UNL     1       6.300  -5.501   0.984  0.00  0.00    +0.145 HD
ENDBRANCH  14  25
BRANCH  15  28
ATOM     28  C   UNL     1       4.050  -6.242   0.779  0.00  0.00    +0.101 C 
ATOM     29  N   UNL     1       4.159  -7.321   1.117  0.00  0.00    -0.191 NA
ENDBRANCH  15  28
TORSDOF 4
