REMARK  Name = ZINC35928711
REMARK  7 active torsions:
REMARK  status: ('A' for Active; 'I' for Inactive)
REMARK    1  A    between atoms: C_1  and  C_2
REMARK    2  A    between atoms: C_2  and  C_3
REMARK    3  A    between atoms: C_7  and  N_9
REMARK    4  A    between atoms: C_10  and  C_16
REMARK    5  A    between atoms: C_19  and  N_22
REMARK    6  A    between atoms: C_23  and  C_25
REMARK    7  A    between atoms: C_29  and  N_31
REMARK                            x       y       z     vdW  Elec       q    Type
REMARK                         _______ _______ _______ _____ _____    ______ ____
ROOT
ATOM      1  C   UNL     1       4.328  -1.248  -4.770  0.00  0.00    -0.017 A 
ATOM      2  C   UNL     1       3.959   0.084  -4.741  0.00  0.00    +0.008 A 
ATOM      3  C   UNL     1       3.572   0.721  -5.904  0.00  0.00    +0.023 A 
ATOM      4  C   UNL     1       3.554   0.021  -7.104  0.00  0.00    +0.034 A 
ATOM      5  C   UNL     1       3.925  -1.317  -7.130  0.00  0.00    +0.023 A 
ATOM      6  C   UNL     1       4.317  -1.946  -5.964  0.00  0.00    +0.008 A 
ENDROOT
BRANCH   1   8
ATOM      7  N   UNL     1       4.066  -1.360  -2.329  0.00  0.00    -0.254 N 
ATOM      8  C   UNL     1       4.750  -1.939  -3.499  0.00  0.00    +0.170 C 
ATOM      9  S   UNL     1       6.515  -1.578  -3.102  0.00  0.00    -0.124 S 
ATOM     10  C   UNL     1       6.271  -1.318  -1.291  0.00  0.00    +0.167 C 
ATOM     11  C   UNL     1       4.775  -1.049  -1.251  0.00  0.00    +0.231 C 
ATOM     12  O   UNL     1       4.248  -0.571  -0.269  0.00  0.00    -0.274 OA
BRANCH   7  17
ATOM     13  C   UNL     1       0.453  -1.955  -2.669  0.00  0.00    -0.046 A 
ATOM     14  C   UNL     1      -0.046  -0.691  -2.411  0.00  0.00    +0.004 A 
ATOM     15  C   UNL     1       0.817   0.351  -2.125  0.00  0.00    +0.002 A 
ATOM     16  C   UNL     1       2.181   0.133  -2.097  0.00  0.00    +0.023 A 
ATOM     17  C   UNL     1       2.685  -1.135  -2.356  0.00  0.00    +0.038 A 
ATOM     18  C   UNL     1       1.815  -2.181  -2.637  0.00  0.00    +0.027 A 
BRANCH  13  20
ATOM     19  C   UNL     1      -0.896  -3.785  -1.678  0.00  0.00    +0.009 C 
ATOM     20  C   UNL     1      -0.491  -3.087  -2.979  0.00  0.00    +0.032 C 
ENDBRANCH  13  20
ENDBRANCH   7  17
ENDBRANCH   1   8
BRANCH   4  21
ATOM     21  N   UNL     1       3.162   0.662  -8.283  0.00  0.00    -0.282 N 
ATOM     22  C   UNL     1       3.462   1.962  -8.476  0.00  0.00    +0.248 C 
ATOM     23  O   UNL     1       4.158   2.550  -7.671  0.00  0.00    -0.270 OA
ATOM     24  H   UNL     1       2.673   0.172  -8.963  0.00  0.00    +0.155 HD
BRANCH  22  25
ATOM     25  C   UNL     1       2.946   2.672  -9.665  0.00  0.00    +0.039 A 
ATOM     26  C   UNL     1       2.142   2.001 -10.588  0.00  0.00    +0.013 A 
ATOM     27  C   UNL     1       1.663   2.669 -11.695  0.00  0.00    +0.003 A 
ATOM     28  C   UNL     1       1.978   4.002 -11.892  0.00  0.00    +0.033 A 
ATOM     29  C   UNL     1       2.775   4.673 -10.982  0.00  0.00    +0.127 A 
ATOM     30  C   UNL     1       3.256   4.018  -9.867  0.00  0.00    +0.045 A 
BRANCH  29  31
ATOM     31  N   UNL     1       3.107   6.099 -11.201  0.00  0.00    +0.056 N 
ATOM     32  O   UNL     1       2.683   6.676 -12.175  0.00  0.00    -0.126 OA
ATOM     33  O   UNL     1       3.803   6.686 -10.406  0.00  0.00    -0.126 OA
ENDBRANCH  29  31
ENDBRANCH  22  25
ENDBRANCH   4  21
TORSDOF 6
