REMARK  Name = ZINC06735970
REMARK  7 active torsions:
REMARK  status: ('A' for Active; 'I' for Inactive)
REMARK    1  A    between atoms: C_1  and  O_2
REMARK    2  A    between atoms: O_2  and  C_3
REMARK    3  A    between atoms: C_7  and  O_11
REMARK    4  A    between atoms: C_8  and  O_9
REMARK    5  A    between atoms: O_9  and  C_10
REMARK    6  A    between atoms: O_11  and  C_12
REMARK    7  A    between atoms: C_19  and  O_29
REMARK                            x       y       z     vdW  Elec       q    Type
REMARK                         _______ _______ _______ _____ _____    ______ ____
ROOT
ATOM      1  C   UNL     1       1.486   5.334  -1.158  0.00  0.00    +0.165 A 
ATOM      2  C   UNL     1       1.046   4.065  -0.834  0.00  0.00    +0.054 A 
ATOM      3  C   UNL     1       1.929   3.131  -0.365  0.00  0.00    -0.018 A 
ATOM      4  C   UNL     1       3.215   3.496  -0.098  0.00  0.00    +0.032 A 
ATOM      5  C   UNL     1       3.720   4.795  -0.431  0.00  0.00    +0.173 A 
ATOM      6  C   UNL     1       2.825   5.745  -1.017  0.00  0.00    +0.204 A 
ATOM      7  C   UNL     1       4.204   2.496   0.522  0.00  0.00    -0.005 A 
ATOM      8  C   UNL     1       4.956   2.779   1.660  0.00  0.00    +0.058 A 
ATOM      9  C   UNL     1       5.832   1.861   2.022  0.00  0.00    +0.167 A 
ATOM     10  C   UNL     1       5.972   0.624   1.391  0.00  0.00    +0.167 A 
ATOM     11  C   UNL     1       5.178   0.277   0.310  0.00  0.00    +0.056 A 
ATOM     12  C   UNL     1       4.230   1.331  -0.150  0.00  0.00    -0.007 A 
ATOM     13  C   UNL     1       3.349   1.013  -1.332  0.00  0.00    +0.153 C 
ATOM     14  C   UNL     1       1.976   0.625  -0.890  0.00  0.00    +0.078 C 
ATOM     15  C   UNL     1       1.476   1.828  -0.002  0.00  0.00    +0.137 C 
ATOM     16  C   UNL     1      -0.017   1.428   0.010  0.00  0.00    +0.315 C 
ATOM     17  O   UNL     1      -0.981   2.157   0.019  0.00  0.00    -0.250 OA
ATOM     18  O   UNL     1       0.002  -0.004   0.002  0.00  0.00    -0.464 OA
ATOM     19  C   UNL     1       1.381  -0.481  -0.157  0.00  0.00    +0.239 C 
ATOM     20  O   UNL     1       6.892  -0.157   2.007  0.00  0.00    -0.453 OA
ATOM     21  C   UNL     1       7.645   0.817   2.877  0.00  0.00    +0.466 C 
ATOM     22  O   UNL     1       6.672   1.830   3.119  0.00  0.00    -0.453 OA
ENDROOT
BRANCH   1  24
ATOM     23  C   UNL     1      -0.769   5.781  -1.768  0.00  0.00    +0.277 C 
ATOM     24  O   UNL     1       0.582   6.229  -1.636  0.00  0.00    -0.491 OA
ENDBRANCH   1  24
BRANCH   6  25
ATOM     25  O   UNL     1       3.244   6.977  -1.414  0.00  0.00    -0.488 OA
ATOM     26  C   UNL     1       3.708   7.102  -2.760  0.00  0.00    +0.277 C 
ENDBRANCH   6  25
BRANCH   5  27
ATOM     27  O   UNL     1       5.020   5.117  -0.197  0.00  0.00    -0.491 OA
ATOM     28  C   UNL     1       5.954   4.850  -1.245  0.00  0.00    +0.277 C 
ENDBRANCH   5  27
BRANCH  13  29
ATOM     29  O   UNL     1       3.262   2.165  -2.174  0.00  0.00    -0.387 OA
ATOM     30  H   UNL     1       4.116   2.478  -2.501  0.00  0.00    +0.210 HD
ENDBRANCH  13  29
TORSDOF 4
