REMARK  Name = ZINC01157496
REMARK  6 active torsions:
REMARK  status: ('A' for Active; 'I' for Inactive)
REMARK    1  A    between atoms: C_1  and  C_2
REMARK    2  A    between atoms: C_5  and  C_12
REMARK    3  A    between atoms: C_6  and  C_7
REMARK    4  A    between atoms: C_6  and  C_8
REMARK    5  A    between atoms: N_14  and  C_15
REMARK    6  A    between atoms: C_17  and  N_22
REMARK                            x       y       z     vdW  Elec       q    Type
REMARK                         _______ _______ _______ _____ _____    ______ ____
ROOT
ATOM      1  C   UNL     1       0.752  -3.302   1.597  0.00  0.00    +0.262 C 
ATOM      2  O   UNL     1       1.693  -3.169   2.350  0.00  0.00    -0.271 OA
ATOM      3  N   UNL     1       0.080  -4.470   1.557  0.00  0.00    -0.281 N 
ATOM      4  H   UNL     1      -0.720  -4.551   1.015  0.00  0.00    +0.155 HD
ENDROOT
BRANCH   1   9
ATOM      5  C   UNL     1       0.001   1.517  -0.023  0.00  0.00    +0.023 C 
ATOM      6  C   UNL     1       0.019  -0.013  -0.023  0.00  0.00    +0.074 C 
ATOM      7  C   UNL     1       0.744  -0.706  -1.221  0.00  0.00    +0.023 C 
ATOM      8  C   UNL     1       0.936  -2.163  -0.734  0.00  0.00    +0.059 C 
ATOM      9  C   UNL     1       0.333  -2.162   0.706  0.00  0.00    +0.195 C 
ATOM     10  C   UNL     1       0.732  -0.721   1.187  0.00  0.00    +0.029 C 
ATOM     11  C   UNL     1       0.115  -0.340   2.534  0.00  0.00    +0.016 C 
ATOM     12  C   UNL     1       2.249  -0.520   1.171  0.00  0.00    +0.016 C 
ATOM     13  O   UNL     1      -1.096  -1.988   0.500  0.00  0.00    -0.448 OA
ATOM     14  C   UNL     1      -1.342  -0.722   0.061  0.00  0.00    +0.315 C 
ATOM     15  O   UNL     1      -2.415  -0.249  -0.231  0.00  0.00    -0.250 OA
ENDBRANCH   1   9
BRANCH   3  16
ATOM     16  C   UNL     1       0.538  -5.566   2.298  0.00  0.00    +0.050 A 
ATOM     17  C   UNL     1       1.879  -5.661   2.644  0.00  0.00    +0.057 A 
ATOM     18  C   UNL     1       2.328  -6.743   3.375  0.00  0.00    +0.128 A 
ATOM     19  C   UNL     1       1.443  -7.733   3.762  0.00  0.00    +0.034 A 
ATOM     20  C   UNL     1       0.107  -7.643   3.419  0.00  0.00    +0.019 A 
ATOM     21  C   UNL     1      -0.350  -6.559   2.693  0.00  0.00    +0.039 A 
ATOM     22 BR   UNL     1      -2.179  -6.432   2.231  0.00  0.00    -0.048 Br
BRANCH  18  23
ATOM     23  N   UNL     1       3.757  -6.844   3.744  0.00  0.00    +0.056 N 
ATOM     24  O   UNL     1       4.532  -5.980   3.406  0.00  0.00    -0.126 OA
ATOM     25  O   UNL     1       4.151  -7.792   4.384  0.00  0.00    -0.126 OA
ENDBRANCH  18  23
ENDBRANCH   3  16
TORSDOF 3
