REMARK  Name = ZINC10372853
REMARK  5 active torsions:
REMARK  status: ('A' for Active; 'I' for Inactive)
REMARK    1  A    between atoms: C_1  and  C_2
REMARK    2  A    between atoms: C_6  and  N_8
REMARK    3  A    between atoms: C_9  and  C_11
REMARK    4  A    between atoms: C_11  and  C_16
REMARK    5  A    between atoms: C_19  and  N_22
REMARK                            x       y       z     vdW  Elec       q    Type
REMARK                         _______ _______ _______ _____ _____    ______ ____
ROOT
ATOM      1  C   UNL     1      -2.501   0.868   0.142  0.00  0.00    +0.072 C 
ATOM      2  C   UNL     1      -2.735  -0.144  -0.993  0.00  0.00    +0.021 C 
ATOM      3  C   UNL     1      -4.025   0.294  -1.716  0.00  0.00    +0.001 C 
ATOM      4  C   UNL     1      -4.144   1.806  -1.399  0.00  0.00    +0.001 C 
ATOM      5  C   UNL     1      -3.658   1.886   0.070  0.00  0.00    +0.021 C 
ENDROOT
BRANCH   1   6
ATOM      6  C   UNL     1      -2.516   0.164   1.475  0.00  0.00    -0.032 A 
ATOM      7  C   UNL     1      -3.642  -0.529   1.878  0.00  0.00    +0.007 A 
ATOM      8  C   UNL     1      -3.654  -1.179   3.098  0.00  0.00    +0.033 A 
ATOM      9  C   UNL     1      -2.544  -1.128   3.919  0.00  0.00    +0.126 A 
ATOM     10  C   UNL     1      -1.419  -0.431   3.518  0.00  0.00    +0.033 A 
ATOM     11  C   UNL     1      -1.405   0.215   2.296  0.00  0.00    +0.007 A 
BRANCH   9  12
ATOM     12  N   UNL     1      -2.558  -1.820   5.227  0.00  0.00    +0.056 N 
ATOM     13  O   UNL     1      -1.579  -1.775   5.951  0.00  0.00    -0.126 OA
ATOM     14  O   UNL     1      -3.549  -2.434   5.581  0.00  0.00    -0.126 OA
ENDBRANCH   9  12
ENDBRANCH   1   6
BRANCH   1  16
ATOM     15  N   UNL     1      -0.049   0.853  -0.177  0.00  0.00    -0.270 N 
ATOM     16  C   UNL     1      -1.183   1.570  -0.055  0.00  0.00    +0.229 C 
ATOM     17  O   UNL     1      -1.142   2.781  -0.104  0.00  0.00    -0.274 OA
ATOM     18  H   UNL     1      -0.088  -0.116  -0.202  0.00  0.00    +0.156 HD
BRANCH  15  24
ATOM     19  C   UNL     1       2.350   4.983  -0.540  0.00  0.00    +0.067 C 
ATOM     20  C   UNL     1       2.361   3.478  -0.450  0.00  0.00    +0.054 A 
ATOM     21  C   UNL     1       3.566   2.802  -0.467  0.00  0.00    +0.039 A 
ATOM     22  C   UNL     1       3.568   1.416  -0.385  0.00  0.00    +0.020 A 
ATOM     23  C   UNL     1       2.354   0.758  -0.287  0.00  0.00    +0.045 A 
ATOM     24  C   UNL     1       1.181   1.503  -0.275  0.00  0.00    +0.125 A 
ATOM     25  N   UNL     1       1.219   2.823  -0.361  0.00  0.00    -0.236 NA
ATOM     26 BR   UNL     1       5.194   3.754  -0.603  0.00  0.00    -0.048 Br
ENDBRANCH  15  24
ENDBRANCH   1  16
TORSDOF 4
