REMARK  Name = ZINC59739823
REMARK  6 active torsions:
REMARK  status: ('A' for Active; 'I' for Inactive)
REMARK    1  A    between atoms: C_1  and  C_2
REMARK    2  A    between atoms: C_2  and  C_3
REMARK    3  A    between atoms: C_2  and  C_4
REMARK    4  A    between atoms: C_2  and  C_5
REMARK    5  A    between atoms: C_11  and  C_14
REMARK    6  A    between atoms: N_16  and  C_17
REMARK                            x       y       z     vdW  Elec       q    Type
REMARK                         _______ _______ _______ _____ _____    ______ ____
ROOT
ATOM      1  C   UNL     1       0.363  -0.695  -1.238  0.00  0.00    +0.221 C 
ATOM      2  O   UNL     1       0.920  -0.101  -2.138  0.00  0.00    -0.275 OA
ATOM      3  N   UNL     1       0.093  -2.009  -1.364  0.00  0.00    -0.300 N 
ATOM      4  C   UNL     1      -0.470  -2.768  -0.239  0.00  0.00    +0.108 C 
ATOM      5  C   UNL     1       0.414  -3.992   0.021  0.00  0.00    +0.020 C 
ATOM      6  C   UNL     1       0.555  -4.798  -1.273  0.00  0.00    +0.016 C 
ATOM      7  C   UNL     1       1.228  -3.934  -2.343  0.00  0.00    +0.092 C 
ATOM      8  C   UNL     1       0.348  -2.708  -2.631  0.00  0.00    +0.120 C 
ENDROOT
BRANCH   1  10
ATOM      9  C   UNL     1       0.221   1.537  -0.166  0.00  0.00    +0.020 C 
ATOM     10  C   UNL     1      -0.025   0.038   0.020  0.00  0.00    +0.039 C 
ATOM     11  C   UNL     1       0.816  -0.476   1.190  0.00  0.00    +0.020 C 
ATOM     12  C   UNL     1      -1.507  -0.203   0.313  0.00  0.00    +0.020 C 
ENDBRANCH   1  10
BRANCH   7  13
ATOM     13  C   UNL     1       1.397  -4.739  -3.606  0.00  0.00    +0.218 C 
ATOM     14  O   UNL     1       0.873  -4.369  -4.635  0.00  0.00    -0.275 OA
ATOM     15  N   UNL     1       2.130  -5.870  -3.591  0.00  0.00    -0.312 N 
ATOM     16  H   UNL     1       2.550  -6.165  -2.768  0.00  0.00    +0.149 HD
BRANCH  15  17
ATOM     17  C   UNL     1       2.295  -6.652  -4.819  0.00  0.00    +0.073 C 
ATOM     18  C   UNL     1       3.457  -6.082  -5.635  0.00  0.00    +0.022 C 
ATOM     19  C   UNL     1       3.628  -6.899  -6.918  0.00  0.00    +0.002 C 
ATOM     20  C   UNL     1       3.924  -8.356  -6.558  0.00  0.00    +0.000 C 
ATOM     21  C   UNL     1       2.761  -8.926  -5.742  0.00  0.00    +0.002 C 
ATOM     22  C   UNL     1       2.590  -8.109  -4.460  0.00  0.00    +0.022 C 
ENDBRANCH  15  17
ENDBRANCH   7  13
TORSDOF 3
