REMARK  Name = ZINC04711445
REMARK  4 active torsions:
REMARK  status: ('A' for Active; 'I' for Inactive)
REMARK    1  A    between atoms: C_1  and  C_2
REMARK    2  A    between atoms: C_12  and  C_14
REMARK    3  A    between atoms: C_24  and  C_26
REMARK    4  A    between atoms: C_26  and  C_28
REMARK                            x       y       z     vdW  Elec       q    Type
REMARK                         _______ _______ _______ _____ _____    ______ ____
ROOT
ATOM      1  C   UNL     1       2.465   9.259  -1.076  0.00  0.00    +0.007 C 
ATOM      2  C   UNL     1       2.530   7.733  -0.993  0.00  0.00    -0.011 C 
ATOM      3  C   UNL     1       2.485   7.298   0.474  0.00  0.00    +0.022 C 
ATOM      4  C   UNL     1       2.612   5.775   0.554  0.00  0.00    +0.107 C 
ATOM      5  N   UNL     1       3.878   5.355  -0.060  0.00  0.00    -0.315 N 
ATOM      6  C   UNL     1       3.925   5.720  -1.482  0.00  0.00    +0.107 C 
ATOM      7  C   UNL     1       3.837   7.241  -1.623  0.00  0.00    +0.022 C 
ATOM      8  C   UNL     1       4.086   3.996   0.110  0.00  0.00    +0.130 A 
ATOM      9  C   UNL     1       5.386   3.473   0.119  0.00  0.00    +0.031 A 
ATOM     10  C   UNL     1       5.553   2.122   0.299  0.00  0.00    +0.053 A 
ATOM     11  N   UNL     1       4.475   1.356   0.451  0.00  0.00    -0.232 NA
ATOM     12  C   UNL     1       3.257   1.873   0.431  0.00  0.00    +0.162 A 
ATOM     13  N   UNL     1       3.057   3.173   0.268  0.00  0.00    -0.212 NA
ATOM     14  C   UNL     1       6.905   1.464   0.344  0.00  0.00    +0.075 C 
ATOM     15  C   UNL     1       7.963   2.354  -0.309  0.00  0.00    +0.114 C 
ATOM     16  N   UNL     1       7.800   3.718   0.220  0.00  0.00    -0.295 N 
ATOM     17  C   UNL     1       6.544   4.414  -0.083  0.00  0.00    +0.148 C 
ATOM     18  C   UNL     1       8.767   4.304   0.954  0.00  0.00    +0.233 C 
ATOM     19  O   UNL     1       9.831   3.746   1.112  0.00  0.00    -0.274 OA
ENDROOT
BRANCH  12  20
ATOM     20  C   UNL     1       2.088   0.976   0.600  0.00  0.00    +0.019 A 
ATOM     21  C   UNL     1       0.796   1.501   0.587  0.00  0.00    +0.011 A 
ATOM     22  C   UNL     1      -0.288   0.662   0.744  0.00  0.00    +0.001 A 
ATOM     23  C   UNL     1      -0.095  -0.697   0.915  0.00  0.00    +0.000 A 
ATOM     24  C   UNL     1       1.184  -1.223   0.930  0.00  0.00    +0.001 A 
ATOM     25  C   UNL     1       2.276  -0.394   0.773  0.00  0.00    +0.011 A 
ENDBRANCH  12  20
BRANCH  18  26
ATOM     26  C   UNL     1       8.524   5.654   1.578  0.00  0.00    +0.163 C 
ATOM     27  C   UNL     1       9.042   5.651   3.018  0.00  0.00    +0.034 C 
ATOM     28 CL   UNL     1       9.392   6.919   0.631  0.00  0.00    -0.112 Cl
ENDBRANCH  18  26
TORSDOF 2
