REMARK  Name = ZINC20354779
REMARK  8 active torsions:
REMARK  status: ('A' for Active; 'I' for Inactive)
REMARK    1  A    between atoms: C_1  and  C_2
REMARK    2  A    between atoms: N_5  and  C_8
REMARK    3  A    between atoms: C_8  and  C_9
REMARK    4  A    between atoms: C_9  and  C_10
REMARK    5  A    between atoms: C_10  and  N_11
REMARK    6  A    between atoms: C_12  and  C_14
REMARK    7  A    between atoms: C_14  and  C_15
REMARK    8  A    between atoms: C_18  and  N_21
REMARK                            x       y       z     vdW  Elec       q    Type
REMARK                         _______ _______ _______ _____ _____    ______ ____
ROOT
ATOM      1  C   UNL     1       7.252   8.024   2.619  0.00  0.00    -0.038 A 
ATOM      2  C   UNL     1       7.911   8.262   3.810  0.00  0.00    +0.006 A 
ATOM      3  C   UNL     1       9.085   8.989   3.818  0.00  0.00    +0.028 A 
ATOM      4  C   UNL     1       9.597   9.491   2.629  0.00  0.00    +0.067 A 
ATOM      5  C   UNL     1       8.929   9.256   1.435  0.00  0.00    +0.028 A 
ATOM      6  C   UNL     1       7.759   8.523   1.433  0.00  0.00    +0.006 A 
ENDROOT
BRANCH   4   7
ATOM      7  N   UNL     1      10.783  10.233   2.634  0.00  0.00    -0.226 NA
ATOM      8  C   UNL     1      11.135  10.961   3.749  0.00  0.00    +0.155 C 
ATOM      9  N   UNL     1      10.417  11.146   4.855  0.00  0.00    -0.318 N 
ATOM     10  C   UNL     1      10.949  12.039   5.828  0.00  0.00    +0.108 C 
ATOM     11  C   UNL     1      10.473  12.170   7.261  0.00  0.00    +0.189 C 
ATOM     12  S   UNL     1      11.814  13.246   7.953  0.00  0.00    -0.028 S 
ATOM     13  O   UNL     1      12.438  12.570   9.036  0.00  0.00    -0.174 OA
ATOM     14  O   UNL     1      11.302  14.558   8.147  0.00  0.00    -0.174 OA
ATOM     15  C   UNL     1      12.966  13.253   6.498  0.00  0.00    +0.182 C 
ATOM     16  C   UNL     1      12.518  11.941   5.844  0.00  0.00    +0.097 C 
ATOM     17  S   UNL     1      12.661  11.874   4.024  0.00  0.00    -0.084 S 
ATOM     18  H   UNL     1       9.454  10.647   5.035  0.00  0.00    +0.148 HD
ENDBRANCH   4   7
BRANCH   1  19
ATOM     19  C   UNL     1       5.974   7.225   2.613  0.00  0.00    +0.130 C 
BRANCH  19  21
ATOM     20  N   UNL     1       5.302   4.855   2.391  0.00  0.00    -0.315 N 
ATOM     21  C   UNL     1       6.296   5.764   2.428  0.00  0.00    +0.217 C 
ATOM     22  O   UNL     1       7.449   5.407   2.312  0.00  0.00    -0.275 OA
ATOM     23  H   UNL     1       4.256   5.178   2.496  0.00  0.00    +0.149 HD
BRANCH  20  24
ATOM     24  C   UNL     1       5.615   3.435   2.212  0.00  0.00    +0.102 C 
BRANCH  24  25
ATOM     25  C   UNL     1       4.318   2.623   2.206  0.00  0.00    +0.000 C 
BRANCH  25  26
ATOM     26  C   UNL     1       4.644   1.141   2.019  0.00  0.00    -0.077 C 
BRANCH  26  31
ATOM     27  C   UNL     1       0.125  -2.256   1.178  0.00  0.00    +0.007 C 
ATOM     28  C   UNL     1       1.465  -1.536   1.014  0.00  0.00    -0.018 C 
ATOM     29  C   UNL     1       1.228  -0.024   0.946  0.00  0.00    -0.016 C 
ATOM     30  C   UNL     1       2.576   0.694   0.843  0.00  0.00    -0.079 C 
ATOM     31  N   UNL     1       3.399   0.362   2.013  0.00  0.00    +0.380 N 
ATOM     32  C   UNL     1       3.679  -1.079   2.073  0.00  0.00    -0.079 C 
ATOM     33  C   UNL     1       2.364  -1.850   2.213  0.00  0.00    -0.016 C 
ATOM     34  H   UNL     1       2.826   0.630   2.913  0.00  0.00    -0.082 HD
ENDBRANCH  26  31
ENDBRANCH  25  26
ENDBRANCH  24  25
ENDBRANCH  20  24
ENDBRANCH  19  21
ENDBRANCH   1  19
TORSDOF 7
