REMARK  Name = ZINC65370972
REMARK  3 active torsions:
REMARK  status: ('A' for Active; 'I' for Inactive)
REMARK    1  A    between atoms: C_5  and  C_6
REMARK    2  A    between atoms: C_10  and  N_12
REMARK    3  A    between atoms: C_15  and  O_18
REMARK                            x       y       z     vdW  Elec       q    Type
REMARK                         _______ _______ _______ _____ _____    ______ ____
ROOT
ATOM      1  C   UNL     1      -1.130  -0.949   0.008  0.00  0.00    +0.168 A 
ATOM      2  N   UNL     1      -2.371  -0.473   0.018  0.00  0.00    -0.235 NA
ATOM      3  C   UNL     1      -3.412  -1.291   0.023  0.00  0.00    +0.116 A 
ATOM      4  C   UNL     1      -3.200  -2.657   0.019  0.00  0.00    +0.063 A 
ATOM      5  C   UNL     1      -1.885  -3.129   0.009  0.00  0.00    +0.125 A 
ATOM      6  N   UNL     1      -0.886  -2.255  -0.001  0.00  0.00    -0.212 NA
ENDROOT
BRANCH   1  11
ATOM      7  C   UNL     1      -0.017   1.367   0.010  0.00  0.00    +0.021 A 
ATOM      8  C   UNL     1       1.180   2.045   0.002  0.00  0.00    +0.028 A 
ATOM      9  C   UNL     1       2.342   1.337  -0.013  0.00  0.00    +0.079 A 
ATOM     10  S   UNL     1       1.754  -0.348  -0.017  0.00  0.00    -0.074 S 
ATOM     11  C   UNL     1       0.002  -0.004   0.002  0.00  0.00    +0.058 A 
ATOM     12 CL   UNL     1       3.977   1.923  -0.026  0.00  0.00    -0.076 Cl
ENDBRANCH   1  11
BRANCH   5  13
ATOM     13  N   UNL     1      -1.628  -4.490   0.005  0.00  0.00    -0.313 N 
ATOM     14  C   UNL     1      -0.295  -5.113   0.106  0.00  0.00    +0.109 C 
ATOM     15  C   UNL     1      -0.561  -6.530   0.672  0.00  0.00    +0.052 C 
ATOM     16  C   UNL     1      -1.892  -6.903  -0.034  0.00  0.00    +0.133 C 
ATOM     17  C   UNL     1      -2.638  -5.554  -0.094  0.00  0.00    +0.137 C 
BRANCH  16  18
ATOM     18  O   UNL     1      -1.643  -7.411  -1.346  0.00  0.00    -0.390 OA
ATOM     19  H   UNL     1      -1.111  -8.218  -1.361  0.00  0.00    +0.210 HD
ENDBRANCH  16  18
ENDBRANCH   5  13
TORSDOF 3
