REMARK  Name = ZINC66004798
REMARK  8 active torsions:
REMARK  status: ('A' for Active; 'I' for Inactive)
REMARK    1  A    between atoms: C_1  and  C_2
REMARK    2  A    between atoms: C_3  and  C_12
REMARK    3  A    between atoms: C_14  and  C_15
REMARK    4  A    between atoms: C_14  and  C_17
REMARK    5  A    between atoms: C_17  and  C_19
REMARK    6  A    between atoms: C_20  and  C_28
REMARK    7  A    between atoms: C_28  and  O_29
REMARK    8  A    between atoms: O_29  and  C_30
REMARK                            x       y       z     vdW  Elec       q    Type
REMARK                         _______ _______ _______ _____ _____    ______ ____
ROOT
ATOM      1  C   UNL     1      -0.006  -0.337  -2.517  0.00  0.00    +0.209 C 
ATOM      2  O   UNL     1       1.091  -0.491  -3.289  0.00  0.00    -0.286 OA
ATOM      3  C   UNL     1      -1.154   0.259  -3.046  0.00  0.00    +0.149 C 
ENDROOT
BRANCH   1   6
ATOM      4  C   UNL     1      -0.018   1.503   0.010  0.00  0.00    +0.064 C 
ATOM      5  C   UNL     1       0.002  -0.004   0.002  0.00  0.00    +0.025 A 
ATOM      6  C   UNL     1       0.008  -0.793  -1.128  0.00  0.00    +0.051 A 
ATOM      7  C   UNL     1       0.029  -2.191  -0.655  0.00  0.00    +0.011 A 
ATOM      8  C   UNL     1       0.043  -3.427  -1.296  0.00  0.00    +0.011 A 
ATOM      9  C   UNL     1       0.062  -4.584  -0.548  0.00  0.00    +0.001 A 
ATOM     10  C   UNL     1       0.068  -4.520   0.838  0.00  0.00    +0.002 A 
ATOM     11  C   UNL     1       0.054  -3.304   1.485  0.00  0.00    +0.026 A 
ATOM     12  C   UNL     1       0.035  -2.124   0.747  0.00  0.00    +0.047 A 
ATOM     13  N   UNL     1       0.024  -0.791   1.103  0.00  0.00    -0.358 N 
ATOM     14  H   UNL     1       0.028  -0.463   2.016  0.00  0.00    +0.166 HD
ENDBRANCH   1   6
BRANCH   3  15
ATOM     15  C   UNL     1      -1.167   0.706  -4.406  0.00  0.00    +0.107 C 
ATOM     16  N   UNL     1      -1.177   1.060  -5.485  0.00  0.00    -0.191 NA
ENDBRANCH   3  15
BRANCH   3  17
ATOM     17  C   UNL     1      -2.343   0.425  -2.209  0.00  0.00    +0.242 C 
ATOM     18  O   UNL     1      -2.332   0.045  -1.051  0.00  0.00    -0.282 OA
BRANCH  17  19
ATOM     19  C   UNL     1      -3.551   1.052  -2.766  0.00  0.00    +0.182 A 
ATOM     20  C   UNL     1      -4.707   1.263  -2.084  0.00  0.00    +0.035 A 
ATOM     21  C   UNL     1      -5.622   1.906  -3.027  0.00  0.00    +0.026 A 
ATOM     22  C   UNL     1      -6.938   2.369  -2.945  0.00  0.00    +0.012 A 
ATOM     23  C   UNL     1      -7.524   2.938  -4.040  0.00  0.00    +0.001 A 
ATOM     24  C   UNL     1      -6.822   3.059  -5.231  0.00  0.00    +0.004 A 
ATOM     25  C   UNL     1      -5.524   2.608  -5.332  0.00  0.00    +0.047 A 
ATOM     26  C   UNL     1      -4.906   2.026  -4.232  0.00  0.00    +0.136 A 
ATOM     27  O   UNL     1      -3.678   1.510  -4.029  0.00  0.00    -0.451 OA
BRANCH  20  28
ATOM     28  C   UNL     1      -4.990   0.907  -0.647  0.00  0.00    +0.199 C 
BRANCH  28  29
ATOM     29  O   UNL     1      -4.630   2.004   0.195  0.00  0.00    -0.378 OA
ATOM     30  C   UNL     1      -4.859   1.768   1.586  0.00  0.00    +0.194 C 
ENDBRANCH  28  29
ENDBRANCH  20  28
ENDBRANCH  17  19
ENDBRANCH   3  17
TORSDOF 6
