REMARK  Name = ZINC13618147
REMARK  4 active torsions:
REMARK  status: ('A' for Active; 'I' for Inactive)
REMARK    1  A    between atoms: C_4  and  C_7
REMARK    2  A    between atoms: C_9  and  O_22
REMARK    3  A    between atoms: C_15  and  C_16
REMARK    4  A    between atoms: C_15  and  C_18
REMARK                            x       y       z     vdW  Elec       q    Type
REMARK                         _______ _______ _______ _____ _____    ______ ____
ROOT
ATOM      1  C   UNL     1       3.108   2.415  -1.226  0.00  0.00    +0.029 A 
ATOM      2  C   UNL     1       1.849   1.833  -1.201  0.00  0.00    +0.057 A 
ATOM      3  C   UNL     1       1.223   1.533  -0.001  0.00  0.00    +0.119 A 
ATOM      4  C   UNL     1       1.871   1.826   1.193  0.00  0.00    +0.064 A 
ATOM      5  C   UNL     1       3.120   2.396   1.168  0.00  0.00    +0.062 A 
ATOM      6  C   UNL     1       3.785   2.715  -0.024  0.00  0.00    +0.151 A 
ATOM      7  O   UNL     1       5.001   3.274   0.129  0.00  0.00    -0.446 OA
ATOM      8  C   UNL     1       5.518   3.500   1.348  0.00  0.00    +0.189 C 
ATOM      9  C   UNL     1       6.754   4.066   1.679  0.00  0.00    +0.162 C 
ATOM     10  S   UNL     1       4.277   2.917   2.412  0.00  0.00    -0.047 S 
ENDROOT
BRANCH   1  14
ATOM     11  C   UNL     1       4.944   3.301  -4.957  0.00  0.00    +0.000 A 
ATOM     12  C   UNL     1       4.417   2.043  -4.730  0.00  0.00    +0.001 A 
ATOM     13  C   UNL     1       3.820   1.750  -3.521  0.00  0.00    +0.008 A 
ATOM     14  C   UNL     1       3.749   2.724  -2.527  0.00  0.00    -0.014 A 
ATOM     15  C   UNL     1       4.277   3.992  -2.763  0.00  0.00    +0.008 A 
ATOM     16  C   UNL     1       4.877   4.272  -3.974  0.00  0.00    +0.001 A 
ENDBRANCH   1  14
BRANCH   9  17
ATOM     17  C   UNL     1       7.121   4.221   3.040  0.00  0.00    +0.256 C 
ATOM     18  O   UNL     1       6.361   3.862   3.921  0.00  0.00    -0.270 OA
ATOM     19  N   UNL     1       8.312   4.767   3.359  0.00  0.00    -0.325 N 
ATOM     20  H   UNL     1       8.917   5.053   2.657  0.00  0.00    +0.145 HD
ATOM     21  H   UNL     1       8.563   4.873   4.290  0.00  0.00    +0.145 HD
ENDBRANCH   9  17
BRANCH   9  22
ATOM     22  C   UNL     1       7.648   4.489   0.643  0.00  0.00    +0.109 C 
ATOM     23  N   UNL     1       8.357   4.824  -0.178  0.00  0.00    -0.191 NA
ENDBRANCH   9  22
BRANCH   3  24
ATOM     24  O   UNL     1      -0.011   0.963   0.007  0.00  0.00    -0.507 OA
ATOM     25  H   UNL     1       0.002  -0.004   0.002  0.00  0.00    +0.292 HD
ENDBRANCH   3  24
TORSDOF 4
