REMARK  Name = ZINC02090974
REMARK  10 active torsions:
REMARK  status: ('A' for Active; 'I' for Inactive)
REMARK    1  A    between atoms: C_1  and  N_56
REMARK    2  A    between atoms: C_8  and  O_25
REMARK    3  A    between atoms: C_10  and  C_12
REMARK    4  A    between atoms: C_12  and  C_13
REMARK    5  A    between atoms: C_13  and  C_15
REMARK    6  A    between atoms: C_15  and  C_16
REMARK    7  A    between atoms: C_16  and  C_17
REMARK    8  A    between atoms: C_20  and  O_23
REMARK    9  A    between atoms: O_23  and  C_24
REMARK   10  A    between atoms: O_25  and  C_26
REMARK                            x       y       z     vdW  Elec       q    Type
REMARK                         _______ _______ _______ _____ _____    ______ ____
ROOT
ATOM      1  C   UNL     1      -5.174   2.761  -0.780  0.00  0.00    -0.095 C 
ATOM      2  C   UNL     1      -3.941   4.840  -0.605  0.00  0.00    -0.074 C 
ATOM      3  C   UNL     1      -3.204   5.708   0.415  0.00  0.00    +0.017 C 
ATOM      4  C   UNL     1      -2.010   4.965   0.958  0.00  0.00    -0.040 A 
ATOM      5  C   UNL     1      -1.026   5.688   1.616  0.00  0.00    +0.053 A 
ATOM      6  C   UNL     1       0.086   5.049   2.138  0.00  0.00    +0.170 A 
ATOM      7  C   UNL     1       0.215   3.671   2.003  0.00  0.00    +0.208 A 
ATOM      8  C   UNL     1      -0.767   2.951   1.338  0.00  0.00    +0.167 A 
ATOM      9  C   UNL     1      -1.883   3.599   0.817  0.00  0.00    -0.012 A 
ATOM     10  C   UNL     1      -2.923   2.774   0.105  0.00  0.00    -0.027 C 
ATOM     11  O   UNL     1       1.379   3.280   2.601  0.00  0.00    -0.449 OA
ATOM     12  C   UNL     1       1.756   4.373   3.459  0.00  0.00    +0.467 C 
ATOM     13  O   UNL     1       1.171   5.525   2.816  0.00  0.00    -0.452 OA
ATOM     14  N   UNL     1      -4.187   3.523   0.018  0.00  0.00    +0.383 N 
ATOM     15  H   UNL     1      -4.560   3.664   0.964  0.00  0.00    -0.081 HD
ENDROOT
BRANCH   8  16
ATOM     16  O   UNL     1      -0.642   1.604   1.199  0.00  0.00    -0.491 OA
ATOM     17  C   UNL     1       0.032   1.133   0.030  0.00  0.00    +0.277 C 
ENDBRANCH   8  16
BRANCH  10  18
ATOM     18  C   UNL     1      -3.165   1.482   0.888  0.00  0.00    +0.064 C 
BRANCH  18  19
ATOM     19  C   UNL     1      -3.507   1.817   2.317  0.00  0.00    +0.132 C 
ATOM     20  O   UNL     1      -3.647   2.970   2.650  0.00  0.00    -0.297 OA
BRANCH  19  21
ATOM     21  C   UNL     1      -3.673   0.715   3.331  0.00  0.00    +0.079 C 
BRANCH  21  22
ATOM     22  C   UNL     1      -4.015   1.321   4.693  0.00  0.00    +0.042 C 
BRANCH  22  23
ATOM     23  C   UNL     1      -4.182   0.219   5.707  0.00  0.00    -0.047 A 
ATOM     24  C   UNL     1      -5.426  -0.348   5.912  0.00  0.00    +0.007 A 
ATOM     25  C   UNL     1      -5.580  -1.363   6.836  0.00  0.00    +0.046 A 
ATOM     26  C   UNL     1      -4.488  -1.806   7.567  0.00  0.00    +0.120 A 
ATOM     27  C   UNL     1      -3.241  -1.231   7.364  0.00  0.00    +0.046 A 
ATOM     28  C   UNL     1      -3.091  -0.221   6.434  0.00  0.00    +0.007 A 
BRANCH  26  29
ATOM     29  O   UNL     1      -4.638  -2.800   8.481  0.00  0.00    -0.495 OA
ATOM     30  C   UNL     1      -5.950  -3.345   8.637  0.00  0.00    +0.277 C 
ENDBRANCH  26  29
ENDBRANCH  22  23
ENDBRANCH  21  22
ENDBRANCH  19  21
ENDBRANCH  18  19
ENDBRANCH  10  18
TORSDOF 7
