REMARK  Name = ZINC45143149
REMARK  5 active torsions:
REMARK  status: ('A' for Active; 'I' for Inactive)
REMARK    1  A    between atoms: C_1  and  C_2
REMARK    2  A    between atoms: C_2  and  C_4
REMARK    3  A    between atoms: C_2  and  N_6
REMARK    4  A    between atoms: N_6  and  C_7
REMARK    5  A    between atoms: N_10  and  C_11
REMARK                            x       y       z     vdW  Elec       q    Type
REMARK                         _______ _______ _______ _____ _____    ______ ____
ROOT
ATOM      1  N   UNL     1       0.713  -0.495   1.186  0.00  0.00    -0.273 N 
ATOM      2  C   UNL     1       2.116  -0.132   1.401  0.00  0.00    +0.135 C 
ATOM      3  C   UNL     1       0.074  -1.276   2.079  0.00  0.00    +0.307 C 
ATOM      4  O   UNL     1      -1.090  -1.577   1.900  0.00  0.00    -0.252 OA
ATOM      5  N   UNL     1       0.727  -1.724   3.170  0.00  0.00    -0.269 N 
ATOM      6  H   UNL     1       1.673  -1.540   3.279  0.00  0.00    +0.156 HD
ENDROOT
BRANCH   5   7
ATOM      7  C   UNL     1       0.039  -2.455   4.146  0.00  0.00    +0.036 A 
ATOM      8  C   UNL     1       0.369  -2.309   5.486  0.00  0.00    +0.025 A 
ATOM      9  C   UNL     1      -0.310  -3.031   6.447  0.00  0.00    +0.023 A 
ATOM     10  C   UNL     1      -1.320  -3.901   6.076  0.00  0.00    +0.059 A 
ATOM     11  C   UNL     1      -1.652  -4.049   4.740  0.00  0.00    +0.061 A 
ATOM     12  C   UNL     1      -0.979  -3.324   3.775  0.00  0.00    +0.044 A 
ATOM     13 CL   UNL     1      -2.920  -5.142   4.277  0.00  0.00    -0.082 Cl
ATOM     14 CL   UNL     1      -2.172  -4.808   7.287  0.00  0.00    -0.082 Cl
ENDBRANCH   5   7
BRANCH   1  16
ATOM     15  C   UNL     1      -0.006   1.522   0.004  0.00  0.00    +0.044 C 
ATOM     16  C   UNL     1       0.004  -0.008  -0.000  0.00  0.00    +0.177 C 
BRANCH  16  17
ATOM     17  C   UNL     1       0.685  -0.490  -1.212  0.00  0.00    +0.085 C 
ATOM     18  N   UNL     1       1.212  -0.863  -2.148  0.00  0.00    -0.195 NA
ENDBRANCH  16  17
ENDBRANCH   1  16
TORSDOF 3
