REMARK  Name = ZINC40538011
REMARK  7 active torsions:
REMARK  status: ('A' for Active; 'I' for Inactive)
REMARK    1  A    between atoms: C_1  and  C_2
REMARK    2  A    between atoms: C_2  and  C_3
REMARK    3  A    between atoms: C_2  and  C_4
REMARK    4  A    between atoms: C_2  and  O_5
REMARK    5  A    between atoms: O_5  and  C_6
REMARK    6  A    between atoms: C_7  and  N_16
REMARK    7  A    between atoms: C_10  and  C_12
REMARK                            x       y       z     vdW  Elec       q    Type
REMARK                         _______ _______ _______ _____ _____    ______ ____
ROOT
ATOM      1  C   UNL     1       1.962  -0.082  -1.338  0.00  0.00    +0.240 A 
ATOM      2  C   UNL     1       2.686  -0.486  -2.466  0.00  0.00    +0.105 A 
ATOM      3  C   UNL     1       4.003  -0.066  -2.586  0.00  0.00    +0.141 A 
ATOM      4  N   UNL     1       4.525   0.696  -1.635  0.00  0.00    -0.230 NA
ATOM      5  C   UNL     1       3.813   1.057  -0.588  0.00  0.00    +0.237 A 
ATOM      6  N   UNL     1       2.557   0.686  -0.435  0.00  0.00    -0.188 NA
ENDROOT
BRANCH   5   7
ATOM      7  C   UNL     1       4.452   1.925   0.466  0.00  0.00    +0.452 C 
ATOM      8  F   UNL     1       5.632   2.481  -0.040  0.00  0.00    -0.163 F 
ATOM      9  F   UNL     1       3.570   2.951   0.823  0.00  0.00    -0.163 F 
ATOM     10  F   UNL     1       4.747   1.150   1.593  0.00  0.00    -0.163 F 
ENDBRANCH   5   7
BRANCH   2  11
ATOM     11  N   UNL     1       2.097  -1.293  -3.447  0.00  0.00    -0.353 N 
ATOM     12  H   UNL     1       1.175  -1.579  -3.350  0.00  0.00    +0.143 HD
ATOM     13  H   UNL     1       2.611  -1.565  -4.223  0.00  0.00    +0.143 HD
ENDBRANCH   2  11
BRANCH   1  14
ATOM     14  O   UNL     1       0.671  -0.465  -1.174  0.00  0.00    -0.469 OA
BRANCH  14  16
ATOM     15  C   UNL     1      -0.019   1.526   0.010  0.00  0.00    +0.055 C 
ATOM     16  C   UNL     1       0.002  -0.004   0.002  0.00  0.00    +0.104 C 
ATOM     17  C   UNL     1       0.742  -0.511   1.242  0.00  0.00    +0.055 C 
ATOM     18  C   UNL     1      -1.433  -0.534   0.013  0.00  0.00    +0.055 C 
ENDBRANCH  14  16
ENDBRANCH   1  14
TORSDOF 4
