REMARK  Name = ZINC01237195
REMARK  5 active torsions:
REMARK  status: ('A' for Active; 'I' for Inactive)
REMARK    1  A    between atoms: C_1  and  C_2
REMARK    2  A    between atoms: C_2  and  C_21
REMARK    3  A    between atoms: N_11  and  C_18
REMARK    4  A    between atoms: N_14  and  C_15
REMARK    5  A    between atoms: C_15  and  C_16
REMARK                            x       y       z     vdW  Elec       q    Type
REMARK                         _______ _______ _______ _____ _____    ______ ____
ROOT
ATOM      1  C   UNL     1      -0.524  -8.668   3.004  0.00  0.00    +0.041 C 
ATOM      2  C   UNL     1      -0.620  -7.399   2.155  0.00  0.00    +0.068 C 
ATOM      3  C   UNL     1       0.361  -6.353   2.694  0.00  0.00    +0.071 C 
ATOM      4  C   UNL     1       0.420  -5.204   1.693  0.00  0.00    -0.018 A 
ATOM      5  C   UNL     1      -0.029  -5.387   0.432  0.00  0.00    +0.021 A 
ATOM      6  S   UNL     1       0.221  -3.829  -0.366  0.00  0.00    -0.073 S 
ATOM      7  C   UNL     1       0.909  -2.955   0.951  0.00  0.00    +0.097 A 
ATOM      8  C   UNL     1       0.941  -3.875   2.001  0.00  0.00    +0.074 A 
ATOM      9  C   UNL     1       1.497  -3.372   3.276  0.00  0.00    +0.265 A 
ATOM     10  O   UNL     1       1.565  -4.102   4.248  0.00  0.00    -0.267 OA
ATOM     11  N   UNL     1       1.926  -2.100   3.349  0.00  0.00    -0.263 N 
ATOM     12  C   UNL     1       1.870  -1.271   2.294  0.00  0.00    +0.333 A 
ATOM     13  O   UNL     1       2.275  -0.131   2.410  0.00  0.00    -0.246 OA
ATOM     14  N   UNL     1       1.367  -1.676   1.111  0.00  0.00    -0.283 N 
ATOM     15  C   UNL     1       2.477  -1.606   4.614  0.00  0.00    +0.157 C 
ATOM     16  C   UNL     1      -0.605  -6.651  -0.125  0.00  0.00    +0.203 C 
ATOM     17  O   UNL     1      -0.307  -7.714   0.795  0.00  0.00    -0.368 OA
ATOM     18  C   UNL     1      -2.044  -6.845   2.229  0.00  0.00    +0.041 C 
ENDROOT
BRANCH  14  19
ATOM     19  C   UNL     1       1.317  -0.740  -0.015  0.00  0.00    +0.154 C 
BRANCH  19  20
ATOM     20  C   UNL     1       0.002  -0.004   0.002  0.00  0.00    -0.013 C 
ATOM     21  C   UNL     1      -0.016   1.306   0.009  0.00  0.00    +0.005 C 
ENDBRANCH  19  20
ENDBRANCH  14  19
TORSDOF 2
