REMARK  Name = ZINC46543129
REMARK  6 active torsions:
REMARK  status: ('A' for Active; 'I' for Inactive)
REMARK    1  A    between atoms: C_1  and  S_2
REMARK    2  A    between atoms: S_2  and  C_5
REMARK    3  A    between atoms: C_8  and  S_11
REMARK    4  A    between atoms: S_11  and  O_14
REMARK    5  A    between atoms: O_14  and  C_15
REMARK    6  A    between atoms: C_18  and  C_21
REMARK                            x       y       z     vdW  Elec       q    Type
REMARK                         _______ _______ _______ _____ _____    ______ ____
ROOT
ATOM      1  O   UNL     1       3.397  -0.253  -5.993  0.00  0.00    -0.342 OA
ENDROOT
BRANCH   1   2
ATOM      2  C   UNL     1       4.445   0.392  -5.417  0.00  0.00    +0.157 A 
ATOM      3  C   UNL     1       4.218   1.322  -4.411  0.00  0.00    +0.049 A 
ATOM      4  C   UNL     1       5.279   1.979  -3.825  0.00  0.00    +0.012 A 
ATOM      5  C   UNL     1       6.581   1.708  -4.241  0.00  0.00    -0.018 A 
ATOM      6  C   UNL     1       6.806   0.773  -5.251  0.00  0.00    +0.012 A 
ATOM      7  C   UNL     1       5.741   0.116  -5.831  0.00  0.00    +0.049 A 
BRANCH   5   8
ATOM      8  C   UNL     1       7.725   2.413  -3.612  0.00  0.00    -0.018 A 
ATOM      9  C   UNL     1       7.501   3.343  -2.599  0.00  0.00    +0.009 A 
ATOM     10  C   UNL     1       8.568   3.996  -2.017  0.00  0.00    +0.016 A 
ATOM     11  C   UNL     1       9.860   3.728  -2.438  0.00  0.00    +0.018 A 
ATOM     12  C   UNL     1      10.087   2.805  -3.444  0.00  0.00    +0.016 A 
ATOM     13  C   UNL     1       9.027   2.142  -4.029  0.00  0.00    +0.009 A 
ATOM     14 BR   UNL     1      11.318   4.626  -1.636  0.00  0.00    -0.050 Br
ENDBRANCH   5   8
ENDBRANCH   1   2
BRANCH   1  15
ATOM     15  S   UNL     1       3.012  -1.551  -5.298  0.00  0.00    +0.151 S 
ATOM     16  O   UNL     1       4.226  -2.179  -4.908  0.00  0.00    -0.131 OA
ATOM     17  O   UNL     1       2.058  -2.192  -6.135  0.00  0.00    -0.131 OA
BRANCH  15  21
ATOM     18  C   UNL     1       0.845  -0.437  -1.483  0.00  0.00    +0.088 A 
ATOM     19  C   UNL     1       0.135  -0.613  -2.656  0.00  0.00    +0.029 A 
ATOM     20  C   UNL     1       0.796  -0.953  -3.821  0.00  0.00    +0.032 A 
ATOM     21  C   UNL     1       2.169  -1.117  -3.814  0.00  0.00    +0.128 A 
ATOM     22  C   UNL     1       2.880  -0.941  -2.641  0.00  0.00    +0.032 A 
ATOM     23  C   UNL     1       2.219  -0.596  -1.477  0.00  0.00    +0.029 A 
BRANCH  18  25
ATOM     24  C   UNL     1      -0.022   1.810   0.012  0.00  0.00    +0.200 C 
ATOM     25  S   UNL     1       0.002  -0.004   0.002  0.00  0.00    -0.006 S 
ATOM     26  O   UNL     1       0.835  -0.488   1.046  0.00  0.00    -0.170 OA
ATOM     27  O   UNL     1      -1.315  -0.510  -0.168  0.00  0.00    -0.170 OA
ENDBRANCH  18  25
ENDBRANCH  15  21
ENDBRANCH   1  15
TORSDOF 5
