REMARK  Name = ZINC04268209
REMARK  10 active torsions:
REMARK  status: ('A' for Active; 'I' for Inactive)
REMARK    1  A    between atoms: C_1  and  C_2
REMARK    2  A    between atoms: C_7  and  O_32
REMARK    3  A    between atoms: C_11  and  C_30
REMARK    4  A    between atoms: C_15  and  C_28
REMARK    5  A    between atoms: C_15  and  C_29
REMARK    6  A    between atoms: C_19  and  O_27
REMARK    7  A    between atoms: C_22  and  O_24
REMARK    8  A    between atoms: C_30  and  O_31
REMARK    9  A    between atoms: O_32  and  C_33
REMARK   10  A    between atoms: C_33  and  C_35
REMARK                            x       y       z     vdW  Elec       q    Type
REMARK                         _______ _______ _______ _____ _____    ______ ____
ROOT
ATOM      1  C   UNL     1       2.265   1.101   0.050  0.00  0.00    +0.016 C 
ATOM      2  C   UNL     1       1.142   1.552  -0.873  0.00  0.00    +0.059 C 
ATOM      3  C   UNL     1       0.699   3.002  -0.609  0.00  0.00    +0.032 C 
ATOM      4  C   UNL     1       0.551   3.309   0.871  0.00  0.00    +0.051 C 
ATOM      5  C   UNL     1      -0.409   2.426   1.634  0.00  0.00    +0.182 C 
ATOM      6  C   UNL     1      -1.588   1.870   0.858  0.00  0.00    +0.057 C 
ATOM      7  C   UNL     1      -2.900   2.586   1.166  0.00  0.00    +0.005 C 
ATOM      8  C   UNL     1      -3.247   2.336   2.646  0.00  0.00    +0.010 C 
ATOM      9  C   UNL     1      -4.573   3.014   2.975  0.00  0.00    +0.001 C 
ATOM     10  C   UNL     1      -5.701   2.418   2.145  0.00  0.00    +0.007 C 
ATOM     11  C   UNL     1      -5.414   2.451   0.645  0.00  0.00    -0.031 C 
ATOM     12  C   UNL     1      -4.015   1.982   0.322  0.00  0.00    +0.006 C 
ATOM     13  C   UNL     1      -3.673   2.078  -1.165  0.00  0.00    +0.037 C 
ATOM     14  C   UNL     1      -2.466   1.150  -1.391  0.00  0.00    +0.131 C 
ATOM     15  C   UNL     1      -1.277   1.686  -0.622  0.00  0.00    +0.088 C 
ATOM     16  C   UNL     1      -0.735   2.989  -1.229  0.00  0.00    +0.135 C 
ATOM     17  C   UNL     1      -0.107   0.709  -0.701  0.00  0.00    +0.148 C 
ATOM     18  O   UNL     1      -0.181  -0.492  -0.643  0.00  0.00    -0.296 OA
ATOM     19  C   UNL     1      -5.726   3.838   0.083  0.00  0.00    +0.011 C 
ATOM     20  C   UNL     1      -6.417   1.467  -0.008  0.00  0.00    +0.011 C 
ENDROOT
BRANCH  16  21
ATOM     21  O   UNL     1      -0.630   2.914  -2.659  0.00  0.00    -0.390 OA
ATOM     22  H   UNL     1      -0.170   3.664  -3.060  0.00  0.00    +0.210 HD
ENDBRANCH  16  21
BRANCH  14  23
ATOM     23  O   UNL     1      -2.186   1.028  -2.778  0.00  0.00    -0.391 OA
ATOM     24  H   UNL     1      -2.916   0.663  -3.296  0.00  0.00    +0.210 HD
ENDBRANCH  14  23
BRANCH   7  25
ATOM     25  C   UNL     1      -2.746   4.090   0.962  0.00  0.00    +0.163 C 
BRANCH  25  26
ATOM     26  O   UNL     1      -1.700   4.581   1.803  0.00  0.00    -0.394 OA
ATOM     27  H   UNL     1      -1.546   5.532   1.725  0.00  0.00    +0.209 HD
ENDBRANCH  25  26
ENDBRANCH   7  25
BRANCH   5  28
ATOM     28  O   UNL     1       0.312   1.322   2.255  0.00  0.00    -0.461 OA
BRANCH  28  29
ATOM     29  C   UNL     1       0.784   1.523   3.495  0.00  0.00    +0.304 C 
ATOM     30  O   UNL     1       0.603   2.583   4.046  0.00  0.00    -0.251 OA
ATOM     31  C   UNL     1       1.540   0.427   4.200  0.00  0.00    +0.136 C 
ENDBRANCH  28  29
ENDBRANCH   5  28
TORSDOF 6
