REMARK  Name = ZINC06641956
REMARK  4 active torsions:
REMARK  status: ('A' for Active; 'I' for Inactive)
REMARK    1  A    between atoms: C_5  and  O_7
REMARK    2  A    between atoms: O_7  and  C_8
REMARK    3  A    between atoms: C_8  and  C_9
REMARK    4  A    between atoms: C_9  and  N_10
REMARK                            x       y       z     vdW  Elec       q    Type
REMARK                         _______ _______ _______ _____ _____    ______ ____
ROOT
ATOM      1  N   UNL     1      -3.631   2.171   0.050  0.00  0.00    -0.199 N 
ATOM      2  C   UNL     1      -2.480   1.365   0.034  0.00  0.00    +0.061 A 
ATOM      3  C   UNL     1      -2.411  -0.027   0.025  0.00  0.00    +0.025 A 
ATOM      4  C   UNL     1      -1.184  -0.678   0.010  0.00  0.00    +0.002 A 
ATOM      5  C   UNL     1       0.002  -0.004   0.002  0.00  0.00    +0.009 A 
ATOM      6  C   UNL     1      -0.017   1.401   0.010  0.00  0.00    -0.014 A 
ATOM      7  C   UNL     1      -1.268   2.053   0.031  0.00  0.00    +0.031 A 
ATOM      8  C   UNL     1      -1.327   3.451   0.035  0.00  0.00    +0.118 A 
ATOM      9  C   UNL     1      -0.199   4.184   0.028  0.00  0.00    +0.029 A 
ATOM     10  C   UNL     1       1.048   3.546   0.012  0.00  0.00    +0.003 A 
ATOM     11  C   UNL     1       1.148   2.186   0.003  0.00  0.00    +0.009 A 
ATOM     12  S   UNL     1      -3.072   3.751   0.054  0.00  0.00    +0.075 S 
ATOM     13  O   UNL     1      -3.424   4.339  -1.191  0.00  0.00    -0.150 OA
ATOM     14  O   UNL     1      -3.400   4.324   1.312  0.00  0.00    -0.150 OA
ENDROOT
BRANCH   1  15
ATOM     15  C   UNL     1      -5.026   1.723   0.060  0.00  0.00    +0.172 C 
BRANCH  15  16
ATOM     16  C   UNL     1      -5.460   1.439   1.499  0.00  0.00    +0.250 C 
BRANCH  16  17
ATOM     17  O   UNL     1      -5.447   2.655   2.250  0.00  0.00    -0.487 OA
BRANCH  17  22
ATOM     18  C   UNL     1      -6.540   1.278   5.436  0.00  0.00    +0.004 A 
ATOM     19  C   UNL     1      -6.549   2.417   6.220  0.00  0.00    +0.003 A 
ATOM     20  C   UNL     1      -6.190   3.637   5.677  0.00  0.00    +0.042 A 
ATOM     21  C   UNL     1      -5.820   3.720   4.346  0.00  0.00    +0.165 A 
ATOM     22  C   UNL     1      -5.810   2.576   3.558  0.00  0.00    +0.156 A 
ATOM     23  C   UNL     1      -6.175   1.356   4.105  0.00  0.00    +0.048 A 
ATOM     24  F   UNL     1      -5.470   4.911   3.815  0.00  0.00    -0.202 F 
ENDBRANCH  17  22
ENDBRANCH  16  17
ENDBRANCH  15  16
ENDBRANCH   1  15
TORSDOF 4
