REMARK  Name = ZINC36352796
REMARK  3 active torsions:
REMARK  status: ('A' for Active; 'I' for Inactive)
REMARK    1  A    between atoms: C_1  and  N_2
REMARK    2  A    between atoms: C_9  and  C_10
REMARK    3  A    between atoms: N_12  and  C_13
REMARK                            x       y       z     vdW  Elec       q    Type
REMARK                         _______ _______ _______ _____ _____    ______ ____
ROOT
ATOM      1  C   UNL     1      -0.431  -0.388   2.510  0.00  0.00    +0.265 C 
ATOM      2  O   UNL     1      -0.514  -1.191   3.421  0.00  0.00    -0.268 OA
ATOM      3  N   UNL     1      -0.393   0.933   2.777  0.00  0.00    -0.278 N 
ATOM      4  H   UNL     1      -0.361   1.574   2.050  0.00  0.00    +0.155 HD
ENDROOT
BRANCH   1  13
ATOM      5  C   UNL     1      -0.711  -3.326   1.579  0.00  0.00    +0.149 C 
ATOM      6  N   UNL     1      -0.499  -2.168   0.707  0.00  0.00    -0.337 N 
ATOM      7  C   UNL     1      -0.395  -2.202  -0.660  0.00  0.00    +0.088 A 
ATOM      8  C   UNL     1      -0.407  -3.025  -1.810  0.00  0.00    +0.067 A 
ATOM      9  C   UNL     1      -0.224  -2.222  -2.874  0.00  0.00    +0.198 A 
ATOM     10  O   UNL     1      -0.099  -0.950  -2.458  0.00  0.00    -0.461 OA
ATOM     11  C   UNL     1      -0.199  -0.901  -1.111  0.00  0.00    +0.153 A 
ATOM     12  C   UNL     1      -0.183  -0.066   0.011  0.00  0.00    +0.079 A 
ATOM     13  C   UNL     1      -0.374  -0.857   1.124  0.00  0.00    +0.108 A 
ENDBRANCH   1  13
BRANCH   3  14
ATOM     14  C   UNL     1      -0.397   1.379   4.104  0.00  0.00    +0.069 A 
ATOM     15  C   UNL     1      -0.289   0.467   5.145  0.00  0.00    +0.026 A 
ATOM     16  C   UNL     1      -0.294   0.910   6.453  0.00  0.00    +0.002 A 
ATOM     17  C   UNL     1      -0.407   2.261   6.728  0.00  0.00    +0.003 A 
ATOM     18  C   UNL     1      -0.515   3.173   5.694  0.00  0.00    +0.040 A 
ATOM     19  C   UNL     1      -0.504   2.737   4.381  0.00  0.00    +0.144 A 
ATOM     20  F   UNL     1      -0.604   3.629   3.372  0.00  0.00    -0.204 F 
ENDBRANCH   3  14
TORSDOF 2
