REMARK  Name = ZINC36645385
REMARK  10 active torsions:
REMARK  status: ('A' for Active; 'I' for Inactive)
REMARK    1  A    between atoms: C_1  and  C_2
REMARK    2  A    between atoms: C_5  and  C_33
REMARK    3  A    between atoms: N_11  and  C_12
REMARK    4  A    between atoms: C_12  and  C_13
REMARK    5  A    between atoms: C_13  and  C_14
REMARK    6  A    between atoms: C_14  and  N_15
REMARK    7  A    between atoms: N_15  and  C_16
REMARK    8  A    between atoms: N_15  and  C_17
REMARK    9  A    between atoms: C_18  and  C_20
REMARK   10  A    between atoms: C_22  and  C_32
REMARK                            x       y       z     vdW  Elec       q    Type
REMARK                         _______ _______ _______ _____ _____    ______ ____
ROOT
ATOM      1  C   UNL     1      -0.545   2.938   0.797  0.00  0.00    +0.046 C 
ATOM      2  C   UNL     1      -0.172   1.498   0.555  0.00  0.00    -0.024 A 
ATOM      3  C   UNL     1      -0.069   1.031  -0.730  0.00  0.00    +0.006 A 
ATOM      4  C   UNL     1       0.272  -0.287  -0.997  0.00  0.00    +0.005 A 
ATOM      5  C   UNL     1       0.513  -1.151   0.055  0.00  0.00    -0.035 A 
ATOM      6  C   UNL     1       0.412  -0.693   1.345  0.00  0.00    +0.044 A 
ATOM      7  C   UNL     1       0.072   0.644   1.655  0.00  0.00    +0.083 A 
ATOM      8  N   UNL     1       0.018   0.944   2.971  0.00  0.00    -0.224 NA
ATOM      9  C   UNL     1       0.268   0.058   3.907  0.00  0.00    +0.168 A 
ATOM     10  S   UNL     1       0.623  -1.413   2.955  0.00  0.00    -0.052 S 
ATOM     11  N   UNL     1       0.251   0.220   5.283  0.00  0.00    -0.247 N 
ATOM     12  C   UNL     1      -0.052   1.419   5.817  0.00  0.00    +0.266 C 
ATOM     13  O   UNL     1      -0.413   2.329   5.100  0.00  0.00    -0.271 OA
ATOM     14  C   UNL     1       0.884  -2.587  -0.212  0.00  0.00    +0.045 C 
ENDROOT
BRANCH  12  15
ATOM     15  C   UNL     1       0.056   1.631   7.305  0.00  0.00    +0.299 C 
ATOM     16  C   UNL     1       1.121   2.696   7.600  0.00  0.00    +0.220 C 
ATOM     17  O   UNL     1       1.187   2.882   9.018  0.00  0.00    -0.481 OA
ATOM     18  C   UNL     1       0.002   3.011   9.674  0.00  0.00    +0.163 A 
ATOM     19  C   UNL     1      -0.013   3.545  10.954  0.00  0.00    +0.049 A 
ATOM     20  C   UNL     1      -1.209   3.679  11.635  0.00  0.00    +0.004 A 
ATOM     21  C   UNL     1      -2.392   3.279  11.042  0.00  0.00    +0.004 A 
ATOM     22  C   UNL     1      -2.384   2.748   9.767  0.00  0.00    +0.049 A 
ATOM     23  C   UNL     1      -1.188   2.614   9.077  0.00  0.00    +0.163 A 
ATOM     24  O   UNL     1      -1.198   2.094   7.819  0.00  0.00    -0.472 OA
ATOM     25  C   UNL     1       2.479   2.227   7.076  0.00  0.00    +0.056 C 
ENDBRANCH  12  15
BRANCH  11  26
ATOM     26  C   UNL     1       0.564  -0.913   6.157  0.00  0.00    +0.114 C 
BRANCH  26  27
ATOM     27  C   UNL     1       2.082  -1.040   6.304  0.00  0.00    +0.001 C 
BRANCH  27  28
ATOM     28  C   UNL     1       2.413  -2.302   7.103  0.00  0.00    -0.078 C 
BRANCH  28  29
ATOM     29  N   UNL     1       3.869  -2.495   7.131  0.00  0.00    +0.376 N 
ATOM     30  C   UNL     1       4.497  -1.385   7.861  0.00  0.00    -0.097 C 
ATOM     31  C   UNL     1       4.182  -3.763   7.806  0.00  0.00    -0.097 C 
ATOM     32  H   UNL     1       4.224  -2.521   6.187  0.00  0.00    -0.083 HD
ENDBRANCH  28  29
ENDBRANCH  27  28
ENDBRANCH  26  27
ENDBRANCH  11  26
TORSDOF 5
