REMARK  Name = ZINC06531169
REMARK  8 active torsions:
REMARK  status: ('A' for Active; 'I' for Inactive)
REMARK    1  A    between atoms: C_1  and  C_2
REMARK    2  A    between atoms: C_2  and  C_22
REMARK    3  A    between atoms: N_5  and  C_9
REMARK    4  A    between atoms: C_9  and  C_10
REMARK    5  A    between atoms: N_12  and  C_13
REMARK    6  A    between atoms: C_13  and  C_14
REMARK    7  A    between atoms: C_17  and  O_20
REMARK    8  A    between atoms: O_20  and  C_21
REMARK                            x       y       z     vdW  Elec       q    Type
REMARK                         _______ _______ _______ _____ _____    ______ ____
ROOT
ATOM      1  C   UNL     1      -8.817  -1.531   4.341  0.00  0.00    +0.047 C 
ATOM      2  C   UNL     1      -7.954  -1.561   3.079  0.00  0.00    +0.135 C 
ATOM      3  C   UNL     1      -6.966  -0.411   3.085  0.00  0.00    +0.251 C 
ATOM      4  O   UNL     1      -7.223   0.774   3.098  0.00  0.00    -0.272 OA
ATOM      5  N   UNL     1      -5.745  -0.980   3.071  0.00  0.00    -0.215 N 
ATOM      6  C   UNL     1      -5.822  -2.316   3.064  0.00  0.00    +0.310 C 
ATOM      7  O   UNL     1      -4.853  -3.048   3.055  0.00  0.00    -0.252 OA
ATOM      8  N   UNL     1      -7.093  -2.757   3.068  0.00  0.00    -0.281 N 
ATOM      9  H   UNL     1      -7.386  -3.682   3.065  0.00  0.00    +0.152 HD
ENDROOT
BRANCH   2  10
ATOM     10  C   UNL     1      -8.819  -1.520   1.845  0.00  0.00    -0.015 A 
ATOM     11  C   UNL     1      -9.195  -0.304   1.304  0.00  0.00    +0.006 A 
ATOM     12  C   UNL     1      -9.983  -0.269   0.171  0.00  0.00    +0.004 A 
ATOM     13  C   UNL     1     -10.408  -1.448  -0.420  0.00  0.00    -0.044 A 
ATOM     14  C   UNL     1     -10.037  -2.663   0.124  0.00  0.00    -0.044 A 
ATOM     15  C   UNL     1      -9.242  -2.696   1.258  0.00  0.00    +0.010 A 
ATOM     16  C   UNL     1     -10.623  -3.791  -0.696  0.00  0.00    +0.036 C 
ATOM     17  C   UNL     1     -11.024  -3.148  -2.041  0.00  0.00    +0.009 C 
ATOM     18  C   UNL     1     -11.269  -1.677  -1.643  0.00  0.00    +0.036 C 
ENDBRANCH   2  10
BRANCH   5  19
ATOM     19  C   UNL     1      -4.487  -0.228   3.069  0.00  0.00    +0.213 C 
BRANCH  19  20
ATOM     20  C   UNL     1      -4.062   0.038   1.648  0.00  0.00    +0.231 C 
ATOM     21  O   UNL     1      -4.743  -0.361   0.727  0.00  0.00    -0.274 OA
ATOM     22  N   UNL     1      -2.926   0.719   1.400  0.00  0.00    -0.310 N 
ATOM     23  H   UNL     1      -2.382   1.038   2.137  0.00  0.00    +0.149 HD
BRANCH  22  24
ATOM     24  C   UNL     1      -2.513   0.977   0.019  0.00  0.00    +0.139 C 
BRANCH  24  25
ATOM     25  C   UNL     1      -1.220   1.750   0.017  0.00  0.00    -0.030 A 
ATOM     26  C   UNL     1      -0.013   1.076   0.008  0.00  0.00    +0.009 A 
ATOM     27  C   UNL     1       1.175   1.782   0.000  0.00  0.00    +0.046 A 
ATOM     28  C   UNL     1       1.155   3.169   0.008  0.00  0.00    +0.120 A 
ATOM     29  C   UNL     1      -0.057   3.844   0.023  0.00  0.00    +0.046 A 
ATOM     30  C   UNL     1      -1.242   3.133   0.031  0.00  0.00    +0.009 A 
BRANCH  28  31
ATOM     31  O   UNL     1       2.322   3.866   0.000  0.00  0.00    -0.495 OA
ATOM     32  C   UNL     1       2.225   5.292   0.009  0.00  0.00    +0.277 C 
ENDBRANCH  28  31
ENDBRANCH  24  25
ENDBRANCH  22  24
ENDBRANCH  19  20
ENDBRANCH   5  19
TORSDOF 6
