REMARK  Name = ZINC21732954
REMARK  7 active torsions:
REMARK  status: ('A' for Active; 'I' for Inactive)
REMARK    1  A    between atoms: C_1  and  C_2
REMARK    2  A    between atoms: C_2  and  C_4
REMARK    3  A    between atoms: C_2  and  N_14
REMARK    4  A    between atoms: C_15  and  C_17
REMARK    5  A    between atoms: C_17  and  N_18
REMARK    6  A    between atoms: C_21  and  C_25
REMARK    7  A    between atoms: C_21  and  C_26
REMARK                            x       y       z     vdW  Elec       q    Type
REMARK                         _______ _______ _______ _____ _____    ______ ____
ROOT
ATOM      1  N   UNL     1       0.186  -2.683  -0.908  0.00  0.00    -0.307 N 
ATOM      2  C   UNL     1       0.306  -3.898  -1.478  0.00  0.00    +0.231 C 
ATOM      3  O   UNL     1       1.287  -4.576  -1.260  0.00  0.00    -0.274 OA
ATOM      4  H   UNL     1      -0.704  -2.068  -1.107  0.00  0.00    +0.149 HD
ENDROOT
BRANCH   1   6
ATOM      5  C   UNL     1       1.011  -2.707   1.394  0.00  0.00    +0.033 C 
ATOM      6  C   UNL     1       1.241  -2.181  -0.024  0.00  0.00    +0.100 C 
BRANCH   6   7
ATOM      7  C   UNL     1       1.211  -0.674  -0.012  0.00  0.00    -0.027 A 
ATOM      8  C   UNL     1       0.002  -0.004   0.002  0.00  0.00    +0.006 A 
ATOM      9  C   UNL     1      -0.017   1.375   0.010  0.00  0.00    +0.004 A 
ATOM     10  C   UNL     1       1.170   2.097   0.002  0.00  0.00    -0.044 A 
ATOM     11  C   UNL     1       2.374   1.430  -0.007  0.00  0.00    -0.044 A 
ATOM     12  C   UNL     1       2.391   0.041  -0.016  0.00  0.00    +0.009 A 
ATOM     13  C   UNL     1       3.699   2.147  -0.003  0.00  0.00    +0.035 C 
ATOM     14  C   UNL     1       3.522   3.604  -0.427  0.00  0.00    +0.005 C 
ATOM     15  C   UNL     1       2.405   4.223   0.422  0.00  0.00    +0.005 C 
ATOM     16  C   UNL     1       1.076   3.601  -0.002  0.00  0.00    +0.035 C 
ENDBRANCH   6   7
ENDBRANCH   1   6
BRANCH   2  17
ATOM     17  C   UNL     1      -0.779  -4.415  -2.388  0.00  0.00    +0.213 C 
BRANCH  17  18
ATOM     18  N   UNL     1      -0.414  -5.747  -2.876  0.00  0.00    -0.215 N 
ATOM     19  C   UNL     1      -0.740  -6.897  -2.253  0.00  0.00    +0.254 C 
ATOM     20  O   UNL     1      -1.365  -7.019  -1.221  0.00  0.00    -0.272 OA
ATOM     21  C   UNL     1      -0.161  -8.005  -3.110  0.00  0.00    +0.168 C 
ATOM     22  N   UNL     1       0.483  -7.283  -4.220  0.00  0.00    -0.279 N 
ATOM     23  C   UNL     1       0.278  -5.973  -3.998  0.00  0.00    +0.310 C 
ATOM     24  O   UNL     1       0.679  -5.092  -4.733  0.00  0.00    -0.252 OA
ATOM     25  C   UNL     1       0.872  -8.812  -2.320  0.00  0.00    +0.050 C 
ATOM     26  H   UNL     1       1.001  -7.843  -5.013  0.00  0.00    +0.152 HD
BRANCH  21  27
ATOM     27  C   UNL     1      -1.256  -8.905  -3.622  0.00  0.00    +0.137 A 
ATOM     28  C   UNL     1      -1.238  -9.582  -4.785  0.00  0.00    +0.047 A 
ATOM     29  C   UNL     1      -2.456 -10.296  -4.862  0.00  0.00    +0.041 A 
ATOM     30  C   UNL     1      -3.149 -10.006  -3.746  0.00  0.00    +0.195 A 
ATOM     31  O   UNL     1      -2.417  -9.163  -2.999  0.00  0.00    -0.465 OA
ENDBRANCH  21  27
ENDBRANCH  17  18
ENDBRANCH   2  17
TORSDOF 5
