REMARK  Name = ZINC36312852
REMARK  11 active torsions:
REMARK  status: ('A' for Active; 'I' for Inactive)
REMARK    1  A    between atoms: C_1  and  C_2
REMARK    2  A    between atoms: N_8  and  C_9
REMARK    3  A    between atoms: C_10  and  C_20
REMARK    4  A    between atoms: C_11  and  C_14
REMARK    5  A    between atoms: C_20  and  N_21
REMARK    6  A    between atoms: N_21  and  C_22
REMARK    7  A    between atoms: C_22  and  C_23
REMARK    8  A    between atoms: C_23  and  N_24
REMARK    9  A    between atoms: N_24  and  C_25
REMARK   10  A    between atoms: N_24  and  C_26
REMARK   11  A    between atoms: C_27  and  C_29
REMARK                            x       y       z     vdW  Elec       q    Type
REMARK                         _______ _______ _______ _____ _____    ______ ____
ROOT
ATOM      1  C   UNL     1       0.613   0.026   2.838  0.00  0.00    +0.226 A 
ATOM      2  C   UNL     1       1.817  -0.119   3.446  0.00  0.00    +0.059 A 
ATOM      3  C   UNL     1       2.177   1.127   4.001  0.00  0.00    +0.120 A 
ATOM      4  N   UNL     1       1.219   1.982   3.730  0.00  0.00    -0.076 NA
ATOM      5  O   UNL     1       0.222   1.303   2.989  0.00  0.00    -0.339 OA
ENDROOT
BRANCH   1  12
ATOM      6  C   UNL     1       0.627   0.206   0.141  0.00  0.00    +0.028 C 
ATOM      7  C   UNL     1      -0.083  -1.027   0.705  0.00  0.00    +0.073 C 
ATOM      8  C   UNL     1      -1.531  -1.058   0.206  0.00  0.00    +0.022 C 
ATOM      9  C   UNL     1      -2.274  -2.212   0.882  0.00  0.00    +0.003 C 
ATOM     10  C   UNL     1      -2.289  -1.994   2.397  0.00  0.00    +0.019 C 
ATOM     11  C   UNL     1      -0.849  -1.974   2.920  0.00  0.00    +0.108 C 
ATOM     12  N   UNL     1      -0.086  -0.965   2.173  0.00  0.00    -0.296 N 
ENDBRANCH   1  12
BRANCH   3  13
ATOM     13  C   UNL     1       3.421   1.419   4.758  0.00  0.00    +0.004 A 
ATOM     14  C   UNL     1       3.884   0.520   5.715  0.00  0.00    +0.010 A 
ATOM     15  C   UNL     1       5.041   0.796   6.415  0.00  0.00    +0.001 A 
ATOM     16  C   UNL     1       5.739   1.964   6.169  0.00  0.00    +0.000 A 
ATOM     17  C   UNL     1       5.283   2.861   5.220  0.00  0.00    +0.001 A 
ATOM     18  C   UNL     1       4.131   2.592   4.510  0.00  0.00    +0.010 A 
ENDBRANCH   3  13
BRANCH   2  19
ATOM     19  C   UNL     1       2.627  -1.388   3.517  0.00  0.00    +0.150 C 
BRANCH  19  20
ATOM     20  N   UNL     1       3.393  -1.548   2.279  0.00  0.00    -0.295 N 
ATOM     21  C   UNL     1       2.917  -2.328   1.288  0.00  0.00    +0.250 C 
ATOM     22  O   UNL     1       1.849  -2.893   1.420  0.00  0.00    -0.270 OA
BRANCH  21  23
ATOM     23  C   UNL     1       3.692  -2.494   0.042  0.00  0.00    +0.072 A 
ATOM     24  C   UNL     1       5.088  -2.524   0.082  0.00  0.00    +0.016 A 
ATOM     25  C   UNL     1       5.805  -2.680  -1.084  0.00  0.00    +0.001 A 
ATOM     26  C   UNL     1       5.147  -2.808  -2.296  0.00  0.00    +0.003 A 
ATOM     27  C   UNL     1       3.766  -2.780  -2.346  0.00  0.00    +0.039 A 
ATOM     28  C   UNL     1       3.032  -2.630  -1.183  0.00  0.00    +0.135 A 
ATOM     29  F   UNL     1       1.682  -2.608  -1.232  0.00  0.00    -0.205 F 
ENDBRANCH  21  23
BRANCH  20  30
ATOM     30  C   UNL     1       4.677  -0.862   2.118  0.00  0.00    +0.090 C 
BRANCH  30  31
ATOM     31  C   UNL     1       5.696  -1.449   3.096  0.00  0.00    -0.060 C 
BRANCH  31  32
ATOM     32  N   UNL     1       6.984  -0.760   2.934  0.00  0.00    +0.377 N 
ATOM     33  C   UNL     1       6.838   0.648   3.324  0.00  0.00    -0.097 C 
ATOM     34  C   UNL     1       7.993  -1.403   3.787  0.00  0.00    -0.097 C 
ATOM     35  H   UNL     1       7.275  -0.814   1.970  0.00  0.00    -0.083 HD
ENDBRANCH  31  32
ENDBRANCH  30  31
ENDBRANCH  20  30
ENDBRANCH  19  20
ENDBRANCH   2  19
TORSDOF 8
