REMARK  Name = ZINC19528081
REMARK  6 active torsions:
REMARK  status: ('A' for Active; 'I' for Inactive)
REMARK    1  A    between atoms: C_1  and  C_2
REMARK    2  A    between atoms: C_2  and  N_3
REMARK    3  A    between atoms: N_6  and  C_9
REMARK    4  A    between atoms: C_9  and  C_11
REMARK    5  A    between atoms: C_9  and  C_18
REMARK    6  A    between atoms: N_22  and  C_23
REMARK                            x       y       z     vdW  Elec       q    Type
REMARK                         _______ _______ _______ _____ _____    ______ ____
ROOT
ATOM      1  C   UNL     1       1.150   3.593   0.011  0.00  0.00    +0.160 C 
ENDROOT
BRANCH   1   5
ATOM      2  N   UNL     1      -1.827   5.194  -2.522  0.00  0.00    +0.381 N 
ATOM      3  C   UNL     1      -1.601   5.849  -1.226  0.00  0.00    -0.063 C 
ATOM      4  C   UNL     1      -0.218   5.462  -0.697  0.00  0.00    +0.067 C 
ATOM      5  N   UNL     1      -0.138   4.000  -0.567  0.00  0.00    -0.293 NA
ATOM      6  C   UNL     1      -0.364   3.346  -1.863  0.00  0.00    +0.067 C 
ATOM      7  C   UNL     1      -1.747   3.733  -2.393  0.00  0.00    -0.063 C 
ATOM      8  H   UNL     1      -1.032   5.519  -3.210  0.00  0.00    -0.082 HD
BRANCH   2  10
ATOM      9  C   UNL     1      -3.431   4.723  -4.312  0.00  0.00    -0.017 C 
ATOM     10  C   UNL     1      -3.115   5.602  -3.100  0.00  0.00    -0.082 C 
ENDBRANCH   2  10
ENDBRANCH   1   5
BRANCH   1  11
ATOM     11  C   UNL     1       1.131   2.111   0.284  0.00  0.00    +0.012 A 
ATOM     12  C   UNL     1      -0.068   1.467   0.524  0.00  0.00    +0.008 A 
ATOM     13  C   UNL     1      -0.085   0.107   0.775  0.00  0.00    +0.000 A 
ATOM     14  C   UNL     1       1.098  -0.609   0.787  0.00  0.00    +0.003 A 
ATOM     15  C   UNL     1       2.298   0.033   0.548  0.00  0.00    +0.039 A 
ATOM     16  C   UNL     1       2.316   1.394   0.296  0.00  0.00    +0.128 A 
ATOM     17  F   UNL     1       3.489   2.023   0.063  0.00  0.00    -0.205 F 
ENDBRANCH   1  11
BRANCH   1  18
ATOM     18  C   UNL     1       1.380   4.338   1.300  0.00  0.00    +0.173 A 
ATOM     19  N   UNL     1       0.526   4.484   2.283  0.00  0.00    -0.111 NA
ATOM     20  N   UNL     1       1.095   5.183   3.204  0.00  0.00    -0.023 NA
ATOM     21  N   UNL     1       2.290   5.486   2.834  0.00  0.00    -0.044 NA
ATOM     22  N   UNL     1       2.506   4.979   1.667  0.00  0.00    -0.224 N 
BRANCH  22  23
ATOM     23  C   UNL     1       3.741   5.085   0.887  0.00  0.00    +0.111 C 
ATOM     24  C   UNL     1       4.896   4.462   1.674  0.00  0.00    +0.027 C 
ATOM     25  C   UNL     1       6.186   4.572   0.860  0.00  0.00    +0.002 C 
ATOM     26  C   UNL     1       6.492   6.045   0.586  0.00  0.00    +0.000 C 
ATOM     27  C   UNL     1       5.338   6.668  -0.201  0.00  0.00    +0.002 C 
ATOM     28  C   UNL     1       4.048   6.559   0.614  0.00  0.00    +0.027 C 
ENDBRANCH  22  23
ENDBRANCH   1  18
TORSDOF 5
