REMARK  Name = ZINC11617380
REMARK  4 active torsions:
REMARK  status: ('A' for Active; 'I' for Inactive)
REMARK    1  A    between atoms: C_1  and  N_2
REMARK    2  A    between atoms: C_11  and  C_12
REMARK    3  A    between atoms: C_11  and  C_14
REMARK    4  A    between atoms: C_14  and  C_16
REMARK                            x       y       z     vdW  Elec       q    Type
REMARK                         _______ _______ _______ _____ _____    ______ ____
ROOT
ATOM      1  C   UNL     1       0.219   1.347   1.011  0.00  0.00    +0.137 C 
ATOM      2  N   UNL     1       0.161  -0.080   0.681  0.00  0.00    -0.289 N 
ATOM      3  C   UNL     1      -0.930  -0.918   0.881  0.00  0.00    +0.056 A 
ATOM      4  C   UNL     1      -2.200  -0.712   1.405  0.00  0.00    +0.025 A 
ATOM      5  C   UNL     1      -3.092  -1.763   1.478  0.00  0.00    +0.002 A 
ATOM      6  C   UNL     1      -2.727  -3.022   1.031  0.00  0.00    +0.002 A 
ATOM      7  C   UNL     1      -1.467  -3.237   0.509  0.00  0.00    +0.025 A 
ATOM      8  C   UNL     1      -0.562  -2.188   0.430  0.00  0.00    +0.054 A 
ATOM      9  N   UNL     1       0.745  -2.095  -0.034  0.00  0.00    -0.300 N 
ATOM     10  C   UNL     1       1.162  -0.810   0.121  0.00  0.00    +0.116 C 
ATOM     11  C   UNL     1       2.425  -0.317  -0.236  0.00  0.00    +0.138 C 
ATOM     12  H   UNL     1       1.268  -2.821  -0.408  0.00  0.00    +0.153 HD
ENDROOT
BRANCH  11  13
ATOM     13  C   UNL     1       3.443  -1.216  -0.689  0.00  0.00    +0.106 C 
ATOM     14  N   UNL     1       4.251  -1.930  -1.048  0.00  0.00    -0.191 NA
ENDBRANCH  11  13
BRANCH  11  15
ATOM     15  C   UNL     1       2.703   1.115  -0.148  0.00  0.00    +0.241 C 
ATOM     16  O   UNL     1       2.119   1.896  -0.881  0.00  0.00    -0.283 OA
BRANCH  15  17
ATOM     17  C   UNL     1       3.684   1.614   0.825  0.00  0.00    +0.175 A 
ATOM     18  C   UNL     1       4.032   2.920   1.015  0.00  0.00    +0.053 A 
ATOM     19  C   UNL     1       4.995   2.937   2.036  0.00  0.00    +0.042 A 
ATOM     20  C   UNL     1       5.191   1.657   2.420  0.00  0.00    +0.196 A 
ATOM     21  O   UNL     1       4.394   0.863   1.690  0.00  0.00    -0.460 OA
ENDBRANCH  15  17
ENDBRANCH  11  15
TORSDOF 3
