REMARK  Name = ZINC08084059
REMARK  3 active torsions:
REMARK  status: ('A' for Active; 'I' for Inactive)
REMARK    1  A    between atoms: C_10  and  N_12
REMARK    2  A    between atoms: C_13  and  C_15
REMARK    3  A    between atoms: C_20  and  N_21
REMARK                            x       y       z     vdW  Elec       q    Type
REMARK                         _______ _______ _______ _____ _____    ______ ____
ROOT
ATOM      1  N   UNL     1       3.120   2.553  -1.054  0.00  0.00    -0.304 N 
ATOM      2  C   UNL     1       3.829   3.608  -0.608  0.00  0.00    +0.247 C 
ATOM      3  O   UNL     1       3.695   3.990   0.539  0.00  0.00    -0.270 OA
ATOM      4  H   UNL     1       3.227   2.249  -1.969  0.00  0.00    +0.150 HD
ENDROOT
BRANCH   1  14
ATOM      5  C   UNL     1      -1.484   4.059  -0.126  0.00  0.00    +0.000 A 
ATOM      6  C   UNL     1      -0.268   4.714  -0.095  0.00  0.00    +0.000 A 
ATOM      7  C   UNL     1       0.903   3.986  -0.108  0.00  0.00    +0.006 A 
ATOM      8  C   UNL     1       0.871   2.598  -0.152  0.00  0.00    -0.024 A 
ATOM      9  C   UNL     1      -0.341   1.945  -0.187  0.00  0.00    -0.042 A 
ATOM     10  C   UNL     1      -1.519   2.681  -0.177  0.00  0.00    +0.004 A 
ATOM     11  C   UNL     1      -0.452   0.444  -0.241  0.00  0.00    +0.035 C 
ATOM     12  C   UNL     1       0.864  -0.208   0.179  0.00  0.00    +0.007 C 
ATOM     13  C   UNL     1       1.999   0.426  -0.633  0.00  0.00    +0.027 C 
ATOM     14  C   UNL     1       2.187   1.865  -0.157  0.00  0.00    +0.104 C 
ENDBRANCH   1  14
BRANCH   2  15
ATOM     15  C   UNL     1       4.770   4.302  -1.512  0.00  0.00    +0.067 A 
ATOM     16  C   UNL     1       5.027   3.788  -2.784  0.00  0.00    +0.017 A 
ATOM     17  C   UNL     1       5.906   4.439  -3.623  0.00  0.00    +0.021 A 
ATOM     18  C   UNL     1       6.532   5.602  -3.207  0.00  0.00    +0.043 A 
ATOM     19  C   UNL     1       6.281   6.117  -1.946  0.00  0.00    +0.053 A 
ATOM     20  C   UNL     1       5.399   5.478  -1.100  0.00  0.00    +0.140 A 
ATOM     21 CL   UNL     1       7.637   6.417  -4.269  0.00  0.00    -0.083 Cl
BRANCH  20  22
ATOM     22  N   UNL     1       5.127   6.034   0.244  0.00  0.00    +0.057 N 
ATOM     23  O   UNL     1       3.978   6.196   0.614  0.00  0.00    -0.126 OA
ATOM     24  O   UNL     1       6.051   6.328   0.981  0.00  0.00    -0.126 OA
ENDBRANCH  20  22
ENDBRANCH   2  15
TORSDOF 3
