REMARK  Name = ZINC10741147
REMARK  5 active torsions:
REMARK  status: ('A' for Active; 'I' for Inactive)
REMARK    1  A    between atoms: C_1  and  C_2
REMARK    2  A    between atoms: C_5  and  C_11
REMARK    3  A    between atoms: C_6  and  C_10
REMARK    4  A    between atoms: C_12  and  C_13
REMARK    5  A    between atoms: N_15  and  C_16
REMARK                            x       y       z     vdW  Elec       q    Type
REMARK                         _______ _______ _______ _____ _____    ______ ____
ROOT
ATOM      1  C   UNL     1      -2.326  -0.953   0.019  0.00  0.00    +0.033 C 
ATOM      2  C   UNL     1      -3.073  -1.650  -0.881  0.00  0.00    +0.069 C 
ENDROOT
BRANCH   1   7
ATOM      3  C   UNL     1       1.317   3.563   0.008  0.00  0.00    +0.053 C 
ATOM      4  C   UNL     1       1.120   2.069   0.003  0.00  0.00    +0.007 A 
ATOM      5  C   UNL     1      -0.017   1.371   0.010  0.00  0.00    +0.104 A 
ATOM      6  N   UNL     1       0.002  -0.004   0.002  0.00  0.00    -0.293 N 
ATOM      7  C   UNL     1      -0.921  -1.064   0.005  0.00  0.00    +0.070 A 
ATOM      8  C   UNL     1      -0.188  -2.236  -0.009  0.00  0.00    +0.065 A 
ATOM      9  N   UNL     1       1.101  -1.914  -0.019  0.00  0.00    -0.226 NA
ATOM     10  C   UNL     1       1.227  -0.611  -0.013  0.00  0.00    +0.178 A 
ATOM     11  S   UNL     1       2.347   0.771  -0.016  0.00  0.00    -0.055 S 
ATOM     12  C   UNL     1      -0.751  -3.634  -0.012  0.00  0.00    +0.068 C 
ENDBRANCH   1   7
BRANCH   2  13
ATOM     13  C   UNL     1      -4.478  -1.539  -0.867  0.00  0.00    +0.237 C 
ATOM     14  O   UNL     1      -5.024  -0.819  -0.050  0.00  0.00    -0.271 OA
ATOM     15  N   UNL     1      -5.218  -2.228  -1.758  0.00  0.00    -0.309 N 
ATOM     16  H   UNL     1      -4.783  -2.801  -2.409  0.00  0.00    +0.149 HD
BRANCH  15  17
ATOM     17  C   UNL     1      -6.678  -2.113  -1.744  0.00  0.00    +0.073 C 
ATOM     18  C   UNL     1      -7.257  -3.096  -0.724  0.00  0.00    +0.022 C 
ATOM     19  C   UNL     1      -8.706  -2.714  -0.415  0.00  0.00    +0.002 C 
ATOM     20  C   UNL     1      -8.806  -1.200  -0.224  0.00  0.00    +0.000 C 
ATOM     21  C   UNL     1      -9.630  -0.596  -1.363  0.00  0.00    +0.000 C 
ATOM     22  C   UNL     1      -8.779  -0.542  -2.634  0.00  0.00    +0.000 C 
ATOM     23  C   UNL     1      -8.673  -1.943  -3.237  0.00  0.00    +0.002 C 
ATOM     24  C   UNL     1      -7.229  -2.437  -3.134  0.00  0.00    +0.022 C 
ENDBRANCH  15  17
ENDBRANCH   2  13
TORSDOF 3
