REMARK  Name = ZINC49284634
REMARK  5 active torsions:
REMARK  status: ('A' for Active; 'I' for Inactive)
REMARK    1  A    between atoms: C_1  and  C_2
REMARK    2  A    between atoms: C_7  and  C_9
REMARK    3  A    between atoms: C_7  and  C_10
REMARK    4  A    between atoms: N_13  and  C_14
REMARK    5  A    between atoms: C_14  and  C_15
REMARK                            x       y       z     vdW  Elec       q    Type
REMARK                         _______ _______ _______ _____ _____    ______ ____
ROOT
ATOM      1  C   UNL     1      -0.025   1.524   0.013  0.00  0.00    +0.039 C 
ATOM      2  C   UNL     1      -0.002  -0.006   0.004  0.00  0.00    +0.133 C 
ATOM      3  C   UNL     1       0.718  -0.500  -1.256  0.00  0.00    +0.140 C 
ATOM      4  N   UNL     1       0.892  -1.957  -1.150  0.00  0.00    -0.280 N 
ATOM      5  C   UNL     1       1.482  -2.496   0.086  0.00  0.00    +0.143 C 
ATOM      6  C   UNL     1       0.724  -1.905   1.280  0.00  0.00    +0.080 C 
ATOM      7  O   UNL     1       0.691  -0.481   1.160  0.00  0.00    -0.368 OA
ATOM      8  C   UNL     1      -0.707  -2.448   1.297  0.00  0.00    +0.043 C 
ATOM      9  C   UNL     1       1.434  -2.292   2.579  0.00  0.00    +0.043 C 
ATOM     10  C   UNL     1       0.523  -2.775  -2.156  0.00  0.00    +0.303 C 
ATOM     11  O   UNL     1       0.757  -3.966  -2.089  0.00  0.00    -0.253 OA
ATOM     12  N   UNL     1      -0.106  -2.272  -3.237  0.00  0.00    -0.295 N 
ATOM     13  H   UNL     1      -0.227  -1.313  -3.325  0.00  0.00    +0.151 HD
ENDROOT
BRANCH  12  14
ATOM     14  C   UNL     1      -0.607  -3.172  -4.278  0.00  0.00    +0.148 C 
BRANCH  14  15
ATOM     15  C   UNL     1      -1.264  -2.365  -5.368  0.00  0.00    +0.008 A 
ATOM     16  C   UNL     1      -0.715  -1.842  -6.491  0.00  0.00    +0.014 A 
ATOM     17  C   UNL     1      -1.518  -1.127  -7.360  0.00  0.00    +0.028 A 
ATOM     18  C   UNL     1      -2.832  -0.970  -7.062  0.00  0.00    +0.078 A 
ATOM     19  S   UNL     1      -2.968  -1.855  -5.517  0.00  0.00    -0.080 S 
ATOM     20 CL   UNL     1      -4.064  -0.133  -7.954  0.00  0.00    -0.076 Cl
ENDBRANCH  14  15
ENDBRANCH  12  14
TORSDOF 2
