REMARK  Name = ZINC14755975
REMARK  12 active torsions:
REMARK  status: ('A' for Active; 'I' for Inactive)
REMARK    1  A    between atoms: C_1  and  C_2
REMARK    2  A    between atoms: C_5  and  N_9
REMARK    3  A    between atoms: C_7  and  C_8
REMARK    4  A    between atoms: C_10  and  C_29
REMARK    5  A    between atoms: C_13  and  S_14
REMARK    6  A    between atoms: S_14  and  C_15
REMARK    7  A    between atoms: C_15  and  C_17
REMARK    8  A    between atoms: C_15  and  C_18
REMARK    9  A    between atoms: N_20  and  C_21
REMARK   10  A    between atoms: C_22  and  C_28
REMARK   11  A    between atoms: N_24  and  C_27
REMARK   12  A    between atoms: C_25  and  C_26
REMARK                            x       y       z     vdW  Elec       q    Type
REMARK                         _______ _______ _______ _____ _____    ______ ____
ROOT
ATOM      1  N   UNL     1       2.107   0.536   0.573  0.00  0.00    -0.270 N 
ATOM      2  C   UNL     1       2.582  -0.038  -0.585  0.00  0.00    +0.169 A 
ATOM      3  N   UNL     1       3.893  -0.042  -0.504  0.00  0.00    -0.128 NA
ATOM      4  N   UNL     1       4.266   0.482   0.608  0.00  0.00    -0.122 NA
ATOM      5  C   UNL     1       3.217   0.859   1.305  0.00  0.00    +0.197 A 
ENDROOT
BRANCH   1  10
ATOM      6  C   UNL     1      -3.317   1.403   2.000  0.00  0.00    +0.044 C 
ATOM      7  C   UNL     1      -1.877   1.173   1.621  0.00  0.00    -0.047 A 
ATOM      8  C   UNL     1      -1.380  -0.116   1.546  0.00  0.00    +0.005 A 
ATOM      9  C   UNL     1      -0.059  -0.330   1.205  0.00  0.00    +0.026 A 
ATOM     10  C   UNL     1       0.768   0.750   0.926  0.00  0.00    +0.051 A 
ATOM     11  C   UNL     1       0.265   2.042   0.996  0.00  0.00    +0.030 A 
ATOM     12  C   UNL     1      -1.056   2.250   1.343  0.00  0.00    -0.046 A 
ATOM     13  C   UNL     1      -1.602   3.653   1.420  0.00  0.00    +0.044 C 
ENDBRANCH   1  10
BRANCH   2  14
ATOM     14  C   UNL     1       1.770  -0.552  -1.708  0.00  0.00    +0.020 A 
ATOM     15  C   UNL     1       2.336  -1.421  -2.643  0.00  0.00    +0.011 A 
ATOM     16  C   UNL     1       1.571  -1.902  -3.685  0.00  0.00    +0.001 A 
ATOM     17  C   UNL     1       0.249  -1.515  -3.812  0.00  0.00    +0.000 A 
ATOM     18  C   UNL     1      -0.317  -0.649  -2.893  0.00  0.00    +0.001 A 
ATOM     19  C   UNL     1       0.436  -0.166  -1.843  0.00  0.00    +0.011 A 
ENDBRANCH   2  14
BRANCH   5  20
ATOM     20  S   UNL     1       3.237   1.632   2.888  0.00  0.00    -0.073 S 
BRANCH  20  21
ATOM     21  C   UNL     1       5.022   1.716   3.175  0.00  0.00    +0.137 C 
ATOM     22  C   UNL     1       5.588   0.299   3.290  0.00  0.00    +0.029 C 
BRANCH  21  23
ATOM     23  C   UNL     1       5.291   2.470   4.452  0.00  0.00    +0.230 C 
ATOM     24  O   UNL     1       4.445   2.514   5.320  0.00  0.00    -0.274 OA
ATOM     25  N   UNL     1       6.472   3.095   4.630  0.00  0.00    -0.282 N 
ATOM     26  H   UNL     1       7.118   3.126   3.907  0.00  0.00    +0.155 HD
BRANCH  25  27
ATOM     27  C   UNL     1       6.768   3.702   5.865  0.00  0.00    +0.077 A 
ATOM     28  C   UNL     1       5.915   4.538   6.599  0.00  0.00    +0.081 A 
ATOM     29  N   UNL     1       6.538   4.906   7.689  0.00  0.00    -0.175 NA
ATOM     30  N   UNL     1       7.810   4.320   7.691  0.00  0.00    -0.270 N 
ATOM     31  C   UNL     1       7.928   3.578   6.559  0.00  0.00    +0.057 A 
ATOM     32  C   UNL     1       9.130   2.767   6.147  0.00  0.00    +0.067 C 
ATOM     33  C   UNL     1       8.830   4.475   8.730  0.00  0.00    +0.172 C 
ATOM     34  C   UNL     1       4.519   4.943   6.202  0.00  0.00    +0.069 C 
ENDBRANCH  25  27
ENDBRANCH  21  23
ENDBRANCH  20  21
ENDBRANCH   5  20
TORSDOF 6
