REMARK  Name = ZINC20022254
REMARK  3 active torsions:
REMARK  status: ('A' for Active; 'I' for Inactive)
REMARK    1  A    between atoms: C_4  and  S_8
REMARK    2  A    between atoms: S_8  and  N_11
REMARK    3  A    between atoms: N_11  and  C_12
REMARK                            x       y       z     vdW  Elec       q    Type
REMARK                         _______ _______ _______ _____ _____    ______ ____
ROOT
ATOM      1  N   UNL     1      -2.261  -0.590   1.453  0.00  0.00    -0.216 N 
ATOM      2  H   UNL     1      -2.798  -1.460   1.859  0.00  0.00    +0.174 HD
ENDROOT
BRANCH   1   3
ATOM      3  C   UNL     1      -2.640   0.701   1.828  0.00  0.00    +0.053 A 
ATOM      4  C   UNL     1      -3.171   1.569   0.883  0.00  0.00    +0.025 A 
ATOM      5  C   UNL     1      -3.552   2.844   1.251  0.00  0.00    +0.004 A 
ATOM      6  C   UNL     1      -3.393   3.262   2.558  0.00  0.00    +0.023 A 
ATOM      7  C   UNL     1      -2.854   2.400   3.507  0.00  0.00    +0.032 A 
ATOM      8  C   UNL     1      -2.479   1.117   3.146  0.00  0.00    -0.004 A 
ATOM      9  C   UNL     1      -1.903   0.152   4.149  0.00  0.00    +0.040 C 
ATOM     10  C   UNL     1      -1.344   0.906   5.356  0.00  0.00    +0.023 C 
ATOM     11  C   UNL     1      -2.419   1.867   5.881  0.00  0.00    +0.102 C 
ATOM     12  N   UNL     1      -2.698   2.849   4.824  0.00  0.00    -0.344 N 
ATOM     13  H   UNL     1      -2.782   3.917   5.073  0.00  0.00    +0.146 HD
ENDBRANCH   1   3
BRANCH   1  14
ATOM     14  S   UNL     1      -1.004  -0.811   0.398  0.00  0.00    +0.075 S 
ATOM     15  O   UNL     1      -1.226   0.077  -0.689  0.00  0.00    -0.150 OA
ATOM     16  O   UNL     1      -0.865  -2.214   0.220  0.00  0.00    -0.150 OA
BRANCH  14  20
ATOM     17  C   UNL     1       2.758   0.608   2.481  0.00  0.00    +0.003 A 
ATOM     18  C   UNL     1       2.612  -0.726   2.149  0.00  0.00    +0.002 A 
ATOM     19  C   UNL     1       1.463  -1.159   1.514  0.00  0.00    +0.032 A 
ATOM     20  C   UNL     1       0.460  -0.259   1.209  0.00  0.00    +0.143 A 
ATOM     21  C   UNL     1       0.605   1.077   1.541  0.00  0.00    +0.150 A 
ATOM     22  C   UNL     1       1.756   1.510   2.178  0.00  0.00    +0.040 A 
ATOM     23  F   UNL     1      -0.373   1.960   1.239  0.00  0.00    -0.203 F 
ENDBRANCH  14  20
ENDBRANCH   1  14
TORSDOF 3
