REMARK  Name = ZINC10678142
REMARK  3 active torsions:
REMARK  status: ('A' for Active; 'I' for Inactive)
REMARK    1  A    between atoms: C_5  and  O_7
REMARK    2  A    between atoms: O_7  and  S_8
REMARK    3  A    between atoms: S_8  and  C_11
REMARK                            x       y       z     vdW  Elec       q    Type
REMARK                         _______ _______ _______ _____ _____    ______ ____
ROOT
ATOM      1  O   UNL     1       1.224  -2.043  -0.021  0.00  0.00    -0.342 OA
ENDROOT
BRANCH   1   6
ATOM      2  C   UNL     1      -0.017   1.379   0.010  0.00  0.00    +0.004 A 
ATOM      3  C   UNL     1       1.164   2.088   0.002  0.00  0.00    +0.012 A 
ATOM      4  C   UNL     1       2.394   1.412  -0.014  0.00  0.00    +0.024 A 
ATOM      5  C   UNL     1       2.407   0.018  -0.021  0.00  0.00    +0.008 A 
ATOM      6  C   UNL     1       1.212  -0.684  -0.013  0.00  0.00    +0.161 A 
ATOM      7  C   UNL     1       0.002  -0.004   0.002  0.00  0.00    +0.049 A 
ATOM      8  C   UNL     1       3.834  -0.475  -0.038  0.00  0.00    +0.047 C 
ATOM      9  C   UNL     1       4.723   0.777  -0.040  0.00  0.00    +0.084 C 
ATOM     10  C   UNL     1       3.767   1.945  -0.024  0.00  0.00    +0.164 C 
ATOM     11  O   UNL     1       4.075   3.117  -0.022  0.00  0.00    -0.292 OA
ENDBRANCH   1   6
BRANCH   1  12
ATOM     12  S   UNL     1       1.245  -2.670   1.366  0.00  0.00    +0.152 S 
ATOM     13  O   UNL     1       1.466  -4.062   1.180  0.00  0.00    -0.131 OA
ATOM     14  O   UNL     1       2.100  -1.863   2.164  0.00  0.00    -0.131 OA
BRANCH  12  15
ATOM     15  C   UNL     1      -0.376  -2.503   2.037  0.00  0.00    +0.146 A 
ATOM     16  C   UNL     1      -0.719  -1.378   2.773  0.00  0.00    +0.035 A 
ATOM     17  C   UNL     1      -2.004  -1.289   3.281  0.00  0.00    +0.042 A 
ATOM     18  C   UNL     1      -2.898  -2.318   3.041  0.00  0.00    +0.129 A 
ATOM     19  N   UNL     1      -2.536  -3.374   2.336  0.00  0.00    -0.242 NA
ATOM     20  C   UNL     1      -1.322  -3.489   1.833  0.00  0.00    +0.143 A 
ATOM     21 CL   UNL     1      -4.511  -2.220   3.673  0.00  0.00    -0.062 Cl
ENDBRANCH  12  15
ENDBRANCH   1  12
TORSDOF 3
