REMARK  Name = ZINC59416872
REMARK  8 active torsions:
REMARK  status: ('A' for Active; 'I' for Inactive)
REMARK    1  A    between atoms: C_1  and  C_2
REMARK    2  A    between atoms: C_2  and  C_3
REMARK    3  A    between atoms: C_2  and  C_4
REMARK    4  A    between atoms: C_2  and  N_5
REMARK    5  A    between atoms: N_5  and  C_6
REMARK    6  A    between atoms: C_6  and  C_7
REMARK    7  A    between atoms: N_9  and  C_10
REMARK    8  A    between atoms: C_13  and  N_17
REMARK                            x       y       z     vdW  Elec       q    Type
REMARK                         _______ _______ _______ _____ _____    ______ ____
ROOT
ATOM      1  C   UNL     1       3.749  -0.896  -1.629  0.00  0.00    +0.200 C 
ATOM      2  O   UNL     1       3.986  -2.085  -1.670  0.00  0.00    -0.278 OA
ATOM      3  N   UNL     1       4.057  -0.111  -2.681  0.00  0.00    -0.285 N 
ATOM      4  H   UNL     1       3.802   0.825  -2.678  0.00  0.00    +0.155 HD
ENDROOT
BRANCH   3   5
ATOM      5  C   UNL     1       4.744  -0.646  -3.776  0.00  0.00    +0.062 A 
ATOM      6  C   UNL     1       4.039  -1.175  -4.850  0.00  0.00    +0.042 A 
ATOM      7  C   UNL     1       4.721  -1.702  -5.931  0.00  0.00    +0.050 A 
ATOM      8  C   UNL     1       6.104  -1.705  -5.943  0.00  0.00    +0.128 A 
ATOM      9  C   UNL     1       6.809  -1.180  -4.876  0.00  0.00    +0.050 A 
ATOM     10  C   UNL     1       6.133  -0.645  -3.795  0.00  0.00    +0.042 A 
ATOM     11 BR   UNL     1       7.099   0.080  -2.340  0.00  0.00    -0.048 Br
ATOM     12 BR   UNL     1       2.148  -1.172  -4.834  0.00  0.00    -0.048 Br
BRANCH   8  13
ATOM     13  N   UNL     1       6.831  -2.271  -7.101  0.00  0.00    +0.056 N 
ATOM     14  O   UNL     1       6.215  -2.731  -8.035  0.00  0.00    -0.126 OA
ATOM     15  O   UNL     1       8.040  -2.274  -7.114  0.00  0.00    -0.126 OA
ENDBRANCH   8  13
ENDBRANCH   3   5
BRANCH   1  16
ATOM     16  C   UNL     1       3.111  -0.297  -0.403  0.00  0.00    +0.016 C 
BRANCH  16  17
ATOM     17  N   UNL     1       2.877  -1.352   0.593  0.00  0.00    +0.388 N 
ATOM     18  H   UNL     1       3.757  -1.777   0.845  0.00  0.00    -0.084 HD
ATOM     19  H   UNL     1       2.264  -2.052   0.203  0.00  0.00    -0.084 HD
BRANCH  17  21
ATOM     20  C   UNL     1       0.921  -0.123   1.405  0.00  0.00    -0.011 C 
ATOM     21  C   UNL     1       2.255  -0.768   1.788  0.00  0.00    -0.076 C 
ATOM     22  C   UNL     1       3.183   0.295   2.379  0.00  0.00    -0.011 C 
ATOM     23  C   UNL     1       2.011  -1.866   2.825  0.00  0.00    -0.011 C 
ENDBRANCH  17  21
ENDBRANCH  16  17
ENDBRANCH   1  16
TORSDOF 5
