REMARK  Name = ZINC65738584
REMARK  8 active torsions:
REMARK  status: ('A' for Active; 'I' for Inactive)
REMARK    1  A    between atoms: C_1  and  C_2
REMARK    2  A    between atoms: C_4  and  C_7
REMARK    3  A    between atoms: C_7  and  N_8
REMARK    4  A    between atoms: C_9  and  C_11
REMARK    5  A    between atoms: C_13  and  C_21
REMARK    6  A    between atoms: C_17  and  C_20
REMARK    7  A    between atoms: C_23  and  C_27
REMARK    8  A    between atoms: C_25  and  C_26
REMARK                            x       y       z     vdW  Elec       q    Type
REMARK                         _______ _______ _______ _____ _____    ______ ____
ROOT
ATOM      1  C   UNL     1       3.063  -4.920  -3.448  0.00  0.00    +0.053 A 
ATOM      2  C   UNL     1       4.121  -4.067  -3.151  0.00  0.00    +0.042 A 
ATOM      3  C   UNL     1       5.430  -4.508  -3.365  0.00  0.00    +0.079 A 
ATOM      4  N   UNL     1       5.682  -5.717  -3.843  0.00  0.00    -0.210 NA
ATOM      5  C   UNL     1       4.713  -6.567  -4.142  0.00  0.00    +0.260 A 
ATOM      6  C   UNL     1       3.369  -6.202  -3.950  0.00  0.00    +0.076 A 
ATOM      7  C   UNL     1       2.561  -7.348  -4.363  0.00  0.00    +0.091 A 
ATOM      8  N   UNL     1       3.379  -8.280  -4.749  0.00  0.00    -0.080 NA
ATOM      9  O   UNL     1       4.711  -7.824  -4.631  0.00  0.00    -0.334 OA
ATOM     10  C   UNL     1       1.056  -7.433  -4.344  0.00  0.00    +0.070 C 
ENDROOT
BRANCH   3  11
ATOM     11  C   UNL     1       6.560  -3.603  -3.050  0.00  0.00    +0.041 A 
ATOM     12  C   UNL     1       6.480  -2.240  -2.510  0.00  0.00    +0.054 A 
ATOM     13  C   UNL     1       7.748  -1.814  -2.389  0.00  0.00    +0.103 A 
ATOM     14  O   UNL     1       8.577  -2.786  -2.801  0.00  0.00    -0.464 OA
ATOM     15  C   UNL     1       7.887  -3.864  -3.195  0.00  0.00    +0.111 A 
ATOM     16  C   UNL     1       8.480  -5.149  -3.714  0.00  0.00    +0.087 C 
ATOM     17  C   UNL     1       8.172  -0.463  -1.873  0.00  0.00    +0.086 C 
ENDBRANCH   3  11
BRANCH   1  19
ATOM     18  N   UNL     1       1.343  -3.710  -2.191  0.00  0.00    -0.304 N 
ATOM     19  C   UNL     1       1.660  -4.498  -3.238  0.00  0.00    +0.245 C 
ATOM     20  O   UNL     1       0.794  -4.861  -4.009  0.00  0.00    -0.270 OA
ATOM     21  H   UNL     1       2.034  -3.420  -1.575  0.00  0.00    +0.149 HD
BRANCH  18  22
ATOM     22  C   UNL     1      -0.046  -3.292  -1.983  0.00  0.00    +0.181 C 
BRANCH  22  26
ATOM     23  C   UNL     1      -0.071   0.759   1.106  0.00  0.00    +0.069 C 
ATOM     24  C   UNL     1      -0.145  -0.663   0.613  0.00  0.00    +0.081 A 
ATOM     25  C   UNL     1      -0.000  -1.084  -0.721  0.00  0.00    +0.072 A 
ATOM     26  C   UNL     1      -0.130  -2.424  -0.754  0.00  0.00    +0.154 A 
ATOM     27  O   UNL     1      -0.349  -2.850   0.499  0.00  0.00    -0.358 OA
ATOM     28  N   UNL     1      -0.349  -1.718   1.350  0.00  0.00    -0.083 NA
ENDBRANCH  22  26
ENDBRANCH  18  22
ENDBRANCH   1  19
TORSDOF 4
