REMARK  Name = ZINC34730190
REMARK  4 active torsions:
REMARK  status: ('A' for Active; 'I' for Inactive)
REMARK    1  A    between atoms: C_1  and  C_2
REMARK    2  A    between atoms: C_5  and  C_24
REMARK    3  A    between atoms: C_6  and  C_8
REMARK    4  A    between atoms: C_8  and  N_9
REMARK                            x       y       z     vdW  Elec       q    Type
REMARK                         _______ _______ _______ _____ _____    ______ ____
ROOT
ATOM      1  N   UNL     1       1.265  -3.758   2.495  0.00  0.00    -0.256 N 
ATOM      2  C   UNL     1       1.698  -4.822   1.795  0.00  0.00    +0.265 A 
ATOM      3  O   UNL     1       0.985  -5.339   0.955  0.00  0.00    -0.267 OA
ATOM      4  C   UNL     1       3.052  -5.353   2.059  0.00  0.00    +0.074 A 
ATOM      5  C   UNL     1       3.723  -6.495   1.418  0.00  0.00    -0.023 A 
ATOM      6  C   UNL     1       4.962  -6.744   1.869  0.00  0.00    -0.004 A 
ATOM      7  S   UNL     1       5.245  -5.505   3.108  0.00  0.00    -0.075 S 
ATOM      8  C   UNL     1       3.789  -4.693   3.036  0.00  0.00    +0.094 A 
ATOM      9  N   UNL     1       3.270  -3.612   3.705  0.00  0.00    -0.301 N 
ATOM     10  H   UNL     1       3.801  -3.166   4.383  0.00  0.00    +0.171 HD
ATOM     11  C   UNL     1       2.032  -3.164   3.424  0.00  0.00    +0.330 A 
ATOM     12  O   UNL     1       1.598  -2.201   4.027  0.00  0.00    -0.246 OA
ATOM     13  C   UNL     1       5.587  -7.924   1.175  0.00  0.00    +0.043 C 
ATOM     14  C   UNL     1       4.400  -8.659   0.513  0.00  0.00    +0.010 C 
ATOM     15  C   UNL     1       3.382  -7.514   0.333  0.00  0.00    +0.037 C 
ENDROOT
BRANCH   1  16
ATOM     16  C   UNL     1      -0.077  -3.229   2.234  0.00  0.00    +0.165 C 
BRANCH  16  22
ATOM     17  C   UNL     1       2.611  -0.501  -0.988  0.00  0.00    +0.044 C 
ATOM     18  C   UNL     1       1.276  -0.913  -0.423  0.00  0.00    -0.050 A 
ATOM     19  C   UNL     1       0.112  -0.364  -0.928  0.00  0.00    +0.003 A 
ATOM     20  C   UNL     1      -1.112  -0.742  -0.410  0.00  0.00    +0.004 A 
ATOM     21  C   UNL     1      -1.173  -1.669   0.613  0.00  0.00    -0.046 A 
ATOM     22  C   UNL     1      -0.010  -2.219   1.118  0.00  0.00    -0.024 A 
ATOM     23  C   UNL     1       1.214  -1.844   0.597  0.00  0.00    +0.009 A 
ATOM     24  C   UNL     1      -2.508  -2.080   1.179  0.00  0.00    +0.044 C 
ENDBRANCH  16  22
ENDBRANCH   1  16
TORSDOF 2
