REMARK  Name = ZINC12520865
REMARK  9 active torsions:
REMARK  status: ('A' for Active; 'I' for Inactive)
REMARK    1  A    between atoms: C_1  and  C_2
REMARK    2  A    between atoms: C_2  and  C_3
REMARK    3  A    between atoms: C_2  and  C_4
REMARK    4  A    between atoms: C_2  and  C_5
REMARK    5  A    between atoms: C_8  and  O_26
REMARK    6  A    between atoms: C_9  and  N_11
REMARK    7  A    between atoms: N_11  and  S_12
REMARK    8  A    between atoms: S_12  and  C_15
REMARK    9  A    between atoms: O_26  and  C_27
REMARK                            x       y       z     vdW  Elec       q    Type
REMARK                         _______ _______ _______ _____ _____    ______ ____
ROOT
ATOM      1  S   UNL     1       3.946   2.412   0.003  0.00  0.00    +0.073 S 
ATOM      2  O   UNL     1       3.730   3.722   0.508  0.00  0.00    -0.150 OA
ATOM      3  O   UNL     1       4.927   1.538   0.546  0.00  0.00    -0.150 OA
ENDROOT
BRANCH   1   4
ATOM      4  C   UNL     1       2.404   1.568   0.114  0.00  0.00    +0.110 A 
ATOM      5  C   UNL     1       2.376   0.186   0.175  0.00  0.00    +0.032 A 
ATOM      6  C   UNL     1       1.170  -0.484   0.263  0.00  0.00    +0.049 A 
ATOM      7  C   UNL     1      -0.015   0.231   0.290  0.00  0.00    +0.142 A 
ATOM      8  C   UNL     1       0.012   1.623   0.227  0.00  0.00    +0.078 A 
ATOM      9  C   UNL     1       1.224   2.288   0.139  0.00  0.00    +0.055 A 
ATOM     10  N   UNL     1      -1.196   2.334   0.248  0.00  0.00    -0.280 N 
ATOM     11  C   UNL     1      -2.320   1.701   0.651  0.00  0.00    +0.255 C 
ATOM     12  O   UNL     1      -3.382   2.288   0.653  0.00  0.00    -0.272 OA
ATOM     13  C   UNL     1      -2.250   0.262   1.094  0.00  0.00    +0.325 C 
ATOM     14  O   UNL     1      -1.211  -0.411   0.378  0.00  0.00    -0.481 OA
ATOM     15  H   UNL     1      -1.223   3.268  -0.016  0.00  0.00    +0.155 HD
ENDBRANCH   1   4
BRANCH   1  16
ATOM     16  N   UNL     1       4.300   2.577  -1.606  0.00  0.00    -0.213 N 
ATOM     17  H   UNL     1       5.105   2.177  -1.970  0.00  0.00    +0.174 HD
BRANCH  16  22
ATOM     18  C   UNL     1       1.921   5.122  -2.787  0.00  0.00    -0.040 A 
ATOM     19  C   UNL     1       1.727   4.717  -4.095  0.00  0.00    +0.008 A 
ATOM     20  C   UNL     1       2.385   3.602  -4.582  0.00  0.00    +0.048 A 
ATOM     21  C   UNL     1       3.245   2.891  -3.761  0.00  0.00    +0.142 A 
ATOM     22  C   UNL     1       3.436   3.295  -2.442  0.00  0.00    +0.090 A 
ATOM     23  C   UNL     1       2.773   4.415  -1.960  0.00  0.00    +0.032 A 
BRANCH  18  25
ATOM     24  C   UNL     1       2.226   7.379  -1.807  0.00  0.00    +0.015 C 
ATOM     25  C   UNL     1       1.202   6.338  -2.262  0.00  0.00    -0.013 C 
ATOM     26  C   UNL     1       0.328   6.931  -3.370  0.00  0.00    +0.015 C 
ATOM     27  C   UNL     1       0.320   5.937  -1.077  0.00  0.00    +0.015 C 
ENDBRANCH  18  25
BRANCH  21  28
ATOM     28  O   UNL     1       3.897   1.798  -4.241  0.00  0.00    -0.493 OA
ATOM     29  C   UNL     1       3.652   1.443  -5.603  0.00  0.00    +0.277 C 
ENDBRANCH  21  28
ENDBRANCH  16  22
ENDBRANCH   1  16
TORSDOF 5
