REMARK  Name = ZINC36821830
REMARK  8 active torsions:
REMARK  status: ('A' for Active; 'I' for Inactive)
REMARK    1  A    between atoms: N_7  and  C_11
REMARK    2  A    between atoms: C_11  and  C_12
REMARK    3  A    between atoms: C_12  and  C_13
REMARK    4  A    between atoms: C_13  and  C_14
REMARK    5  A    between atoms: N_16  and  C_17
REMARK    6  A    between atoms: C_17  and  C_18
REMARK    7  A    between atoms: C_18  and  C_20
REMARK    8  A    between atoms: C_18  and  N_25
REMARK                            x       y       z     vdW  Elec       q    Type
REMARK                         _______ _______ _______ _____ _____    ______ ____
ROOT
ATOM      1  C   UNL     1      -0.250  -5.773  -3.085  0.00  0.00    +0.213 C 
ATOM      2  O   UNL     1       0.418  -5.462  -4.049  0.00  0.00    -0.276 OA
ATOM      3  N   UNL     1      -1.388  -6.476  -3.253  0.00  0.00    -0.316 N 
ATOM      4  H   UNL     1      -1.922  -6.725  -2.482  0.00  0.00    +0.149 HD
ENDROOT
BRANCH   1   5
ATOM      5  C   UNL     1       0.192  -5.373  -1.701  0.00  0.00    +0.097 C 
BRANCH   5   6
ATOM      6  C   UNL     1       1.503  -4.589  -1.791  0.00  0.00    +0.031 C 
BRANCH   6   7
ATOM      7  C   UNL     1       1.952  -4.183  -0.386  0.00  0.00    +0.129 C 
BRANCH   7  14
ATOM      8  C   UNL     1       2.862   0.285  -0.845  0.00  0.00    +0.002 A 
ATOM      9  C   UNL     1       4.219   0.556  -0.883  0.00  0.00    +0.004 A 
ATOM     10  C   UNL     1       5.138  -0.470  -0.786  0.00  0.00    +0.048 A 
ATOM     11  C   UNL     1       4.702  -1.779  -0.650  0.00  0.00    +0.157 A 
ATOM     12  C   UNL     1       3.334  -2.051  -0.613  0.00  0.00    +0.090 A 
ATOM     13  C   UNL     1       2.418  -1.016  -0.710  0.00  0.00    +0.030 A 
ATOM     14  N   UNL     1       3.207  -3.433  -0.472  0.00  0.00    -0.274 N 
ATOM     15  C   UNL     1       4.450  -3.952  -0.429  0.00  0.00    +0.421 A 
ATOM     16  O   UNL     1       4.714  -5.133  -0.311  0.00  0.00    -0.223 OA
ATOM     17  O   UNL     1       5.351  -2.963  -0.535  0.00  0.00    -0.407 OA
ENDBRANCH   7  14
ENDBRANCH   6   7
ENDBRANCH   5   6
ENDBRANCH   1   5
BRANCH   3  18
ATOM     18  C   UNL     1      -1.817  -6.865  -4.598  0.00  0.00    +0.096 C 
BRANCH  18  19
ATOM     19  C   UNL     1      -3.055  -7.758  -4.500  0.00  0.00    +0.016 C 
BRANCH  19  20
ATOM     20  N   UNL     1      -2.753  -8.923  -3.658  0.00  0.00    +0.387 N 
ATOM     21  C   UNL     1      -1.576  -9.619  -4.192  0.00  0.00    -0.078 C 
ATOM     22  C   UNL     1      -1.208 -10.786  -3.273  0.00  0.00    -0.019 C 
ATOM     23  C   UNL     1      -2.387 -11.760  -3.196  0.00  0.00    -0.004 C 
ATOM     24  C   UNL     1      -3.628 -11.006  -2.708  0.00  0.00    -0.019 C 
ATOM     25  C   UNL     1      -3.906  -9.831  -3.648  0.00  0.00    -0.078 C 
ATOM     26  H   UNL     1      -2.560  -8.616  -2.716  0.00  0.00    -0.081 HD
ENDBRANCH  19  20
BRANCH  19  27
ATOM     27  C   UNL     1      -3.450  -8.224  -5.878  0.00  0.00    +0.093 A 
ATOM     28  C   UNL     1      -4.528  -7.812  -6.569  0.00  0.00    +0.043 A 
ATOM     29  C   UNL     1      -4.511  -8.500  -7.803  0.00  0.00    +0.041 A 
ATOM     30  C   UNL     1      -3.423  -9.291  -7.793  0.00  0.00    +0.195 A 
ATOM     31  O   UNL     1      -2.781  -9.116  -6.627  0.00  0.00    -0.469 OA
ENDBRANCH  19  27
ENDBRANCH  18  19
ENDBRANCH   3  18
TORSDOF 8
