REMARK  Name = ZINC03199688
REMARK  7 active torsions:
REMARK  status: ('A' for Active; 'I' for Inactive)
REMARK    1  A    between atoms: C_1  and  C_2
REMARK    2  A    between atoms: C_5  and  N_9
REMARK    3  A    between atoms: C_10  and  C_12
REMARK    4  A    between atoms: C_13  and  C_14
REMARK    5  A    between atoms: C_16  and  N_24
REMARK    6  A    between atoms: C_19  and  O_20
REMARK    7  A    between atoms: O_20  and  C_21
REMARK                            x       y       z     vdW  Elec       q    Type
REMARK                         _______ _______ _______ _____ _____    ______ ____
ROOT
ATOM      1  C   UNL     1      -3.684   3.579   0.039  0.00  0.00    +0.068 C 
ATOM      2  C   UNL     1      -2.523   4.267   0.026  0.00  0.00    +0.016 C 
ENDROOT
BRANCH   2   3
ATOM      3  C   UNL     1      -1.242   3.546  -0.001  0.00  0.00    +0.019 A 
ATOM      4  C   UNL     1      -1.222   2.147  -0.019  0.00  0.00    +0.044 A 
ATOM      5  C   UNL     1      -0.018   1.479  -0.040  0.00  0.00    +0.127 A 
ATOM      6  C   UNL     1       1.174   2.185  -0.053  0.00  0.00    +0.036 A 
ATOM      7  C   UNL     1       1.169   3.566  -0.041  0.00  0.00    +0.049 A 
ATOM      8  C   UNL     1      -0.032   4.257  -0.015  0.00  0.00    +0.134 A 
BRANCH   5   9
ATOM      9  N   UNL     1       0.003  -0.001  -0.052  0.00  0.00    +0.056 N 
ATOM     10  O   UNL     1       1.066  -0.596  -0.075  0.00  0.00    -0.126 OA
ATOM     11  O   UNL     1      -1.043  -0.625  -0.041  0.00  0.00    -0.126 OA
ENDBRANCH   5   9
BRANCH   8  12
ATOM     12  O   UNL     1      -0.038   5.614  -0.003  0.00  0.00    -0.434 OA
BRANCH  12  13
ATOM     13  C   UNL     1       1.232   6.268  -0.018  0.00  0.00    +0.541 C 
ATOM     14  F   UNL     1       1.968   5.886   1.109  0.00  0.00    -0.166 F 
ATOM     15  F   UNL     1       1.930   5.906  -1.175  0.00  0.00    -0.166 F 
ENDBRANCH  12  13
ENDBRANCH   8  12
ENDBRANCH   2   3
BRANCH   1  17
ATOM     16  N   UNL     1      -6.118   3.609   0.080  0.00  0.00    -0.281 N 
ATOM     17  C   UNL     1      -4.958   4.296   0.067  0.00  0.00    +0.241 C 
ATOM     18  O   UNL     1      -4.971   5.513   0.077  0.00  0.00    -0.270 OA
ATOM     19  H   UNL     1      -6.110   2.642   0.006  0.00  0.00    +0.155 HD
BRANCH  16  24
ATOM     20  C   UNL     1     -11.047   6.375   0.568  0.00  0.00    +0.044 C 
ATOM     21  C   UNL     1      -9.738   5.640   0.439  0.00  0.00    -0.049 A 
ATOM     22  C   UNL     1      -8.692   6.212  -0.262  0.00  0.00    +0.005 A 
ATOM     23  C   UNL     1      -7.490   5.542  -0.382  0.00  0.00    +0.025 A 
ATOM     24  C   UNL     1      -7.333   4.291   0.201  0.00  0.00    +0.052 A 
ATOM     25  C   UNL     1      -8.388   3.716   0.900  0.00  0.00    +0.062 A 
ATOM     26  C   UNL     1      -9.586   4.395   1.021  0.00  0.00    +0.025 A 
ATOM     27 CL   UNL     1      -8.199   2.150   1.625  0.00  0.00    -0.082 Cl
ENDBRANCH  16  24
ENDBRANCH   1  17
TORSDOF 6
