REMARK  Name = ZINC09408748
REMARK  7 active torsions:
REMARK  status: ('A' for Active; 'I' for Inactive)
REMARK    1  A    between atoms: C_1  and  O_2
REMARK    2  A    between atoms: O_2  and  C_3
REMARK    3  A    between atoms: C_8  and  N_9
REMARK    4  A    between atoms: N_12  and  C_15
REMARK    5  A    between atoms: C_21  and  N_23
REMARK    6  A    between atoms: N_23  and  S_24
REMARK    7  A    between atoms: S_24  and  C_27
REMARK                            x       y       z     vdW  Elec       q    Type
REMARK                         _______ _______ _______ _____ _____    ______ ____
ROOT
ATOM      1  C   UNL     1      -2.008  -3.169  -3.508  0.00  0.00    -0.050 C 
ATOM      2  C   UNL     1      -1.246  -3.782  -4.684  0.00  0.00    -0.014 C 
ATOM      3  C   UNL     1      -2.011  -3.517  -5.982  0.00  0.00    -0.001 C 
ATOM      4  C   UNL     1      -3.403  -4.147  -5.892  0.00  0.00    +0.001 C 
ATOM      5  C   UNL     1      -4.165  -3.534  -4.716  0.00  0.00    +0.019 C 
ATOM      6  C   UNL     1      -3.400  -3.799  -3.418  0.00  0.00    +0.063 C 
ENDROOT
BRANCH   1  10
ATOM      7  N   UNL     1       0.098  -2.778   0.086  0.00  0.00    -0.331 N 
ATOM      8  C   UNL     1       0.869  -3.180  -1.100  0.00  0.00    +0.086 C 
ATOM      9  C   UNL     1       0.061  -2.818  -2.351  0.00  0.00    -0.059 C 
ATOM     10  N   UNL     1      -1.273  -3.424  -2.262  0.00  0.00    +0.385 N 
ATOM     11  C   UNL     1      -2.012  -2.843  -1.133  0.00  0.00    -0.059 C 
ATOM     12  C   UNL     1      -1.305  -3.211   0.180  0.00  0.00    +0.086 C 
ATOM     13  H   UNL     1      -1.181  -4.419  -2.126  0.00  0.00    -0.081 HD
BRANCH   7  19
ATOM     14  C   UNL     1       0.626  -0.619   1.042  0.00  0.00    +0.141 A 
ATOM     15  C   UNL     1       1.202   0.136   2.051  0.00  0.00    +0.047 A 
ATOM     16  C   UNL     1       1.837  -0.490   3.107  0.00  0.00    +0.004 A 
ATOM     17  C   UNL     1       1.899  -1.870   3.162  0.00  0.00    +0.002 A 
ATOM     18  C   UNL     1       1.326  -2.631   2.160  0.00  0.00    +0.027 A 
ATOM     19  C   UNL     1       0.683  -2.010   1.099  0.00  0.00    +0.072 A 
BRANCH  14  21
ATOM     20  C   UNL     1      -0.017   1.425   0.010  0.00  0.00    +0.277 C 
ATOM     21  O   UNL     1       0.002  -0.004   0.002  0.00  0.00    -0.493 OA
ENDBRANCH  14  21
ENDBRANCH   7  19
ENDBRANCH   1  10
BRANCH   6  22
ATOM     22  N   UNL     1      -3.269  -5.244  -3.215  0.00  0.00    -0.188 NA
ATOM     23  H   UNL     1      -2.541  -5.729  -3.634  0.00  0.00    +0.148 HD
BRANCH  22  24
ATOM     24  S   UNL     1      -4.364  -6.049  -2.269  0.00  0.00    +0.059 S 
ATOM     25  O   UNL     1      -3.988  -7.420  -2.290  0.00  0.00    -0.153 OA
ATOM     26  O   UNL     1      -4.480  -5.309  -1.062  0.00  0.00    -0.153 OA
BRANCH  24  27
ATOM     27  C   UNL     1      -5.926  -5.944  -3.077  0.00  0.00    +0.105 A 
ATOM     28  C   UNL     1      -6.773  -4.885  -2.807  0.00  0.00    +0.030 A 
ATOM     29  C   UNL     1      -7.999  -4.801  -3.440  0.00  0.00    +0.022 A 
ATOM     30  C   UNL     1      -8.379  -5.778  -4.344  0.00  0.00    +0.041 A 
ATOM     31  C   UNL     1      -7.531  -6.838  -4.613  0.00  0.00    +0.022 A 
ATOM     32  C   UNL     1      -6.303  -6.917  -3.984  0.00  0.00    +0.030 A 
ATOM     33 CL   UNL     1      -9.918  -5.674  -5.139  0.00  0.00    -0.084 Cl
ENDBRANCH  24  27
ENDBRANCH  22  24
ENDBRANCH   6  22
TORSDOF 6
