REMARK  Name = ZINC00709758
REMARK  6 active torsions:
REMARK  status: ('A' for Active; 'I' for Inactive)
REMARK    1  A    between atoms: C_1  and  C_2
REMARK    2  A    between atoms: C_2  and  C_3
REMARK    3  A    between atoms: C_2  and  C_4
REMARK    4  A    between atoms: C_11  and  N_25
REMARK    5  A    between atoms: C_12  and  C_23
REMARK    6  A    between atoms: C_13  and  C_15
REMARK                            x       y       z     vdW  Elec       q    Type
REMARK                         _______ _______ _______ _____ _____    ______ ____
ROOT
ATOM      1  C   UNL     1       0.707  -0.490  -1.238  0.00  0.00    +0.073 A 
ATOM      2  C   UNL     1       1.848  -1.280  -1.270  0.00  0.00    +0.050 A 
ATOM      3  C   UNL     1       2.173  -1.503  -2.579  0.00  0.00    +0.222 A 
ATOM      4  N   UNL     1       1.263  -0.870  -3.336  0.00  0.00    -0.246 N 
ATOM      5  H   UNL     1       1.240  -0.851  -4.306  0.00  0.00    +0.192 HD
ATOM      6  N   UNL     1       0.347  -0.245  -2.475  0.00  0.00    -0.175 NA
ATOM      7  O   UNL     1       3.243  -2.248  -2.951  0.00  0.00    -0.423 OA
ATOM      8  C   UNL     1       3.839  -3.002  -2.005  0.00  0.00    +0.200 C 
ATOM      9  C   UNL     1       3.609  -2.867  -0.680  0.00  0.00    +0.098 C 
ATOM     10  C   UNL     1       2.654  -1.840  -0.126  0.00  0.00    +0.101 C 
ENDROOT
BRANCH  10  11
ATOM     11  C   UNL     1       3.429  -0.732   0.540  0.00  0.00    -0.033 A 
ATOM     12  C   UNL     1       4.345   0.004  -0.187  0.00  0.00    +0.007 A 
ATOM     13  C   UNL     1       5.056   1.020   0.422  0.00  0.00    +0.040 A 
ATOM     14  C   UNL     1       4.850   1.302   1.762  0.00  0.00    +0.137 A 
ATOM     15  C   UNL     1       3.931   0.565   2.490  0.00  0.00    +0.053 A 
ATOM     16  C   UNL     1       3.218  -0.449   1.877  0.00  0.00    +0.022 A 
ATOM     17 BR   UNL     1       3.648   0.947   4.320  0.00  0.00    -0.047 Br
ATOM     18  F   UNL     1       5.545   2.296   2.358  0.00  0.00    -0.204 F 
ENDBRANCH  10  11
BRANCH   1  20
ATOM     19  C   UNL     1      -0.019   1.526   0.010  0.00  0.00    +0.014 C 
ATOM     20  C   UNL     1       0.002  -0.004   0.002  0.00  0.00    +0.034 C 
ATOM     21  C   UNL     1      -1.433  -0.534   0.013  0.00  0.00    +0.014 C 
ENDBRANCH   1  20
BRANCH   8  22
ATOM     22  N   UNL     1       4.730  -3.964  -2.412  0.00  0.00    -0.328 N 
ATOM     23  H   UNL     1       4.916  -4.085  -3.356  0.00  0.00    +0.145 HD
ATOM     24  H   UNL     1       5.175  -4.522  -1.755  0.00  0.00    +0.145 HD
ENDBRANCH   8  22
BRANCH   9  25
ATOM     25  C   UNL     1       4.299  -3.731   0.231  0.00  0.00    +0.101 C 
ATOM     26  N   UNL     1       4.845  -4.415   0.953  0.00  0.00    -0.191 NA
ENDBRANCH   9  25
TORSDOF 4
