REMARK  Name = ZINC64044011
REMARK  5 active torsions:
REMARK  status: ('A' for Active; 'I' for Inactive)
REMARK    1  A    between atoms: C_1  and  C_2
REMARK    2  A    between atoms: C_2  and  C_3
REMARK    3  A    between atoms: C_6  and  C_9
REMARK    4  A    between atoms: C_24  and  C_26
REMARK    5  A    between atoms: C_26  and  N_27
REMARK                            x       y       z     vdW  Elec       q    Type
REMARK                         _______ _______ _______ _____ _____    ______ ____
ROOT
ATOM      1  C   UNL     1       2.707  -1.868  -4.752  0.00  0.00    +0.133 C 
ATOM      2  C   UNL     1       3.075  -3.347  -4.592  0.00  0.00    +0.131 C 
ATOM      3  C   UNL     1       4.193  -3.407  -3.558  0.00  0.00    -0.035 C 
ATOM      4  C   UNL     1       3.774  -4.226  -2.601  0.00  0.00    -0.001 A 
ATOM      5  C   UNL     1       4.433  -4.729  -1.385  0.00  0.00    +0.010 A 
ATOM      6  C   UNL     1       3.696  -5.562  -0.604  0.00  0.00    +0.001 A 
ATOM      7  C   UNL     1       2.384  -5.940  -0.907  0.00  0.00    +0.002 A 
ATOM      8  C   UNL     1       1.702  -5.530  -2.006  0.00  0.00    +0.026 A 
ATOM      9  C   UNL     1       2.375  -4.654  -2.907  0.00  0.00    +0.043 A 
ATOM     10  N   UNL     1       1.964  -4.130  -4.048  0.00  0.00    -0.375 N 
ATOM     11  C   UNL     1       5.451  -2.582  -3.676  0.00  0.00    +0.052 C 
ATOM     12  C   UNL     1       5.005  -1.129  -3.924  0.00  0.00    +0.113 C 
ATOM     13  N   UNL     1       3.953  -1.110  -4.947  0.00  0.00    -0.290 N 
ATOM     14  C   UNL     1       4.128  -0.393  -6.075  0.00  0.00    +0.234 C 
ATOM     15  O   UNL     1       3.262  -0.376  -6.923  0.00  0.00    -0.274 OA
ATOM     16  H   UNL     1       1.090  -4.232  -4.455  0.00  0.00    +0.160 HD
ENDROOT
BRANCH   1  20
ATOM     17  C   UNL     1       0.707  -0.490  -1.238  0.00  0.00    -0.048 A 
ATOM     18  C   UNL     1       0.059  -0.461  -2.459  0.00  0.00    +0.004 A 
ATOM     19  C   UNL     1       0.706  -0.907  -3.596  0.00  0.00    +0.006 A 
ATOM     20  C   UNL     1       2.002  -1.381  -3.513  0.00  0.00    -0.025 A 
ATOM     21  C   UNL     1       2.650  -1.409  -2.292  0.00  0.00    +0.006 A 
ATOM     22  C   UNL     1       2.005  -0.959  -1.156  0.00  0.00    +0.004 A 
BRANCH  17  24
ATOM     23  C   UNL     1       0.260   1.493   0.182  0.00  0.00    +0.009 C 
ATOM     24  C   UNL     1       0.001  -0.004   0.002  0.00  0.00    +0.032 C 
ENDBRANCH  17  24
ENDBRANCH   1  20
BRANCH  14  25
ATOM     25  C   UNL     1       5.402   0.386  -6.281  0.00  0.00    +0.213 C 
BRANCH  25  26
ATOM     26  N   UNL     1       5.348   1.074  -7.574  0.00  0.00    -0.223 N 
ATOM     27  C   UNL     1       5.805   0.440  -8.640  0.00  0.00    +0.233 C 
ATOM     28  O   UNL     1       6.261  -0.682  -8.581  0.00  0.00    -0.274 OA
ATOM     29  C   UNL     1       5.718   1.215  -9.947  0.00  0.00    +0.175 C 
ATOM     30  S   UNL     1       4.957   2.776  -9.336  0.00  0.00    -0.058 S 
ATOM     31  C   UNL     1       4.832   2.317  -7.614  0.00  0.00    +0.282 C 
ATOM     32  O   UNL     1       4.387   2.974  -6.692  0.00  0.00    -0.262 OA
ENDBRANCH  25  26
ENDBRANCH  14  25
TORSDOF 4
