REMARK  Name = ZINC62504100
REMARK  7 active torsions:
REMARK  status: ('A' for Active; 'I' for Inactive)
REMARK    1  A    between atoms: C_1  and  C_2
REMARK    2  A    between atoms: C_2  and  C_3
REMARK    3  A    between atoms: C_2  and  N_8
REMARK    4  A    between atoms: C_3  and  C_4
REMARK    5  A    between atoms: C_4  and  N_5
REMARK    6  A    between atoms: N_5  and  C_6
REMARK    7  A    between atoms: N_5  and  C_7
REMARK                            x       y       z     vdW  Elec       q    Type
REMARK                         _______ _______ _______ _____ _____    ______ ____
ROOT
ATOM      1  N   UNL     1       0.687  -0.482  -1.202  0.00  0.00    -0.297 N 
ATOM      2  C   UNL     1       0.006  -0.608  -2.358  0.00  0.00    +0.303 C 
ATOM      3  O   UNL     1      -1.194  -0.417  -2.381  0.00  0.00    -0.253 OA
ATOM      4  N   UNL     1       0.656  -0.945  -3.490  0.00  0.00    -0.282 N 
ATOM      5  C   UNL     1       2.052  -1.268  -3.405  0.00  0.00    +0.113 C 
ATOM      6  C   UNL     1       2.826  -0.847  -4.617  0.00  0.00    +0.007 C 
ATOM      7  C   UNL     1       2.495   0.566  -5.069  0.00  0.00    +0.008 C 
ATOM      8  C   UNL     1       1.320   0.656  -6.022  0.00  0.00    -0.009 C 
ATOM      9  C   UNL     1       1.471  -0.340  -7.176  0.00  0.00    +0.007 C 
ATOM     10  C   UNL     1       1.546  -1.738  -6.558  0.00  0.00    -0.009 C 
ATOM     11  C   UNL     1       2.839  -1.837  -5.748  0.00  0.00    +0.008 C 
ATOM     12  C   UNL     1       0.337  -2.036  -5.702  0.00  0.00    +0.026 C 
ATOM     13  C   UNL     1      -0.091  -0.970  -4.735  0.00  0.00    +0.078 C 
ATOM     14  C   UNL     1      -0.028   0.433  -5.354  0.00  0.00    +0.026 C 
ATOM     15  H   UNL     1       1.630  -0.708  -1.167  0.00  0.00    +0.151 HD
ENDROOT
BRANCH   1  17
ATOM     16  C   UNL     1      -0.007   1.524   0.012  0.00  0.00    +0.028 C 
ATOM     17  C   UNL     1       0.003  -0.006   0.002  0.00  0.00    +0.070 C 
BRANCH  17  18
ATOM     18  C   UNL     1       0.737  -0.519   1.243  0.00  0.00    +0.003 C 
BRANCH  18  19
ATOM     19  C   UNL     1       0.639  -2.045   1.299  0.00  0.00    -0.078 C 
BRANCH  19  20
ATOM     20  N   UNL     1       1.343  -2.538   2.490  0.00  0.00    +0.376 N 
ATOM     21  C   UNL     1       1.149  -3.989   2.609  0.00  0.00    -0.097 C 
ATOM     22  C   UNL     1       2.778  -2.245   2.366  0.00  0.00    -0.097 C 
ATOM     23  H   UNL     1       0.976  -2.080   3.311  0.00  0.00    -0.083 HD
ENDBRANCH  19  20
ENDBRANCH  18  19
ENDBRANCH  17  18
ENDBRANCH   1  17
TORSDOF 4
