REMARK  Name = ZINC11949104
REMARK  6 active torsions:
REMARK  status: ('A' for Active; 'I' for Inactive)
REMARK    1  A    between atoms: C_1  and  O_2
REMARK    2  A    between atoms: O_2  and  C_3
REMARK    3  A    between atoms: C_6  and  C_25
REMARK    4  A    between atoms: C_7  and  O_9
REMARK    5  A    between atoms: O_9  and  C_10
REMARK    6  A    between atoms: C_15  and  N_70
REMARK                            x       y       z     vdW  Elec       q    Type
REMARK                         _______ _______ _______ _____ _____    ______ ____
ROOT
ATOM      1  C   UNL     1      -3.509   4.641   4.064  0.00  0.00    +0.170 C 
ATOM      2  C   UNL     1      -4.769   4.200   3.315  0.00  0.00    +0.026 C 
ATOM      3  C   UNL     1      -5.655   3.380   4.256  0.00  0.00    -0.074 C 
ATOM      4  C   UNL     1      -4.823   4.586   6.186  0.00  0.00    -0.074 C 
ATOM      5  C   UNL     1      -3.914   5.444   5.304  0.00  0.00    +0.026 C 
ATOM      6  N   UNL     1      -6.030   4.217   5.416  0.00  0.00    +0.384 N 
ATOM      7  H   UNL     1      -6.483   5.073   5.076  0.00  0.00    -0.081 HD
ENDROOT
BRANCH   6   8
ATOM      8  C   UNL     1      -6.977   3.484   6.281  0.00  0.00    -0.065 C 
ATOM      9  C   UNL     1      -7.408   4.399   7.429  0.00  0.00    -0.009 C 
ATOM     10  C   UNL     1      -8.409   3.662   8.321  0.00  0.00    -0.012 C 
ATOM     11  C   UNL     1      -9.635   3.269   7.494  0.00  0.00    +0.007 C 
ATOM     12  C   UNL     1      -9.204   2.353   6.347  0.00  0.00    -0.012 C 
ATOM     13  C   UNL     1      -8.203   3.091   5.455  0.00  0.00    -0.009 C 
ATOM     14  C   UNL     1      -8.548   1.094   6.917  0.00  0.00    +0.007 C 
ATOM     15  C   UNL     1      -7.322   1.488   7.744  0.00  0.00    -0.012 C 
ATOM     16  C   UNL     1      -7.753   2.403   8.891  0.00  0.00    +0.007 C 
ATOM     17  C   UNL     1      -6.321   2.225   6.852  0.00  0.00    -0.009 C 
ENDBRANCH   6   8
BRANCH   1  18
ATOM     18  O   UNL     1      -2.705   5.456   3.209  0.00  0.00    -0.488 OA
BRANCH  18  23
ATOM     19  C   UNL     1      -0.996   2.781   1.429  0.00  0.00    +0.124 A 
ATOM     20  C   UNL     1      -0.106   3.509   0.645  0.00  0.00    +0.046 A 
ATOM     21  C   UNL     1      -0.084   4.883   0.716  0.00  0.00    +0.020 A 
ATOM     22  C   UNL     1      -0.958   5.551   1.579  0.00  0.00    +0.079 A 
ATOM     23  C   UNL     1      -1.854   4.816   2.369  0.00  0.00    +0.136 A 
ATOM     24  C   UNL     1      -1.871   3.434   2.284  0.00  0.00    +0.092 A 
BRANCH  22  25
ATOM     25  C   UNL     1      -0.937   7.022   1.659  0.00  0.00    +0.250 C 
ATOM     26  O   UNL     1      -1.981   7.645   1.671  0.00  0.00    -0.270 OA
ATOM     27  N   UNL     1       0.240   7.677   1.719  0.00  0.00    -0.297 N 
ATOM     28  C   UNL     1       1.565   7.050   1.830  0.00  0.00    +0.108 C 
ATOM     29  C   UNL     1       2.606   8.187   1.891  0.00  0.00    +0.020 C 
ATOM     30  C   UNL     1       1.770   9.396   2.389  0.00  0.00    +0.020 C 
ATOM     31  C   UNL     1       0.410   9.141   1.691  0.00  0.00    +0.108 C 
ENDBRANCH  22  25
BRANCH  19  33
ATOM     32  C   UNL     1      -0.088   0.817   0.447  0.00  0.00    +0.277 C 
ATOM     33  O   UNL     1      -1.012   1.426   1.351  0.00  0.00    -0.495 OA
ENDBRANCH  19  33
ENDBRANCH  18  23
ENDBRANCH   1  18
TORSDOF 5
