REMARK  Name = ZINC08772466
REMARK  4 active torsions:
REMARK  status: ('A' for Active; 'I' for Inactive)
REMARK    1  A    between atoms: C_1  and  C_2
REMARK    2  A    between atoms: C_7  and  O_20
REMARK    3  A    between atoms: C_8  and  C_12
REMARK    4  A    between atoms: O_20  and  C_21
REMARK                            x       y       z     vdW  Elec       q    Type
REMARK                         _______ _______ _______ _____ _____    ______ ____
ROOT
ATOM      1  C   UNL     1       5.924   6.856   1.620  0.00  0.00    +0.052 C 
ATOM      2  C   UNL     1       5.780   6.640   0.113  0.00  0.00    +0.175 C 
ATOM      3  C   UNL     1       6.699   5.491  -0.366  0.00  0.00    +0.083 C 
ATOM      4  C   UNL     1       5.769   4.295  -0.295  0.00  0.00    +0.001 A 
ATOM      5  C   UNL     1       6.012   2.938  -0.315  0.00  0.00    +0.053 A 
ATOM      6  C   UNL     1       4.961   2.041  -0.219  0.00  0.00    +0.128 A 
ATOM      7  C   UNL     1       3.647   2.526  -0.114  0.00  0.00    +0.021 A 
ATOM      8  C   UNL     1       3.412   3.903  -0.099  0.00  0.00    +0.057 A 
ATOM      9  C   UNL     1       4.474   4.793  -0.192  0.00  0.00    +0.125 A 
ATOM     10  O   UNL     1       4.467   6.155  -0.214  0.00  0.00    -0.488 OA
ENDROOT
BRANCH   7  11
ATOM     11  C   UNL     1       2.522   1.587  -0.013  0.00  0.00    +0.032 C 
ATOM     12  C   UNL     1       1.260   2.010  -0.276  0.00  0.00    +0.080 C 
ATOM     13  C   UNL     1      -0.025   1.304  -0.102  0.00  0.00    +0.258 C 
ATOM     14  O   UNL     1      -0.076   0.169   0.336  0.00  0.00    -0.269 OA
ATOM     15  N   UNL     1      -1.116   1.964  -0.450  0.00  0.00    -0.243 N 
ATOM     16  C   UNL     1      -1.055   3.224  -0.928  0.00  0.00    +0.283 C 
ATOM     17  O   UNL     1      -1.971   3.943  -1.280  0.00  0.00    -0.262 OA
ATOM     18  S   UNL     1       0.695   3.576  -0.929  0.00  0.00    -0.026 S 
ATOM     19  H   UNL     1      -1.981   1.535  -0.354  0.00  0.00    +0.159 HD
ENDBRANCH   7  11
BRANCH   6  20
ATOM     20  O   UNL     1       5.198   0.704  -0.233  0.00  0.00    -0.495 OA
ATOM     21  C   UNL     1       6.561   0.288  -0.343  0.00  0.00    +0.277 C 
ENDBRANCH   6  20
TORSDOF 2
