REMARK  Name = ZINC35206205
REMARK  2 active torsions:
REMARK  status: ('A' for Active; 'I' for Inactive)
REMARK    1  A    between atoms: C_1  and  C_2
REMARK    2  A    between atoms: C_15  and  C_18
REMARK                            x       y       z     vdW  Elec       q    Type
REMARK                         _______ _______ _______ _____ _____    ______ ____
ROOT
ATOM      1  C   UNL     1       0.004   1.503   0.009  0.00  0.00    +0.068 C 
ATOM      2  C   UNL     1       0.013  -0.004   0.002  0.00  0.00    +0.066 A 
ATOM      3  C   UNL     1      -0.085  -0.712  -1.211  0.00  0.00    +0.008 A 
ATOM      4  C   UNL     1      -0.194  -0.074  -2.454  0.00  0.00    +0.010 A 
ATOM      5  C   UNL     1      -0.285  -0.827  -3.586  0.00  0.00    +0.001 A 
ATOM      6  C   UNL     1      -0.271  -2.219  -3.527  0.00  0.00    +0.001 A 
ATOM      7  C   UNL     1      -0.166  -2.871  -2.334  0.00  0.00    +0.012 A 
ATOM      8  C   UNL     1      -0.071  -2.129  -1.152  0.00  0.00    +0.023 A 
ATOM      9  C   UNL     1       0.041  -2.731   0.122  0.00  0.00    +0.123 A 
ATOM     10  N   UNL     1       0.126  -1.954   1.188  0.00  0.00    -0.263 N 
ATOM     11  N   UNL     1       0.117  -0.674   1.125  0.00  0.00    -0.177 NA
ATOM     12  N   UNL     1       0.060  -4.110   0.252  0.00  0.00    -0.315 N 
ATOM     13  C   UNL     1       1.330  -4.848   0.212  0.00  0.00    +0.107 C 
ATOM     14  C   UNL     1       1.430  -5.725   1.464  0.00  0.00    +0.034 C 
ATOM     15  C   UNL     1       0.189  -6.615   1.559  0.00  0.00    +0.105 C 
ATOM     16  C   UNL     1      -1.061  -5.740   1.682  0.00  0.00    +0.034 C 
ATOM     17  C   UNL     1      -1.188  -4.862   0.438  0.00  0.00    +0.107 C 
ATOM     18  H   UNL     1       0.203  -2.373   2.059  0.00  0.00    +0.190 HD
ENDROOT
BRANCH  15  19
ATOM     19  C   UNL     1       0.300  -7.504   2.772  0.00  0.00    +0.359 C 
ATOM     20  O   UNL     1      -0.707  -7.869   3.354  0.00  0.00    -0.246 OA
ATOM     21  O   UNL     1       1.396  -7.857   3.170  0.00  0.00    -0.246 OA
ENDBRANCH  15  19
TORSDOF 1
