REMARK  Name = ZINC00500901
REMARK  7 active torsions:
REMARK  status: ('A' for Active; 'I' for Inactive)
REMARK    1  A    between atoms: C_1  and  C_2
REMARK    2  A    between atoms: N_4  and  C_23
REMARK    3  A    between atoms: C_7  and  C_9
REMARK    4  A    between atoms: C_9  and  C_11
REMARK    5  A    between atoms: C_9  and  C_18
REMARK    6  A    between atoms: C_18  and  C_19
REMARK    7  A    between atoms: C_18  and  C_21
REMARK                            x       y       z     vdW  Elec       q    Type
REMARK                         _______ _______ _______ _____ _____    ______ ____
ROOT
ATOM      1  C   UNL     1      -0.137   1.449  -0.094  0.00  0.00    +0.063 C 
ATOM      2  C   UNL     1      -0.063  -0.055  -0.044  0.00  0.00    +0.047 C 
ATOM      3  N   UNL     1      -0.139  -0.851  -1.038  0.00  0.00    -0.181 NA
ATOM      4  N   UNL     1      -0.037  -2.191  -0.676  0.00  0.00    -0.160 N 
ATOM      5  C   UNL     1       0.119  -2.323   0.658  0.00  0.00    +0.249 C 
ATOM      6  O   UNL     1       0.238  -3.353   1.288  0.00  0.00    -0.273 OA
ATOM      7  C   UNL     1       0.121  -0.905   1.196  0.00  0.00    +0.132 C 
ENDROOT
BRANCH   4   8
ATOM      8  C   UNL     1      -0.090  -3.260  -1.577  0.00  0.00    +0.060 A 
ATOM      9  C   UNL     1       0.016  -4.566  -1.115  0.00  0.00    +0.025 A 
ATOM     10  C   UNL     1      -0.037  -5.619  -2.007  0.00  0.00    +0.002 A 
ATOM     11  C   UNL     1      -0.194  -5.375  -3.359  0.00  0.00    +0.000 A 
ATOM     12  C   UNL     1      -0.299  -4.076  -3.822  0.00  0.00    +0.002 A 
ATOM     13  C   UNL     1      -0.253  -3.019  -2.935  0.00  0.00    +0.025 A 
ENDBRANCH   4   8
BRANCH   7  14
ATOM     14  C   UNL     1      -1.043  -0.699   2.168  0.00  0.00    +0.067 C 
BRANCH  14  15
ATOM     15  C   UNL     1      -2.327  -1.138   1.513  0.00  0.00    -0.041 A 
ATOM     16  C   UNL     1      -2.750  -0.531   0.345  0.00  0.00    +0.007 A 
ATOM     17  C   UNL     1      -3.927  -0.933  -0.256  0.00  0.00    +0.038 A 
ATOM     18  C   UNL     1      -4.684  -1.944   0.311  0.00  0.00    +0.123 A 
ATOM     19  C   UNL     1      -4.260  -2.551   1.481  0.00  0.00    +0.038 A 
ATOM     20  C   UNL     1      -3.080  -2.151   2.078  0.00  0.00    +0.007 A 
ATOM     21  F   UNL     1      -5.836  -2.337  -0.275  0.00  0.00    -0.205 F 
ENDBRANCH  14  15
BRANCH  14  22
ATOM     22  C   UNL     1      -1.140   0.781   2.540  0.00  0.00    +0.202 C 
BRANCH  22  23
ATOM     23  C   UNL     1      -2.193   0.964   3.553  0.00  0.00    +0.081 C 
ATOM     24  N   UNL     1      -3.005   1.105   4.334  0.00  0.00    -0.195 NA
ENDBRANCH  22  23
BRANCH  22  25
ATOM     25  C   UNL     1       0.149   1.236   3.086  0.00  0.00    +0.081 C 
ATOM     26  N   UNL     1       1.145   1.587   3.506  0.00  0.00    -0.195 NA
ENDBRANCH  22  25
ENDBRANCH  14  22
ENDBRANCH   7  14
TORSDOF 6
