REMARK  Name = ZINC39979558
REMARK  6 active torsions:
REMARK  status: ('A' for Active; 'I' for Inactive)
REMARK    1  A    between atoms: C_1  and  O_2
REMARK    2  A    between atoms: O_2  and  C_3
REMARK    3  A    between atoms: C_7  and  N_9
REMARK    4  A    between atoms: C_10  and  C_12
REMARK    5  A    between atoms: C_15  and  O_27
REMARK    6  A    between atoms: C_21  and  C_22
REMARK                            x       y       z     vdW  Elec       q    Type
REMARK                         _______ _______ _______ _____ _____    ______ ____
ROOT
ATOM      1  C   UNL     1      -1.480  -6.288  -0.207  0.00  0.00    +0.204 C 
ATOM      2  C   UNL     1      -2.149  -6.870   1.042  0.00  0.00    +0.131 C 
ATOM      3  C   UNL     1      -1.206  -6.893   2.211  0.00  0.00    +0.191 C 
ATOM      4  N   UNL     1       0.078  -7.069   2.075  0.00  0.00    -0.197 NA
ATOM      5  C   UNL     1       0.585  -7.207   0.819  0.00  0.00    +0.163 A 
ATOM      6  N   UNL     1      -0.126  -6.842  -0.298  0.00  0.00    -0.234 N 
ATOM      7  N   UNL     1       0.659  -7.098  -1.415  0.00  0.00    -0.176 NA
ATOM      8  C   UNL     1       1.804  -7.603  -1.026  0.00  0.00    +0.145 A 
ATOM      9  C   UNL     1       1.802  -7.692   0.385  0.00  0.00    +0.052 A 
ENDROOT
BRANCH   9  10
ATOM     10  C   UNL     1       2.896  -8.206   1.235  0.00  0.00    +0.024 A 
ATOM     11  C   UNL     1       3.599  -9.376   1.122  0.00  0.00    +0.016 A 
ATOM     12  C   UNL     1       4.588  -9.646   2.044  0.00  0.00    +0.008 A 
ATOM     13  C   UNL     1       4.835  -8.748   3.031  0.00  0.00    +0.046 A 
ATOM     14  S   UNL     1       3.651  -7.461   2.671  0.00  0.00    -0.096 S 
ENDBRANCH   9  10
BRANCH   1  16
ATOM     15  N   UNL     1      -2.542  -4.065   0.018  0.00  0.00    -0.282 N 
ATOM     16  C   UNL     1      -1.409  -4.787  -0.093  0.00  0.00    +0.242 C 
ATOM     17  O   UNL     1      -0.332  -4.228  -0.101  0.00  0.00    -0.273 OA
ATOM     18  H   UNL     1      -3.398  -4.515   0.089  0.00  0.00    +0.155 HD
BRANCH  15  23
ATOM     19  C   UNL     1      -1.357  -0.637   0.641  0.00  0.00    +0.122 A 
ATOM     20  C   UNL     1      -2.371   0.102   0.049  0.00  0.00    +0.047 A 
ATOM     21  C   UNL     1      -3.437  -0.541  -0.552  0.00  0.00    +0.025 A 
ATOM     22  C   UNL     1      -3.496  -1.923  -0.564  0.00  0.00    +0.062 A 
ATOM     23  C   UNL     1      -2.482  -2.667   0.029  0.00  0.00    +0.055 A 
ATOM     24  C   UNL     1      -1.409  -2.022   0.626  0.00  0.00    +0.070 A 
ATOM     25 CL   UNL     1      -4.836  -2.727  -1.319  0.00  0.00    -0.082 Cl
BRANCH  19  27
ATOM     26  C   UNL     1      -0.321   1.427   1.210  0.00  0.00    +0.277 C 
ATOM     27  O   UNL     1      -0.310  -0.002   1.232  0.00  0.00    -0.495 OA
ENDBRANCH  19  27
ENDBRANCH  15  23
ENDBRANCH   1  16
BRANCH   3  28
ATOM     28  O   UNL     1      -1.709  -6.724   3.451  0.00  0.00    -0.495 OA
ATOM     29  H   UNL     1      -1.043  -6.751   4.152  0.00  0.00    +0.293 HD
ENDBRANCH   3  28
TORSDOF 5
