REMARK  Name = ZINC06596839
REMARK  3 active torsions:
REMARK  status: ('A' for Active; 'I' for Inactive)
REMARK    1  A    between atoms: C_1  and  C_2
REMARK    2  A    between atoms: C_12  and  C_16
REMARK    3  A    between atoms: C_21  and  C_23
REMARK                            x       y       z     vdW  Elec       q    Type
REMARK                         _______ _______ _______ _____ _____    ______ ____
ROOT
ATOM      1  C   UNL     1       5.038  -0.360   6.480  0.00  0.00    +0.088 C 
ATOM      2  C   UNL     1       4.038   0.214   5.510  0.00  0.00    +0.129 A 
ATOM      3  N   UNL     1       2.755   0.039   5.756  0.00  0.00    -0.217 NA
ATOM      4  C   UNL     1       1.779   0.497   4.975  0.00  0.00    +0.134 A 
ATOM      5  C   UNL     1       2.196   1.213   3.815  0.00  0.00    +0.051 A 
ATOM      6  C   UNL     1       1.345   1.815   2.802  0.00  0.00    -0.025 A 
ATOM      7  C   UNL     1       1.969   2.449   1.784  0.00  0.00    -0.004 A 
ATOM      8  S   UNL     1       3.704   2.276   2.119  0.00  0.00    -0.073 S 
ATOM      9  C   UNL     1       3.592   1.358   3.620  0.00  0.00    +0.114 A 
ATOM     10  N   UNL     1       4.494   0.869   4.449  0.00  0.00    -0.225 NA
ATOM     11  C   UNL     1       1.331   3.146   0.622  0.00  0.00    +0.046 C 
ATOM     12  C   UNL     1      -0.144   2.724   0.551  0.00  0.00    -0.009 C 
ATOM     13  C   UNL     1      -0.754   2.840   1.951  0.00  0.00    +0.008 C 
ATOM     14  C   UNL     1      -0.180   1.752   2.859  0.00  0.00    +0.037 C 
ATOM     15  C   UNL     1      -0.894   3.641  -0.417  0.00  0.00    +0.008 C 
ATOM     16  N   UNL     1       0.443   0.292   5.271  0.00  0.00    -0.303 N 
ATOM     17  C   UNL     1       0.040  -1.092   4.960  0.00  0.00    +0.107 C 
ATOM     18  C   UNL     1      -0.530  -1.704   6.258  0.00  0.00    +0.021 C 
ATOM     19  C   UNL     1      -0.942  -0.455   7.081  0.00  0.00    +0.033 C 
ATOM     20  C   UNL     1       0.172   0.552   6.700  0.00  0.00    +0.160 C 
ENDROOT
BRANCH  20  21
ATOM     21  C   UNL     1      -0.312   1.967   6.894  0.00  0.00    +0.231 C 
ATOM     22  O   UNL     1      -0.426   2.704   5.938  0.00  0.00    -0.274 OA
ATOM     23  N   UNL     1      -0.618   2.411   8.129  0.00  0.00    -0.328 N 
ATOM     24  H   UNL     1      -0.527   1.821   8.893  0.00  0.00    +0.145 HD
ATOM     25  H   UNL     1      -0.929   3.322   8.253  0.00  0.00    +0.145 HD
ENDBRANCH  20  21
TORSDOF 1
