REMARK  Name = ZINC67022134
REMARK  3 active torsions:
REMARK  status: ('A' for Active; 'I' for Inactive)
REMARK    1  A    between atoms: C_3  and  C_11
REMARK    2  A    between atoms: N_13  and  C_14
REMARK    3  A    between atoms: C_16  and  N_21
REMARK                            x       y       z     vdW  Elec       q    Type
REMARK                         _______ _______ _______ _____ _____    ______ ____
ROOT
ATOM      1  C   UNL     1       3.555   2.318  -0.606  0.00  0.00    +0.248 C 
ATOM      2  O   UNL     1       4.539   1.862  -1.155  0.00  0.00    -0.270 OA
ATOM      3  N   UNL     1       3.612   3.527  -0.015  0.00  0.00    -0.280 N 
ATOM      4  H   UNL     1       2.808   3.926   0.353  0.00  0.00    +0.155 HD
ENDROOT
BRANCH   1   7
ATOM      5  C   UNL     1      -0.003   1.373   0.071  0.00  0.00    +0.011 A 
ATOM      6  C   UNL     1       1.164   2.075   0.047  0.00  0.00    +0.014 A 
ATOM      7  C   UNL     1       2.297   1.547  -0.587  0.00  0.00    +0.039 A 
ATOM      8  C   UNL     1       2.241   0.297  -1.200  0.00  0.00    +0.039 A 
ATOM      9  C   UNL     1       1.057  -0.425  -1.181  0.00  0.00    +0.047 A 
ATOM     10  C   UNL     1      -0.075   0.117  -0.540  0.00  0.00    -0.000 A 
ATOM     11  C   UNL     1      -1.139  -0.875  -0.696  0.00  0.00    +0.027 A 
ATOM     12  C   UNL     1      -0.619  -1.906  -1.384  0.00  0.00    +0.083 A 
ATOM     13  N   UNL     1       0.690  -1.655  -1.683  0.00  0.00    -0.361 N 
ATOM     14  H   UNL     1       1.274  -2.253  -2.175  0.00  0.00    +0.165 HD
ENDBRANCH   1   7
BRANCH   3  15
ATOM     15  C   UNL     1       4.832   4.207   0.069  0.00  0.00    +0.054 A 
ATOM     16  C   UNL     1       6.025   3.500   0.040  0.00  0.00    +0.049 A 
ATOM     17  C   UNL     1       7.233   4.178   0.124  0.00  0.00    +0.053 A 
ATOM     18  C   UNL     1       7.244   5.563   0.236  0.00  0.00    +0.026 A 
ATOM     19  C   UNL     1       6.055   6.265   0.265  0.00  0.00    +0.024 A 
ATOM     20  C   UNL     1       4.850   5.593   0.176  0.00  0.00    +0.062 A 
ATOM     21 CL   UNL     1       3.358   6.480   0.205  0.00  0.00    -0.082 Cl
BRANCH  17  22
ATOM     22  N   UNL     1       8.437   3.469   0.095  0.00  0.00    -0.207 N 
ATOM     23  C   UNL     1       8.648   2.062   0.479  0.00  0.00    +0.133 C 
ATOM     24  C   UNL     1       9.813   1.445  -0.317  0.00  0.00    +0.045 C 
ATOM     25  C   UNL     1      10.948   2.511  -0.265  0.00  0.00    +0.190 C 
ATOM     26  S   UNL     1       9.935   4.042  -0.390  0.00  0.00    +0.046 S 
ATOM     27  O   UNL     1       9.772   4.429  -1.748  0.00  0.00    -0.155 OA
ATOM     28  O   UNL     1      10.322   4.982   0.603  0.00  0.00    -0.155 OA
ENDBRANCH  17  22
ENDBRANCH   3  15
TORSDOF 3
