REMARK  Name = ZINC47343491
REMARK  4 active torsions:
REMARK  status: ('A' for Active; 'I' for Inactive)
REMARK    1  A    between atoms: C_1  and  C_2
REMARK    2  A    between atoms: C_6  and  C_8
REMARK    3  A    between atoms: C_9  and  C_11
REMARK    4  A    between atoms: C_16  and  C_18
REMARK                            x       y       z     vdW  Elec       q    Type
REMARK                         _______ _______ _______ _____ _____    ______ ____
ROOT
ATOM      1  C   UNL     1       3.737   1.104  -2.107  0.00  0.00    +0.162 C 
ATOM      2  C   UNL     1       3.291   2.160  -1.074  0.00  0.00    +0.033 C 
ATOM      3  C   UNL     1       4.062   3.430  -1.520  0.00  0.00    +0.021 C 
ATOM      4  C   UNL     1       4.051   3.275  -3.061  0.00  0.00    +0.108 C 
ATOM      5  N   UNL     1       4.208   1.828  -3.296  0.00  0.00    -0.290 N 
ATOM      6  C   UNL     1       4.701   1.263  -4.416  0.00  0.00    +0.219 C 
ATOM      7  O   UNL     1       4.693   0.057  -4.541  0.00  0.00    -0.275 OA
ENDROOT
BRANCH   1  16
ATOM      8  C   UNL     1       4.439  -2.934  -2.139  0.00  0.00    +0.039 C 
ATOM      9  C   UNL     1       3.577  -2.792  -0.883  0.00  0.00    +0.133 C 
ATOM     10  C   UNL     1       3.221  -1.316  -0.671  0.00  0.00    +0.139 C 
ATOM     11  N   UNL     1       2.322  -0.895  -1.757  0.00  0.00    -0.295 N 
ATOM     12  C   UNL     1       1.141  -1.726  -2.039  0.00  0.00    +0.139 C 
ATOM     13  C   UNL     1       1.599  -3.182  -2.185  0.00  0.00    +0.133 C 
ATOM     14  O   UNL     1       2.375  -3.548  -1.041  0.00  0.00    -0.371 OA
ATOM     15  C   UNL     1       0.375  -4.095  -2.286  0.00  0.00    +0.039 C 
ATOM     16  C   UNL     1       2.573   0.220  -2.472  0.00  0.00    +0.236 C 
ATOM     17  O   UNL     1       1.861   0.512  -3.410  0.00  0.00    -0.274 OA
ENDBRANCH   1  16
BRANCH   6  18
ATOM     18  C   UNL     1       5.262   2.131  -5.513  0.00  0.00    +0.075 C 
ATOM     19  C   UNL     1       6.659   2.614  -5.118  0.00  0.00    +0.013 C 
ATOM     20  C   UNL     1       7.228   3.495  -6.232  0.00  0.00    +0.001 C 
ATOM     21  C   UNL     1       7.317   2.685  -7.527  0.00  0.00    +0.000 C 
ATOM     22  C   UNL     1       5.920   2.201  -7.923  0.00  0.00    +0.001 C 
ATOM     23  C   UNL     1       5.351   1.321  -6.809  0.00  0.00    +0.013 C 
ENDBRANCH   6  18
TORSDOF 2
