REMARK  Name = ZINC13634963
REMARK  6 active torsions:
REMARK  status: ('A' for Active; 'I' for Inactive)
REMARK    1  A    between atoms: C_1  and  O_2
REMARK    2  A    between atoms: O_2  and  C_3
REMARK    3  A    between atoms: C_6  and  C_9
REMARK    4  A    between atoms: C_19  and  N_27
REMARK    5  A    between atoms: C_22  and  O_25
REMARK    6  A    between atoms: O_25  and  C_26
REMARK                            x       y       z     vdW  Elec       q    Type
REMARK                         _______ _______ _______ _____ _____    ______ ____
ROOT
ATOM      1  C   UNL     1      -0.291   0.818  -0.219  0.00  0.00    +0.105 C 
ATOM      2  C   UNL     1      -0.191   0.323   1.209  0.00  0.00    +0.029 C 
ATOM      3  C   UNL     1       0.774   1.046   2.155  0.00  0.00    +0.033 C 
ATOM      4  C   UNL     1       0.087   0.840   3.507  0.00  0.00    -0.030 C 
ATOM      5  C   UNL     1      -1.220   0.676   3.331  0.00  0.00    -0.023 C 
ATOM      6  C   UNL     1      -1.518   0.793   1.882  0.00  0.00    +0.051 C 
ATOM      7  C   UNL     1      -2.614   0.042   1.231  0.00  0.00    +0.014 A 
ATOM      8  C   UNL     1      -3.749  -0.332   1.923  0.00  0.00    +0.132 A 
ATOM      9  C   UNL     1      -4.764  -1.020   1.288  0.00  0.00    +0.037 A 
ATOM     10  C   UNL     1      -4.643  -1.335  -0.053  0.00  0.00    +0.050 A 
ATOM     11  C   UNL     1      -3.510  -0.971  -0.753  0.00  0.00    +0.141 A 
ATOM     12  C   UNL     1      -2.470  -0.280  -0.119  0.00  0.00    +0.076 A 
ATOM     13  N   UNL     1      -1.339   0.024  -0.879  0.00  0.00    -0.334 N 
ATOM     14  H   UNL     1      -1.597   0.431  -1.765  0.00  0.00    +0.147 HD
ENDROOT
BRANCH   1  18
ATOM     15  C   UNL     1      -1.360   4.956  -0.254  0.00  0.00    +0.120 A 
ATOM     16  C   UNL     1      -0.030   4.583  -0.121  0.00  0.00    +0.046 A 
ATOM     17  C   UNL     1       0.312   3.244  -0.110  0.00  0.00    +0.009 A 
ATOM     18  C   UNL     1      -0.668   2.277  -0.231  0.00  0.00    -0.027 A 
ATOM     19  C   UNL     1      -1.993   2.647  -0.370  0.00  0.00    +0.009 A 
ATOM     20  C   UNL     1      -2.342   3.983  -0.376  0.00  0.00    +0.046 A 
BRANCH  15  22
ATOM     21  C   UNL     1      -3.088   6.582  -0.406  0.00  0.00    +0.277 C 
ATOM     22  O   UNL     1      -1.700   6.271  -0.265  0.00  0.00    -0.495 OA
ENDBRANCH  15  22
ENDBRANCH   1  18
BRANCH   8  23
ATOM     23  N   UNL     1      -3.878   0.007   3.358  0.00  0.00    +0.057 N 
ATOM     24  O   UNL     1      -4.172  -0.857   4.164  0.00  0.00    -0.126 OA
ATOM     25  O   UNL     1      -3.689   1.151   3.732  0.00  0.00    -0.126 OA
ENDBRANCH   8  23
BRANCH  11  26
ATOM     26  O   UNL     1      -3.403  -1.287  -2.071  0.00  0.00    -0.493 OA
ATOM     27  C   UNL     1      -4.497  -1.992  -2.661  0.00  0.00    +0.277 C 
ENDBRANCH  11  26
TORSDOF 4
