REMARK  Name = ZINC09499109
REMARK  5 active torsions:
REMARK  status: ('A' for Active; 'I' for Inactive)
REMARK    1  A    between atoms: C_1  and  C_2
REMARK    2  A    between atoms: C_5  and  C_9
REMARK    3  A    between atoms: C_6  and  C_8
REMARK    4  A    between atoms: N_11  and  C_12
REMARK    5  A    between atoms: C_21  and  C_24
REMARK                            x       y       z     vdW  Elec       q    Type
REMARK                         _______ _______ _______ _____ _____    ______ ____
ROOT
ATOM      1  C   UNL     1      -1.191   3.493   0.112  0.00  0.00    +0.036 A 
ATOM      2  C   UNL     1      -1.123   2.243  -0.488  0.00  0.00    +0.027 A 
ATOM      3  C   UNL     1       0.079   1.562  -0.543  0.00  0.00    +0.049 A 
ATOM      4  C   UNL     1       1.218   2.127   0.003  0.00  0.00    +0.143 A 
ATOM      5  C   UNL     1       1.153   3.382   0.607  0.00  0.00    +0.077 A 
ATOM      6  C   UNL     1      -0.052   4.061   0.667  0.00  0.00    +0.050 A 
ATOM      7  N   UNL     1       2.317   3.940   1.155  0.00  0.00    -0.279 N 
ATOM      8  C   UNL     1       3.516   3.417   0.818  0.00  0.00    +0.258 C 
ATOM      9  O   UNL     1       4.534   3.865   1.303  0.00  0.00    -0.271 OA
ATOM     10  C   UNL     1       3.584   2.274  -0.163  0.00  0.00    +0.256 C 
ATOM     11  O   UNL     1       2.408   1.469  -0.045  0.00  0.00    -0.478 OA
ATOM     12  C   UNL     1       4.818   1.420   0.135  0.00  0.00    +0.062 C 
ATOM     13  H   UNL     1       2.262   4.691   1.766  0.00  0.00    +0.155 HD
ENDROOT
BRANCH   1  16
ATOM     14  C   UNL     1      -2.432   5.524   0.080  0.00  0.00    +0.249 C 
ATOM     15  O   UNL     1      -1.403   6.136  -0.134  0.00  0.00    -0.270 OA
ATOM     16  N   UNL     1      -2.411   4.179   0.164  0.00  0.00    -0.281 N 
ATOM     17  H   UNL     1      -3.241   3.686   0.260  0.00  0.00    +0.155 HD
BRANCH  14  22
ATOM     18  C   UNL     1      -7.389   8.372   0.738  0.00  0.00    +0.044 C 
ATOM     19  C   UNL     1      -6.091   7.626   0.566  0.00  0.00    -0.050 A 
ATOM     20  C   UNL     1      -6.091   6.243   0.521  0.00  0.00    +0.004 A 
ATOM     21  C   UNL     1      -4.907   5.554   0.363  0.00  0.00    +0.013 A 
ATOM     22  C   UNL     1      -3.705   6.256   0.250  0.00  0.00    +0.040 A 
ATOM     23  C   UNL     1      -3.711   7.650   0.302  0.00  0.00    -0.038 A 
ATOM     24  C   UNL     1      -4.903   8.327   0.454  0.00  0.00    +0.007 A 
ATOM     25  C   UNL     1      -2.417   8.416   0.187  0.00  0.00    +0.044 C 
ENDBRANCH  14  22
ENDBRANCH   1  16
TORSDOF 2
