REMARK  Name = ZINC18048172
REMARK  6 active torsions:
REMARK  status: ('A' for Active; 'I' for Inactive)
REMARK    1  A    between atoms: C_1  and  C_2
REMARK    2  A    between atoms: C_2  and  C_4
REMARK    3  A    between atoms: C_2  and  N_15
REMARK    4  A    between atoms: C_7  and  N_10
REMARK    5  A    between atoms: C_16  and  C_18
REMARK    6  A    between atoms: C_21  and  N_25
REMARK                            x       y       z     vdW  Elec       q    Type
REMARK                         _______ _______ _______ _____ _____    ______ ____
ROOT
ATOM      1  N   UNL     1      -4.409   5.814  -0.835  0.00  0.00    -0.305 N 
ATOM      2  C   UNL     1      -5.463   6.448  -1.387  0.00  0.00    +0.246 C 
ATOM      3  O   UNL     1      -6.593   6.067  -1.151  0.00  0.00    -0.270 OA
ATOM      4  H   UNL     1      -3.507   6.118  -1.023  0.00  0.00    +0.150 HD
ENDROOT
BRANCH   2   5
ATOM      5  C   UNL     1      -5.244   7.606  -2.278  0.00  0.00    +0.055 A 
ATOM      6  C   UNL     1      -3.948   8.047  -2.550  0.00  0.00    +0.017 A 
ATOM      7  C   UNL     1      -3.751   9.128  -3.383  0.00  0.00    +0.033 A 
ATOM      8  C   UNL     1      -4.834   9.777  -3.950  0.00  0.00    +0.128 A 
ATOM      9  C   UNL     1      -6.121   9.347  -3.685  0.00  0.00    +0.053 A 
ATOM     10  C   UNL     1      -6.334   8.262  -2.856  0.00  0.00    +0.055 A 
ATOM     11 CL   UNL     1      -7.950   7.719  -2.530  0.00  0.00    -0.083 Cl
BRANCH   8  12
ATOM     12  N   UNL     1      -4.614  10.936  -4.843  0.00  0.00    +0.056 N 
ATOM     13  O   UNL     1      -3.481  11.317  -5.079  0.00  0.00    -0.126 OA
ATOM     14  O   UNL     1      -5.565  11.509  -5.343  0.00  0.00    -0.126 OA
ENDBRANCH   8  12
ENDBRANCH   2   5
BRANCH   1  16
ATOM     15  C   UNL     1      -4.887   5.160   1.473  0.00  0.00    +0.033 C 
ATOM     16  C   UNL     1      -4.626   4.666   0.049  0.00  0.00    +0.100 C 
BRANCH  16  17
ATOM     17  C   UNL     1      -3.402   3.787   0.039  0.00  0.00    -0.027 A 
ATOM     18  C   UNL     1      -3.541   2.411   0.033  0.00  0.00    +0.007 A 
ATOM     19  C   UNL     1      -2.421   1.602   0.023  0.00  0.00    +0.026 A 
ATOM     20  C   UNL     1      -1.155   2.172   0.019  0.00  0.00    +0.047 A 
ATOM     21  C   UNL     1      -1.019   3.554   0.032  0.00  0.00    +0.026 A 
ATOM     22  C   UNL     1      -2.143   4.357   0.035  0.00  0.00    +0.007 A 
BRANCH  20  23
ATOM     23  N   UNL     1      -0.016   1.354   0.009  0.00  0.00    -0.306 N 
ATOM     24  C   UNL     1       1.289   1.774  -0.001  0.00  0.00    +0.112 A 
ATOM     25  C   UNL     1       2.055   0.666  -0.014  0.00  0.00    +0.130 A 
ATOM     26  N   UNL     1       1.245  -0.403  -0.012  0.00  0.00    -0.244 NA
ATOM     27  C   UNL     1       0.002  -0.004   0.002  0.00  0.00    +0.204 A 
ENDBRANCH  20  23
ENDBRANCH  16  17
ENDBRANCH   1  16
TORSDOF 5
