REMARK  Name = ZINC41907742
REMARK  7 active torsions:
REMARK  status: ('A' for Active; 'I' for Inactive)
REMARK    1  A    between atoms: C_1  and  C_2
REMARK    2  A    between atoms: C_3  and  C_15
REMARK    3  A    between atoms: C_4  and  C_14
REMARK    4  A    between atoms: C_8  and  C_11
REMARK    5  A    between atoms: C_15  and  C_16
REMARK    6  A    between atoms: C_16  and  C_17
REMARK    7  A    between atoms: C_22  and  C_32
REMARK                            x       y       z     vdW  Elec       q    Type
REMARK                         _______ _______ _______ _____ _____    ______ ____
ROOT
ATOM      1  C   UNL     1      -0.018   1.503   0.010  0.00  0.00    +0.066 C 
ATOM      2  C   UNL     1       0.002  -0.004   0.002  0.00  0.00    +0.045 A 
ATOM      3  C   UNL     1      -1.204  -0.719   0.004  0.00  0.00    -0.006 A 
ATOM      4  C   UNL     1      -1.176  -2.075  -0.004  0.00  0.00    +0.028 A 
ATOM      5  N   UNL     1       0.031  -2.713  -0.014  0.00  0.00    -0.287 N 
ATOM      6  C   UNL     1       0.385  -4.029  -0.022  0.00  0.00    +0.206 A 
ATOM      7  N   UNL     1       1.682  -4.134  -0.029  0.00  0.00    -0.229 NA
ATOM      8  C   UNL     1       2.239  -2.905  -0.025  0.00  0.00    +0.169 A 
ATOM      9  C   UNL     1       1.190  -1.977  -0.015  0.00  0.00    +0.170 A 
ATOM     10  N   UNL     1       1.151  -0.643  -0.012  0.00  0.00    -0.232 NA
ATOM     11  C   UNL     1      -2.459  -2.865  -0.002  0.00  0.00    +0.064 C 
ENDROOT
BRANCH   8  12
ATOM     12  C   UNL     1       3.670  -2.600  -0.030  0.00  0.00    +0.264 C 
ATOM     13  O   UNL     1       4.045  -1.441  -0.025  0.00  0.00    -0.269 OA
ATOM     14  N   UNL     1       4.573  -3.600  -0.040  0.00  0.00    -0.324 N 
ATOM     15  H   UNL     1       4.274  -4.523  -0.044  0.00  0.00    +0.145 HD
ATOM     16  H   UNL     1       5.521  -3.398  -0.043  0.00  0.00    +0.145 HD
ENDBRANCH   8  12
BRANCH   3  17
ATOM     17  C   UNL     1      -2.521   0.014   0.015  0.00  0.00    +0.048 C 
BRANCH  17  18
ATOM     18  C   UNL     1      -2.898   0.363   1.456  0.00  0.00    +0.101 C 
BRANCH  18  19
ATOM     19  C   UNL     1      -4.215   1.095   1.467  0.00  0.00    +0.216 C 
ATOM     20  O   UNL     1      -4.795   1.316   0.425  0.00  0.00    -0.276 OA
ATOM     21  N   UNL     1      -4.748   1.505   2.635  0.00  0.00    -0.298 N 
ATOM     22  C   UNL     1      -4.059   1.252   3.910  0.00  0.00    +0.108 C 
ATOM     23  C   UNL     1      -5.022   0.548   4.870  0.00  0.00    +0.022 C 
ATOM     24  C   UNL     1      -6.314   1.361   4.996  0.00  0.00    -0.008 C 
ATOM     25  C   UNL     1      -6.974   1.471   3.623  0.00  0.00    +0.012 C 
ATOM     26  C   UNL     1      -6.029   2.219   2.670  0.00  0.00    +0.079 C 
ATOM     27  C   UNL     1      -6.655   2.266   1.277  0.00  0.00    +0.023 C 
ATOM     28  C   UNL     1      -7.984   3.023   1.352  0.00  0.00    +0.002 C 
ATOM     29  C   UNL     1      -8.931   2.317   2.324  0.00  0.00    +0.000 C 
ATOM     30  C   UNL     1      -8.290   2.243   3.716  0.00  0.00    +0.005 C 
ATOM     31  C   UNL     1      -5.987   2.761   5.521  0.00  0.00    +0.008 C 
ENDBRANCH  18  19
ENDBRANCH  17  18
ENDBRANCH   3  17
TORSDOF 4
