REMARK  Name = ZINC66948203
REMARK  11 active torsions:
REMARK  status: ('A' for Active; 'I' for Inactive)
REMARK    1  A    between atoms: C_1  and  C_2
REMARK    2  A    between atoms: C_2  and  C_3
REMARK    3  A    between atoms: C_2  and  C_4
REMARK    4  A    between atoms: C_6  and  C_16
REMARK    5  A    between atoms: N_10  and  C_13
REMARK    6  A    between atoms: C_13  and  C_14
REMARK    7  A    between atoms: C_13  and  C_15
REMARK    8  A    between atoms: C_23  and  C_25
REMARK    9  A    between atoms: C_25  and  N_26
REMARK   10  A    between atoms: N_26  and  C_27
REMARK   11  A    between atoms: N_26  and  C_28
REMARK                            x       y       z     vdW  Elec       q    Type
REMARK                         _______ _______ _______ _____ _____    ______ ____
ROOT
ATOM      1  C   UNL     1      -6.431   1.277  -0.695  0.00  0.00    +0.047 A 
ATOM      2  C   UNL     1      -6.267   0.725   0.567  0.00  0.00    +0.037 A 
ATOM      3  C   UNL     1      -5.581  -0.479   0.702  0.00  0.00    +0.051 A 
ATOM      4  C   UNL     1      -5.079  -1.087  -0.471  0.00  0.00    +0.051 A 
ATOM      5  C   UNL     1      -4.356  -2.272  -0.726  0.00  0.00    +0.145 A 
ATOM      6  N   UNL     1      -4.144  -2.360  -2.009  0.00  0.00    -0.177 NA
ATOM      7  N   UNL     1      -4.707  -1.256  -2.659  0.00  0.00    -0.244 N 
ATOM      8  C   UNL     1      -5.293  -0.456  -1.712  0.00  0.00    +0.159 A 
ATOM      9  N   UNL     1      -5.960   0.689  -1.772  0.00  0.00    -0.232 NA
ENDROOT
BRANCH   3  10
ATOM     10  C   UNL     1      -5.383  -1.101   2.029  0.00  0.00    +0.248 C 
ATOM     11  O   UNL     1      -4.786  -0.498   2.899  0.00  0.00    -0.270 OA
ATOM     12  N   UNL     1      -5.864  -2.336   2.273  0.00  0.00    -0.296 N 
ATOM     13  C   UNL     1      -6.042  -3.300   1.178  0.00  0.00    +0.108 C 
ATOM     14  C   UNL     1      -5.310  -4.596   1.539  0.00  0.00    +0.019 C 
ATOM     15  C   UNL     1      -5.802  -5.093   2.901  0.00  0.00    +0.003 C 
ATOM     16  C   UNL     1      -5.487  -4.046   3.972  0.00  0.00    +0.021 C 
ATOM     17  C   UNL     1      -6.215  -2.746   3.639  0.00  0.00    +0.060 C 
BRANCH  17  18
ATOM     18  C   UNL     1      -5.791  -1.656   4.627  0.00  0.00    -0.057 C 
BRANCH  18  19
ATOM     19  N   UNL     1      -6.334  -1.963   5.957  0.00  0.00    +0.377 N 
ATOM     20  C   UNL     1      -6.277  -0.760   6.798  0.00  0.00    -0.097 C 
ATOM     21  C   UNL     1      -7.729  -2.404   5.827  0.00  0.00    -0.097 C 
ATOM     22  H   UNL     1      -5.787  -2.696   6.382  0.00  0.00    -0.083 HD
ENDBRANCH  18  19
ENDBRANCH  17  18
ENDBRANCH   3  10
BRANCH   1  24
ATOM     23  C   UNL     1      -8.678   2.305  -0.906  0.00  0.00    +0.014 C 
ATOM     24  C   UNL     1      -7.175   2.580  -0.836  0.00  0.00    +0.032 C 
ATOM     25  C   UNL     1      -6.875   3.471   0.371  0.00  0.00    +0.014 C 
ENDBRANCH   1  24
BRANCH   7  26
ATOM     26  C   UNL     1      -4.676  -0.999  -4.101  0.00  0.00    +0.103 C 
ATOM     27  C   UNL     1      -3.223  -0.895  -4.568  0.00  0.00    +0.032 C 
ATOM     28  C   UNL     1      -5.368  -2.148  -4.838  0.00  0.00    +0.032 C 
ENDBRANCH   7  26
TORSDOF 5
