REMARK  Name = ZINC64427069
REMARK  13 active torsions:
REMARK  status: ('A' for Active; 'I' for Inactive)
REMARK    1  A    between atoms: C_1  and  O_2
REMARK    2  A    between atoms: O_2  and  C_3
REMARK    3  A    between atoms: C_5  and  C_10
REMARK    4  A    between atoms: C_8  and  O_9
REMARK    5  A    between atoms: C_18  and  O_42
REMARK    6  A    between atoms: N_21  and  C_22
REMARK    7  A    between atoms: C_22  and  C_23
REMARK    8  A    between atoms: N_25  and  C_26
REMARK    9  A    between atoms: C_26  and  C_28
REMARK   10  A    between atoms: C_26  and  C_38
REMARK   11  A    between atoms: C_28  and  C_29
REMARK   12  A    between atoms: C_38  and  O_40
REMARK   13  A    between atoms: O_40  and  C_41
REMARK                            x       y       z     vdW  Elec       q    Type
REMARK                         _______ _______ _______ _____ _____    ______ ____
ROOT
ATOM      1  C   UNL     1       2.403   0.379  -4.230  0.00  0.00    -0.031 C 
ATOM      2  C   UNL     1       1.444   0.446  -5.423  0.00  0.00    +0.011 C 
ATOM      3  C   UNL     1       1.195  -0.971  -5.945  0.00  0.00    +0.005 C 
ATOM      4  C   UNL     1       0.266  -0.915  -7.159  0.00  0.00    +0.000 C 
ATOM      5  C   UNL     1       0.922  -0.082  -8.262  0.00  0.00    +0.003 C 
ATOM      6  C   UNL     1       1.166   1.338  -7.747  0.00  0.00    +0.035 C 
ATOM      7  C   UNL     1       2.078   1.304  -6.521  0.00  0.00    +0.066 C 
ATOM      8  C   UNL     1       3.431   0.704  -6.909  0.00  0.00    +0.016 C 
ATOM      9  C   UNL     1       4.317   0.618  -5.664  0.00  0.00    -0.075 C 
ATOM     10  N   UNL     1       3.670  -0.228  -4.654  0.00  0.00    +0.390 N 
ATOM     11  H   UNL     1       3.490  -1.140  -5.047  0.00  0.00    -0.080 HD
ENDROOT
BRANCH   1  14
ATOM     12  C   UNL     1       0.606  -0.608  -1.056  0.00  0.00    +0.161 A 
ATOM     13  C   UNL     1       1.173   0.159  -2.062  0.00  0.00    +0.051 A 
ATOM     14  C   UNL     1       1.787  -0.456  -3.137  0.00  0.00    -0.057 A 
ATOM     15  C   UNL     1       1.837  -1.836  -3.212  0.00  0.00    +0.006 A 
ATOM     16  C   UNL     1       1.273  -2.606  -2.212  0.00  0.00    +0.049 A 
ATOM     17  C   UNL     1       0.662  -1.996  -1.129  0.00  0.00    +0.158 A 
BRANCH  12  19
ATOM     18  C   UNL     1      -0.017   1.425   0.010  0.00  0.00    +0.277 C 
ATOM     19  O   UNL     1       0.002  -0.004   0.002  0.00  0.00    -0.491 OA
ENDBRANCH  12  19
BRANCH  17  20
ATOM     20  O   UNL     1       0.112  -2.753  -0.142  0.00  0.00    -0.503 OA
ATOM     21  H   UNL     1      -0.816  -2.979  -0.291  0.00  0.00    +0.292 HD
ENDBRANCH  17  20
ENDBRANCH   1  14
BRANCH   7  22
ATOM     22  O   UNL     1       2.278   2.631  -6.030  0.00  0.00    -0.388 OA
ATOM     23  H   UNL     1       2.677   3.232  -6.673  0.00  0.00    +0.210 HD
ENDBRANCH   7  22
BRANCH  10  24
ATOM     24  C   UNL     1       4.558  -0.366  -3.492  0.00  0.00    +0.019 C 
BRANCH  24  25
ATOM     25  C   UNL     1       5.810  -1.099  -3.901  0.00  0.00    +0.197 C 
ATOM     26  O   UNL     1       5.949  -1.470  -5.047  0.00  0.00    -0.278 OA
ATOM     27  N   UNL     1       6.775  -1.342  -2.992  0.00  0.00    -0.304 N 
ATOM     28  H   UNL     1       6.664  -1.045  -2.075  0.00  0.00    +0.149 HD
BRANCH  27  29
ATOM     29  C   UNL     1       7.992  -2.055  -3.389  0.00  0.00    +0.186 C 
BRANCH  29  30
ATOM     30  C   UNL     1       7.750  -3.541  -3.316  0.00  0.00    +0.328 C 
ATOM     31  O   UNL     1       6.672  -3.961  -2.969  0.00  0.00    -0.249 OA
BRANCH  30  32
ATOM     32  O   UNL     1       8.732  -4.397  -3.638  0.00  0.00    -0.467 OA
ATOM     33  C   UNL     1       8.433  -5.791  -3.546  0.00  0.00    +0.280 C 
ENDBRANCH  30  32
ENDBRANCH  29  30
BRANCH  29  34
ATOM     34  C   UNL     1       9.135  -1.678  -2.445  0.00  0.00    +0.067 C 
BRANCH  34  35
ATOM     35  C   UNL     1       9.459  -0.215  -2.607  0.00  0.00    -0.039 C 
ATOM     36  C   UNL     1       8.991   0.810  -1.858  0.00  0.00    -0.001 A 
ATOM     37  C   UNL     1       8.074   0.867  -0.713  0.00  0.00    +0.010 A 
ATOM     38  C   UNL     1       7.787   2.068  -0.162  0.00  0.00    +0.001 A 
ATOM     39  C   UNL     1       8.342   3.257  -0.656  0.00  0.00    +0.002 A 
ATOM     40  C   UNL     1       9.192   3.285  -1.704  0.00  0.00    +0.026 A 
ATOM     41  C   UNL     1       9.563   2.079  -2.361  0.00  0.00    +0.043 A 
ATOM     42  N   UNL     1      10.355   1.848  -3.380  0.00  0.00    -0.380 N 
ATOM     43  C   UNL     1      10.378   0.404  -3.636  0.00  0.00    +0.144 C 
ATOM     44  H   UNL     1      10.846   2.520  -3.879  0.00  0.00    +0.160 HD
ENDBRANCH  34  35
ENDBRANCH  29  34
ENDBRANCH  27  29
ENDBRANCH  24  25
ENDBRANCH  10  24
TORSDOF 11
