REMARK  Name = ZINC66898944
REMARK  5 active torsions:
REMARK  status: ('A' for Active; 'I' for Inactive)
REMARK    1  A    between atoms: C_3  and  C_11
REMARK    2  A    between atoms: N_16  and  C_17
REMARK    3  A    between atoms: C_17  and  C_18
REMARK    4  A    between atoms: C_18  and  C_19
REMARK    5  A    between atoms: C_19  and  N_20
REMARK                            x       y       z     vdW  Elec       q    Type
REMARK                         _______ _______ _______ _____ _____    ______ ____
ROOT
ATOM      1  C   UNL     1       3.670   2.195  -0.023  0.00  0.00    -0.034 C 
ATOM      2  C   UNL     1       4.208   2.329  -1.470  0.00  0.00    -0.012 C 
ATOM      3  C   UNL     1       5.088   3.602  -1.360  0.00  0.00    -0.020 C 
ATOM      4  C   UNL     1       4.302   4.482  -0.365  0.00  0.00    -0.078 C 
ATOM      5  N   UNL     1       3.437   3.584   0.426  0.00  0.00    +0.384 N 
ATOM      6  H   UNL     1       2.470   3.831   0.280  0.00  0.00    -0.081 HD
ENDROOT
BRANCH   1   9
ATOM      7  C   UNL     1      -0.009   1.363  -0.203  0.00  0.00    +0.004 A 
ATOM      8  C   UNL     1       1.177   2.073  -0.210  0.00  0.00    +0.006 A 
ATOM      9  C   UNL     1       2.378   1.418  -0.014  0.00  0.00    -0.016 A 
ATOM     10  C   UNL     1       2.397   0.046   0.190  0.00  0.00    +0.164 A 
ATOM     11  C   UNL     1       1.204  -0.667   0.199  0.00  0.00    +0.162 A 
ATOM     12  C   UNL     1       0.002  -0.004   0.001  0.00  0.00    +0.049 A 
ATOM     13  O   UNL     1       1.199  -2.013   0.406  0.00  0.00    -0.485 OA
ATOM     14  C   UNL     1       2.445  -2.696   0.229  0.00  0.00    +0.270 C 
ATOM     15  C   UNL     1       3.538  -1.896   0.952  0.00  0.00    +0.270 C 
ATOM     16  O   UNL     1       3.588  -0.586   0.377  0.00  0.00    -0.485 OA
ENDBRANCH   1   9
BRANCH   5  17
ATOM     17  C   UNL     1       3.767   3.704   1.852  0.00  0.00    -0.076 C 
BRANCH  17  18
ATOM     18  C   UNL     1       3.408   5.109   2.342  0.00  0.00    +0.001 C 
BRANCH  18  19
ATOM     19  C   UNL     1       3.752   5.234   3.828  0.00  0.00    +0.116 C 
BRANCH  19  20
ATOM     20  N   UNL     1       3.408   6.579   4.296  0.00  0.00    -0.225 N 
ATOM     21  C   UNL     1       4.252   7.629   4.268  0.00  0.00    +0.240 C 
ATOM     22  O   UNL     1       5.395   7.640   3.864  0.00  0.00    -0.273 OA
ATOM     23  C   UNL     1       3.474   8.796   4.844  0.00  0.00    +0.202 C 
ATOM     24  N   UNL     1       2.159   8.212   5.160  0.00  0.00    -0.290 N 
ATOM     25  C   UNL     1       2.216   6.917   4.801  0.00  0.00    +0.309 C 
ATOM     26  O   UNL     1       1.290   6.140   4.925  0.00  0.00    -0.252 OA
ATOM     27  H   UNL     1       1.399   8.672   5.550  0.00  0.00    +0.151 HD
ENDBRANCH  19  20
ENDBRANCH  18  19
ENDBRANCH  17  18
ENDBRANCH   5  17
TORSDOF 5
