REMARK  Name = ZINC02701432
REMARK  7 active torsions:
REMARK  status: ('A' for Active; 'I' for Inactive)
REMARK    1  A    between atoms: C_1  and  C_2
REMARK    2  A    between atoms: C_3  and  C_24
REMARK    3  A    between atoms: C_4  and  C_17
REMARK    4  A    between atoms: C_20  and  O_23
REMARK    5  A    between atoms: C_24  and  O_26
REMARK    6  A    between atoms: O_26  and  C_27
REMARK    7  A    between atoms: C_27  and  C_28
REMARK                            x       y       z     vdW  Elec       q    Type
REMARK                         _______ _______ _______ _____ _____    ______ ____
ROOT
ATOM      1  C   UNL     1       1.306   3.724  -0.007  0.00  0.00    +0.061 C 
ATOM      2  C   UNL     1       1.243   2.219  -0.001  0.00  0.00    +0.017 C 
ATOM      3  C   UNL     1       0.048   1.606   0.029  0.00  0.00    +0.065 C 
ATOM      4  C   UNL     1      -0.072   0.110   0.027  0.00  0.00    +0.096 C 
ATOM      5  C   UNL     1       1.238  -0.533   0.386  0.00  0.00    +0.067 A 
ATOM      6  C   UNL     1       2.404   0.171   0.340  0.00  0.00    +0.113 A 
ATOM      7  N   UNL     1       3.585  -0.450   0.669  0.00  0.00    -0.295 N 
ATOM      8  H   UNL     1       4.443   0.062   0.634  0.00  0.00    +0.172 HD
ATOM      9  C   UNL     1       3.592  -1.744   1.038  0.00  0.00    +0.328 A 
ATOM     10  O   UNL     1       4.646  -2.279   1.326  0.00  0.00    -0.247 OA
ATOM     11  N   UNL     1       2.451  -2.455   1.094  0.00  0.00    -0.275 N 
ATOM     12  H   UNL     1       2.478  -3.415   1.373  0.00  0.00    +0.173 HD
ATOM     13  C   UNL     1       1.272  -1.884   0.776  0.00  0.00    +0.260 A 
ATOM     14  O   UNL     1       0.243  -2.534   0.828  0.00  0.00    -0.267 OA
ATOM     15  N   UNL     1       2.404   1.495  -0.027  0.00  0.00    -0.304 N 
ATOM     16  H   UNL     1       3.230   1.919  -0.306  0.00  0.00    +0.153 HD
ENDROOT
BRANCH   4  17
ATOM     17  C   UNL     1      -0.490  -0.352  -1.345  0.00  0.00    -0.035 A 
ATOM     18  C   UNL     1       0.304  -0.070  -2.441  0.00  0.00    +0.008 A 
ATOM     19  C   UNL     1      -0.075  -0.497  -3.699  0.00  0.00    +0.046 A 
ATOM     20  C   UNL     1      -1.259  -1.200  -3.864  0.00  0.00    +0.117 A 
ATOM     21  C   UNL     1      -2.058  -1.478  -2.763  0.00  0.00    +0.046 A 
ATOM     22  C   UNL     1      -1.671  -1.053  -1.507  0.00  0.00    +0.008 A 
BRANCH  20  23
ATOM     23  O   UNL     1      -1.637  -1.617  -5.101  0.00  0.00    -0.507 OA
ATOM     24  H   UNL     1      -2.180  -0.978  -5.582  0.00  0.00    +0.292 HD
ENDBRANCH  20  23
ENDBRANCH   4  17
BRANCH   3  25
ATOM     25  C   UNL     1      -1.128   2.391   0.057  0.00  0.00    +0.338 C 
ATOM     26  O   UNL     1      -1.050   3.601   0.161  0.00  0.00    -0.245 OA
BRANCH  25  27
ATOM     27  O   UNL     1      -2.337   1.798  -0.031  0.00  0.00    -0.457 OA
BRANCH  27  28
ATOM     28  C   UNL     1      -3.483   2.652   0.004  0.00  0.00    +0.268 C 
BRANCH  28  29
ATOM     29  C   UNL     1      -4.734   1.819  -0.105  0.00  0.00    -0.010 A 
ATOM     30  C   UNL     1      -5.273   1.542  -1.347  0.00  0.00    +0.007 A 
ATOM     31  C   UNL     1      -6.418   0.774  -1.448  0.00  0.00    +0.000 A 
ATOM     32  C   UNL     1      -7.029   0.292  -0.306  0.00  0.00    +0.000 A 
ATOM     33  C   UNL     1      -6.493   0.574   0.936  0.00  0.00    +0.000 A 
ATOM     34  C   UNL     1      -5.345   1.337   1.037  0.00  0.00    +0.007 A 
ENDBRANCH  28  29
ENDBRANCH  27  28
ENDBRANCH  25  27
ENDBRANCH   3  25
TORSDOF 6
