REMARK  Name = ZINC00815056
REMARK  4 active torsions:
REMARK  status: ('A' for Active; 'I' for Inactive)
REMARK    1  A    between atoms: C_4  and  C_7
REMARK    2  A    between atoms: C_9  and  C_12
REMARK    3  A    between atoms: N_14  and  C_15
REMARK    4  A    between atoms: C_16  and  C_23
REMARK                            x       y       z     vdW  Elec       q    Type
REMARK                         _______ _______ _______ _____ _____    ______ ____
ROOT
ATOM      1  C   UNL     1      -3.530  -3.617   0.017  0.00  0.00    +0.270 C 
ATOM      2  O   UNL     1      -2.902  -4.658   0.005  0.00  0.00    -0.268 OA
ATOM      3  N   UNL     1      -4.877  -3.643   0.030  0.00  0.00    -0.274 N 
ATOM      4  H   UNL     1      -5.378  -2.812   0.040  0.00  0.00    +0.156 HD
ENDROOT
BRANCH   3   5
ATOM      5  C   UNL     1      -5.548  -4.856   0.030  0.00  0.00    +0.090 A 
ATOM      6  C   UNL     1      -6.913  -5.085   0.043  0.00  0.00    +0.084 A 
ATOM      7  C   UNL     1      -7.367  -6.474   0.039  0.00  0.00    -0.018 A 
ATOM      8  C   UNL     1      -6.387  -7.396   0.025  0.00  0.00    -0.004 A 
ATOM      9  S   UNL     1      -4.881  -6.453   0.007  0.00  0.00    -0.077 S 
ATOM     10  C   UNL     1      -6.931  -8.798   0.026  0.00  0.00    +0.043 C 
ATOM     11  C   UNL     1      -8.401  -8.645   0.476  0.00  0.00    +0.010 C 
ATOM     12  C   UNL     1      -8.714  -7.199   0.043  0.00  0.00    +0.037 C 
BRANCH   6  13
ATOM     13  C   UNL     1      -7.846  -3.999   0.059  0.00  0.00    +0.102 C 
ATOM     14  N   UNL     1      -8.587  -3.137   0.072  0.00  0.00    -0.191 NA
ENDBRANCH   6  13
ENDBRANCH   3   5
BRANCH   1  17
ATOM     15  C   UNL     1      -1.266  -0.764   0.011  0.00  0.00    +0.168 A 
ATOM     16  C   UNL     1      -1.407  -2.124  -0.001  0.00  0.00    +0.086 A 
ATOM     17  C   UNL     1      -2.812  -2.319   0.017  0.00  0.00    +0.169 A 
ATOM     18  N   UNL     1      -3.350  -1.124   0.029  0.00  0.00    -0.073 NA
ATOM     19  O   UNL     1      -2.511  -0.254   0.025  0.00  0.00    -0.354 OA
BRANCH  15  23
ATOM     20  C   UNL     1       2.378   1.419  -0.013  0.00  0.00    +0.000 A 
ATOM     21  C   UNL     1       1.170   2.094   0.002  0.00  0.00    +0.001 A 
ATOM     22  C   UNL     1      -0.017   1.391   0.010  0.00  0.00    +0.011 A 
ATOM     23  C   UNL     1       0.002  -0.004   0.002  0.00  0.00    +0.020 A 
ATOM     24  C   UNL     1       1.223  -0.679  -0.013  0.00  0.00    +0.011 A 
ATOM     25  C   UNL     1       2.403   0.036  -0.021  0.00  0.00    +0.001 A 
ENDBRANCH  15  23
ENDBRANCH   1  17
TORSDOF 4
