REMARK  Name = ZINC61629306
REMARK  5 active torsions:
REMARK  status: ('A' for Active; 'I' for Inactive)
REMARK    1  A    between atoms: C_1  and  C_2
REMARK    2  A    between atoms: C_2  and  N_9
REMARK    3  A    between atoms: C_10  and  S_17
REMARK    4  A    between atoms: C_12  and  C_14
REMARK    5  A    between atoms: S_17  and  N_20
REMARK                            x       y       z     vdW  Elec       q    Type
REMARK                         _______ _______ _______ _____ _____    ______ ____
ROOT
ATOM      1  N   UNL     1       0.597  -0.351  -1.305  0.00  0.00    -0.238 N 
ATOM      2  C   UNL     1       1.909  -0.259  -1.608  0.00  0.00    +0.193 A 
ATOM      3  C   UNL     1       2.114  -0.935  -2.762  0.00  0.00    +0.079 A 
ATOM      4  C   UNL     1       0.885  -1.457  -3.179  0.00  0.00    +0.130 A 
ATOM      5  N   UNL     1      -0.024  -1.113  -2.303  0.00  0.00    -0.168 NA
ENDROOT
BRANCH   1   7
ATOM      6  C   UNL     1       0.266   1.732  -0.091  0.00  0.00    +0.038 C 
ATOM      7  C   UNL     1      -0.060   0.237  -0.135  0.00  0.00    +0.084 C 
ATOM      8  C   UNL     1      -1.571   0.070  -0.291  0.00  0.00    +0.054 C 
ATOM      9  C   UNL     1      -2.033  -1.271   0.343  0.00  0.00    +0.168 C 
ATOM     10  S   UNL     1      -0.962  -1.285   1.848  0.00  0.00    -0.029 S 
ATOM     11  O   UNL     1      -1.547  -0.460   2.845  0.00  0.00    -0.174 OA
ATOM     12  O   UNL     1      -0.614  -2.627   2.161  0.00  0.00    -0.174 OA
ATOM     13  C   UNL     1       0.504  -0.429   1.135  0.00  0.00    +0.195 C 
ENDBRANCH   1   7
BRANCH   4  14
ATOM     14  C   UNL     1       0.650  -2.281  -4.419  0.00  0.00    +0.391 C 
ATOM     15  F   UNL     1      -0.651  -2.060  -4.885  0.00  0.00    -0.202 F 
ATOM     16  F   UNL     1       1.569  -1.910  -5.406  0.00  0.00    -0.202 F 
ENDBRANCH   4  14
BRANCH   2  17
ATOM     17  S   UNL     1       3.135   0.589  -0.669  0.00  0.00    +0.073 S 
ATOM     18  O   UNL     1       3.086   1.951  -1.073  0.00  0.00    -0.152 OA
ATOM     19  O   UNL     1       2.961   0.189   0.683  0.00  0.00    -0.152 OA
BRANCH  17  20
ATOM     20  N   UNL     1       4.609   0.006  -1.149  0.00  0.00    -0.202 NA
ATOM     21  H   UNL     1       4.660  -0.679  -1.833  0.00  0.00    +0.144 HD
ATOM     22  H   UNL     1       5.422   0.351  -0.746  0.00  0.00    +0.144 HD
ENDBRANCH  17  20
ENDBRANCH   2  17
TORSDOF 4
