REMARK  Name = ZINC64155590
REMARK  6 active torsions:
REMARK  status: ('A' for Active; 'I' for Inactive)
REMARK    1  A    between atoms: C_1  and  C_2
REMARK    2  A    between atoms: C_4  and  C_29
REMARK    3  A    between atoms: C_8  and  C_12
REMARK    4  A    between atoms: C_12  and  C_14
REMARK    5  A    between atoms: C_12  and  N_15
REMARK    6  A    between atoms: N_15  and  C_16
REMARK                            x       y       z     vdW  Elec       q    Type
REMARK                         _______ _______ _______ _____ _____    ______ ____
ROOT
ATOM      1  C   UNL     1       5.277  -3.531   0.228  0.00  0.00    +0.133 C 
ATOM      2  C   UNL     1       4.839  -4.651   1.175  0.00  0.00    +0.036 C 
ENDROOT
BRANCH   1   9
ATOM      3  C   UNL     1      -0.019   1.526   0.010  0.00  0.00    +0.024 C 
ATOM      4  C   UNL     1       0.002  -0.004   0.002  0.00  0.00    +0.076 C 
ATOM      5  C   UNL     1       0.769  -0.528  -1.190  0.00  0.00    -0.045 C 
ATOM      6  C   UNL     1       1.868  -1.261  -0.953  0.00  0.00    +0.071 C 
ATOM      7  C   UNL     1       2.243  -1.498   0.457  0.00  0.00    +0.112 C 
ATOM      8  N   UNL     1       3.306  -2.207   0.754  0.00  0.00    -0.226 NA
ATOM      9  C   UNL     1       4.072  -2.729  -0.191  0.00  0.00    +0.143 C 
ATOM     10  N   UNL     1       3.837  -2.585  -1.473  0.00  0.00    -0.159 NA
ATOM     11  C   UNL     1       2.796  -1.891  -1.945  0.00  0.00    +0.271 C 
ATOM     12  O   UNL     1       2.607  -1.777  -3.144  0.00  0.00    -0.268 OA
ATOM     13  S   UNL     1       0.997  -0.657   1.404  0.00  0.00    -0.098 S 
ATOM     14  C   UNL     1       0.315  -0.239  -2.598  0.00  0.00    +0.041 C 
ENDBRANCH   1   9
BRANCH   1  15
ATOM     15  N   UNL     1       5.912  -4.114  -0.957  0.00  0.00    -0.334 N 
ATOM     16  H   UNL     1       5.390  -4.273  -1.758  0.00  0.00    +0.147 HD
BRANCH  15  17
ATOM     17  C   UNL     1       7.272  -4.441  -0.931  0.00  0.00    +0.030 A 
ATOM     18  C   UNL     1       8.018  -4.218   0.221  0.00  0.00    +0.025 A 
ATOM     19  C   UNL     1       9.360  -4.539   0.252  0.00  0.00    +0.029 A 
ATOM     20  C   UNL     1       9.967  -5.086  -0.869  0.00  0.00    +0.067 A 
ATOM     21  C   UNL     1       9.221  -5.311  -2.027  0.00  0.00    +0.069 A 
ATOM     22  C   UNL     1       7.872  -4.992  -2.054  0.00  0.00    +0.050 A 
ATOM     23  N   UNL     1      10.091  -5.859  -2.967  0.00  0.00    -0.306 N 
ATOM     24  H   UNL     1       9.858  -6.120  -3.871  0.00  0.00    +0.170 HD
ATOM     25  C   UNL     1      11.311  -5.962  -2.407  0.00  0.00    +0.325 A 
ATOM     26  O   UNL     1      12.301  -6.404  -2.961  0.00  0.00    -0.247 OA
ATOM     27  N   UNL     1      11.270  -5.505  -1.142  0.00  0.00    -0.306 N 
ATOM     28  H   UNL     1      12.018  -5.472  -0.525  0.00  0.00    +0.170 HD
ENDBRANCH  15  17
ENDBRANCH   1  15
TORSDOF 3
