REMARK  Name = ZINC10077174
REMARK  9 active torsions:
REMARK  status: ('A' for Active; 'I' for Inactive)
REMARK    1  A    between atoms: C_1  and  C_2
REMARK    2  A    between atoms: C_5  and  N_8
REMARK    3  A    between atoms: C_9  and  C_26
REMARK    4  A    between atoms: C_11  and  C_16
REMARK    5  A    between atoms: N_18  and  C_19
REMARK    6  A    between atoms: C_19  and  C_20
REMARK    7  A    between atoms: N_22  and  C_23
REMARK    8  A    between atoms: C_23  and  C_24
REMARK    9  A    between atoms: C_23  and  C_25
REMARK                            x       y       z     vdW  Elec       q    Type
REMARK                         _______ _______ _______ _____ _____    ______ ____
ROOT
ATOM      1  N   UNL     1       0.014  -4.137   0.016  0.00  0.00    -0.263 N 
ATOM      2  C   UNL     1       0.182  -5.012   1.182  0.00  0.00    +0.130 C 
ATOM      3  C   UNL     1       0.619  -6.380   0.613  0.00  0.00    +0.109 C 
ATOM      4  C   UNL     1       0.031  -6.328  -0.817  0.00  0.00    +0.111 C 
ATOM      5  C   UNL     1      -0.084  -4.851  -1.119  0.00  0.00    +0.221 C 
ATOM      6  O   UNL     1      -0.240  -4.378  -2.225  0.00  0.00    -0.275 OA
ENDROOT
BRANCH   1  11
ATOM      7  C   UNL     1      -0.213   1.526   0.267  0.00  0.00    +0.044 C 
ATOM      8  C   UNL     1      -0.152   0.021   0.200  0.00  0.00    -0.050 A 
ATOM      9  C   UNL     1      -0.129  -0.614  -1.027  0.00  0.00    +0.005 A 
ATOM     10  C   UNL     1      -0.074  -1.993  -1.092  0.00  0.00    +0.024 A 
ATOM     11  C   UNL     1      -0.041  -2.740   0.078  0.00  0.00    +0.037 A 
ATOM     12  C   UNL     1      -0.065  -2.099   1.309  0.00  0.00    +0.024 A 
ATOM     13  C   UNL     1      -0.115  -0.720   1.367  0.00  0.00    +0.005 A 
ENDBRANCH   1  11
BRANCH   2  14
ATOM     14  C   UNL     1       1.245  -4.462   2.098  0.00  0.00    +0.011 A 
ATOM     15  C   UNL     1       1.298  -4.481   3.452  0.00  0.00    +0.013 A 
ATOM     16  C   UNL     1       2.384  -3.909   4.088  0.00  0.00    +0.008 A 
ATOM     17  C   UNL     1       3.364  -3.349   3.339  0.00  0.00    +0.045 A 
ATOM     18  S   UNL     1       2.766  -3.626   1.680  0.00  0.00    -0.100 S 
ENDBRANCH   2  14
BRANCH   3  19
ATOM     19  C   UNL     1       2.121  -6.493   0.575  0.00  0.00    +0.219 C 
ATOM     20  O   UNL     1       2.739  -6.052  -0.371  0.00  0.00    -0.275 OA
ATOM     21  N   UNL     1       2.778  -7.084   1.592  0.00  0.00    -0.306 N 
ATOM     22  H   UNL     1       2.284  -7.436   2.349  0.00  0.00    +0.149 HD
BRANCH  21  23
ATOM     23  C   UNL     1       4.239  -7.194   1.556  0.00  0.00    +0.200 C 
BRANCH  23  24
ATOM     24  C   UNL     1       4.721  -7.890   2.802  0.00  0.00    +0.230 C 
ATOM     25  O   UNL     1       3.924  -8.257   3.639  0.00  0.00    -0.274 OA
ATOM     26  N   UNL     1       6.039  -8.103   2.987  0.00  0.00    -0.312 N 
ATOM     27  H   UNL     1       6.677  -7.809   2.318  0.00  0.00    +0.149 HD
BRANCH  26  28
ATOM     28  C   UNL     1       6.508  -8.779   4.199  0.00  0.00    +0.067 C 
ATOM     29  C   UNL     1       7.858  -9.444   3.922  0.00  0.00    +0.027 C 
ATOM     30  C   UNL     1       6.665  -7.756   5.326  0.00  0.00    +0.027 C 
ENDBRANCH  26  28
ENDBRANCH  23  24
ENDBRANCH  21  23
ENDBRANCH   3  19
TORSDOF 6
