REMARK  Name = ZINC54121695
REMARK  5 active torsions:
REMARK  status: ('A' for Active; 'I' for Inactive)
REMARK    1  A    between atoms: C_1  and  C_2
REMARK    2  A    between atoms: C_2  and  C_3
REMARK    3  A    between atoms: C_7  and  C_8
REMARK    4  A    between atoms: C_14  and  C_16
REMARK    5  A    between atoms: C_18  and  C_21
REMARK                            x       y       z     vdW  Elec       q    Type
REMARK                         _______ _______ _______ _____ _____    ______ ____
ROOT
ATOM      1  C   UNL     1       3.087  -0.341  -0.264  0.00  0.00    +0.254 C 
ATOM      2  O   UNL     1       2.253  -0.645  -1.097  0.00  0.00    -0.269 OA
ATOM      3  N   UNL     1       4.399  -0.439  -0.558  0.00  0.00    -0.296 N 
ATOM      4  C   UNL     1       4.838  -0.817  -1.908  0.00  0.00    +0.108 C 
ATOM      5  C   UNL     1       5.821   0.240  -2.421  0.00  0.00    +0.020 C 
ATOM      6  C   UNL     1       6.960   0.404  -1.412  0.00  0.00    +0.016 C 
ATOM      7  C   UNL     1       6.394   0.880  -0.073  0.00  0.00    +0.095 C 
ATOM      8  C   UNL     1       5.417  -0.164   0.465  0.00  0.00    +0.121 C 
ENDROOT
BRANCH   7   9
ATOM      9  C   UNL     1       7.520   1.072   0.910  0.00  0.00    +0.232 A 
ATOM     10  N   UNL     1       7.830   2.188   1.509  0.00  0.00    -0.196 NA
ATOM     11  C   UNL     1       8.882   2.001   2.314  0.00  0.00    +0.169 A 
ATOM     12  N   UNL     1       9.256   0.756   2.236  0.00  0.00    -0.062 NA
ATOM     13  O   UNL     1       8.371   0.124   1.323  0.00  0.00    -0.338 OA
ATOM     14  C   UNL     1       9.529   3.058   3.171  0.00  0.00    +0.091 C 
ENDBRANCH   7   9
BRANCH   1  19
ATOM     15  C   UNL     1       1.683   1.054   1.383  0.00  0.00    -0.028 A 
ATOM     16  C   UNL     1       1.509   1.292   2.725  0.00  0.00    +0.012 A 
ATOM     17  C   UNL     1       2.289   0.634   3.618  0.00  0.00    +0.046 A 
ATOM     18  S   UNL     1       3.282  -0.330   2.665  0.00  0.00    -0.092 S 
ATOM     19  C   UNL     1       2.665   0.131   1.057  0.00  0.00    +0.077 A 
BRANCH  15  21
ATOM     20  C   UNL     1      -0.335   0.862  -0.045  0.00  0.00    +0.009 C 
ATOM     21  C   UNL     1       0.855   1.747   0.332  0.00  0.00    +0.033 C 
ENDBRANCH  15  21
ENDBRANCH   1  19
TORSDOF 3
