REMARK  Name = ZINC64567832
REMARK  8 active torsions:
REMARK  status: ('A' for Active; 'I' for Inactive)
REMARK    1  A    between atoms: C_1  and  C_2
REMARK    2  A    between atoms: C_5  and  C_23
REMARK    3  A    between atoms: C_8  and  C_10
REMARK    4  A    between atoms: C_14  and  O_20
REMARK    5  A    between atoms: C_15  and  O_16
REMARK    6  A    between atoms: O_16  and  C_17
REMARK    7  A    between atoms: C_17  and  C_19
REMARK    8  A    between atoms: O_20  and  C_21
REMARK                            x       y       z     vdW  Elec       q    Type
REMARK                         _______ _______ _______ _____ _____    ______ ____
ROOT
ATOM      1  C   UNL     1      -0.018   1.503   0.010  0.00  0.00    +0.111 C 
ATOM      2  C   UNL     1       0.002  -0.004   0.002  0.00  0.00    +0.235 C 
ATOM      3  O   UNL     1       0.020  -0.616   1.050  0.00  0.00    -0.274 OA
ATOM      4  N   UNL     1       0.000  -0.672  -1.170  0.00  0.00    -0.146 N 
ATOM      5  C   UNL     1       0.012  -2.133  -1.366  0.00  0.00    +0.319 C 
ATOM      6  O   UNL     1       0.004  -2.298  -2.791  0.00  0.00    -0.447 OA
ATOM      7  C   UNL     1      -0.011  -1.066  -3.349  0.00  0.00    +0.244 C 
ATOM      8  N   UNL     1      -0.020  -0.124  -2.461  0.00  0.00    -0.135 NA
ENDROOT
BRANCH   7   9
ATOM      9  C   UNL     1      -0.024  -0.823  -4.805  0.00  0.00    +0.085 A 
ATOM     10  C   UNL     1      -0.026  -1.899  -5.696  0.00  0.00    +0.032 A 
ATOM     11  C   UNL     1      -0.038  -1.668  -7.056  0.00  0.00    +0.022 A 
ATOM     12  C   UNL     1      -0.048  -0.372  -7.545  0.00  0.00    +0.064 A 
ATOM     13  C   UNL     1      -0.045   0.705  -6.672  0.00  0.00    +0.164 A 
ATOM     14  C   UNL     1      -0.039   0.486  -5.299  0.00  0.00    +0.185 A 
ATOM     15 BR   UNL     1      -0.041  -3.127  -8.259  0.00  0.00    -0.050 Br
BRANCH  13  16
ATOM     16  O   UNL     1      -0.054   1.974  -7.158  0.00  0.00    -0.491 OA
ATOM     17  C   UNL     1      -0.066   2.125  -8.579  0.00  0.00    +0.277 C 
ENDBRANCH  13  16
BRANCH  14  18
ATOM     18  O   UNL     1      -0.043   1.540  -4.440  0.00  0.00    -0.422 OA
BRANCH  18  19
ATOM     19  C   UNL     1       1.141   2.039  -4.051  0.00  0.00    +0.309 C 
ATOM     20  O   UNL     1       2.167   1.552  -4.463  0.00  0.00    -0.251 OA
ATOM     21  C   UNL     1       1.190   3.207  -3.100  0.00  0.00    +0.136 C 
ENDBRANCH  18  19
ENDBRANCH  14  18
ENDBRANCH   7   9
BRANCH   5  22
ATOM     22  C   UNL     1       1.259  -2.734  -0.770  0.00  0.00    +0.013 A 
ATOM     23  C   UNL     1       2.424  -1.993  -0.713  0.00  0.00    +0.012 A 
ATOM     24  C   UNL     1       3.568  -2.543  -0.167  0.00  0.00    +0.039 A 
ATOM     25  C   UNL     1       3.546  -3.837   0.325  0.00  0.00    +0.123 A 
ATOM     26  C   UNL     1       2.378  -4.579   0.268  0.00  0.00    +0.039 A 
ATOM     27  C   UNL     1       1.234  -4.025  -0.274  0.00  0.00    +0.012 A 
ATOM     28  F   UNL     1       4.664  -4.377   0.859  0.00  0.00    -0.205 F 
ENDBRANCH   5  22
TORSDOF 5
