REMARK  Name = ZINC04505939
REMARK  3 active torsions:
REMARK  status: ('A' for Active; 'I' for Inactive)
REMARK    1  A    between atoms: C_4  and  C_7
REMARK    2  A    between atoms: C_7  and  N_8
REMARK    3  A    between atoms: C_14  and  C_20
REMARK                            x       y       z     vdW  Elec       q    Type
REMARK                         _______ _______ _______ _____ _____    ______ ____
ROOT
ATOM      1  N   UNL     1      -0.089   5.843  -1.348  0.00  0.00    -0.288 N 
ATOM      2  C   UNL     1       1.083   6.160  -2.177  0.00  0.00    +0.159 C 
ATOM      3  C   UNL     1       0.511   6.622  -3.498  0.00  0.00    +0.039 C 
ATOM      4  C   UNL     1      -0.830   6.564  -3.373  0.00  0.00    +0.058 C 
ATOM      5  C   UNL     1      -1.182   6.099  -2.089  0.00  0.00    +0.247 C 
ATOM      6  O   UNL     1      -2.327   5.948  -1.702  0.00  0.00    -0.270 OA
ATOM      7  C   UNL     1      -1.668   6.984  -4.563  0.00  0.00    +0.142 C 
ATOM      8  N   UNL     1      -0.943   7.425  -5.767  0.00  0.00    -0.288 N 
ATOM      9  C   UNL     1       0.404   7.428  -5.739  0.00  0.00    +0.304 C 
ATOM     10  O   UNL     1       1.012   7.791  -6.728  0.00  0.00    -0.252 OA
ATOM     11  N   UNL     1       1.096   7.046  -4.658  0.00  0.00    -0.271 N 
ATOM     12  H   UNL     1      -1.424   7.705  -6.561  0.00  0.00    +0.151 HD
ATOM     13  H   UNL     1       2.064   7.071  -4.700  0.00  0.00    +0.156 HD
ENDROOT
BRANCH   7  14
ATOM     14  C   UNL     1      -2.544   5.820  -4.948  0.00  0.00    -0.023 A 
ATOM     15  C   UNL     1      -2.026   4.785  -5.704  0.00  0.00    +0.006 A 
ATOM     16  C   UNL     1      -2.829   3.715  -6.054  0.00  0.00    +0.000 A 
ATOM     17  C   UNL     1      -4.152   3.684  -5.655  0.00  0.00    +0.000 A 
ATOM     18  C   UNL     1      -4.672   4.722  -4.903  0.00  0.00    +0.000 A 
ATOM     19  C   UNL     1      -3.868   5.790  -4.550  0.00  0.00    +0.006 A 
ENDBRANCH   7  14
BRANCH   1  20
ATOM     20  C   UNL     1      -0.070   5.347   0.031  0.00  0.00    +0.143 C 
BRANCH  20  24
ATOM     21  C   UNL     1      -0.013   1.076   0.008  0.00  0.00    +0.000 A 
ATOM     22  C   UNL     1      -1.219   1.751   0.017  0.00  0.00    +0.000 A 
ATOM     23  C   UNL     1      -1.238   3.133   0.029  0.00  0.00    +0.005 A 
ATOM     24  C   UNL     1      -0.050   3.840   0.022  0.00  0.00    -0.030 A 
ATOM     25  C   UNL     1       1.156   3.165   0.008  0.00  0.00    +0.005 A 
ATOM     26  C   UNL     1       1.175   1.783   0.000  0.00  0.00    +0.000 A 
ENDBRANCH  20  24
ENDBRANCH   1  20
TORSDOF 3
