REMARK  Name = ZINC58245451
REMARK  5 active torsions:
REMARK  status: ('A' for Active; 'I' for Inactive)
REMARK    1  A    between atoms: C_1  and  C_2
REMARK    2  A    between atoms: C_2  and  N_3
REMARK    3  A    between atoms: C_4  and  C_6
REMARK    4  A    between atoms: C_12  and  C_14
REMARK    5  A    between atoms: C_23  and  O_24
REMARK                            x       y       z     vdW  Elec       q    Type
REMARK                         _______ _______ _______ _____ _____    ______ ____
ROOT
ATOM      1  C   UNL     1       1.546  -2.307  -2.393  0.00  0.00    +0.162 C 
ATOM      2  C   UNL     1       2.983  -1.844  -2.076  0.00  0.00    +0.033 C 
ATOM      3  C   UNL     1       3.608  -3.091  -1.396  0.00  0.00    +0.021 C 
ATOM      4  C   UNL     1       2.935  -4.244  -2.181  0.00  0.00    +0.109 C 
ATOM      5  N   UNL     1       1.556  -3.777  -2.434  0.00  0.00    -0.286 N 
ATOM      6  C   UNL     1       0.486  -4.564  -2.663  0.00  0.00    +0.251 C 
ATOM      7  O   UNL     1      -0.621  -4.070  -2.765  0.00  0.00    -0.270 OA
ENDROOT
BRANCH   6   8
ATOM      8  C   UNL     1       0.658  -6.021  -2.791  0.00  0.00    +0.079 A 
ATOM      9  C   UNL     1       1.798  -6.538  -3.434  0.00  0.00    +0.017 A 
ATOM     10  C   UNL     1       1.978  -7.876  -3.564  0.00  0.00    +0.009 A 
ATOM     11  C   UNL     1       1.021  -8.773  -3.053  0.00  0.00    -0.014 A 
ATOM     12  C   UNL     1       1.192 -10.162  -3.178  0.00  0.00    +0.008 A 
ATOM     13  C   UNL     1       0.249 -11.006  -2.674  0.00  0.00    +0.001 A 
ATOM     14  C   UNL     1      -0.885 -10.514  -2.034  0.00  0.00    +0.001 A 
ATOM     15  C   UNL     1      -1.085  -9.174  -1.895  0.00  0.00    +0.012 A 
ATOM     16  C   UNL     1      -0.134  -8.273  -2.402  0.00  0.00    +0.024 A 
ATOM     17  C   UNL     1      -0.307  -6.880  -2.269  0.00  0.00    +0.137 A 
BRANCH  17  18
ATOM     18  O   UNL     1      -1.401  -6.383  -1.646  0.00  0.00    -0.505 OA
ATOM     19  H   UNL     1      -2.151  -6.222  -2.236  0.00  0.00    +0.292 HD
ENDBRANCH  17  18
ENDBRANCH   6   8
BRANCH   1  21
ATOM     20  N   UNL     1       0.444  -0.512  -1.096  0.00  0.00    -0.314 N 
ATOM     21  C   UNL     1       0.605  -1.832  -1.315  0.00  0.00    +0.234 C 
ATOM     22  O   UNL     1      -0.007  -2.637  -0.646  0.00  0.00    -0.274 OA
ATOM     23  H   UNL     1       0.934   0.132  -1.631  0.00  0.00    +0.149 HD
BRANCH  20  25
ATOM     24  C   UNL     1      -0.468   1.480  -0.008  0.00  0.00    +0.024 C 
ATOM     25  C   UNL     1      -0.470  -0.050  -0.049  0.00  0.00    +0.101 C 
ENDBRANCH  20  25
ENDBRANCH   1  21
TORSDOF 4
