REMARK  Name = ZINC20519223
REMARK  6 active torsions:
REMARK  status: ('A' for Active; 'I' for Inactive)
REMARK    1  A    between atoms: C_1  and  O_2
REMARK    2  A    between atoms: O_2  and  C_3
REMARK    3  A    between atoms: C_6  and  C_11
REMARK    4  A    between atoms: C_8  and  O_9
REMARK    5  A    between atoms: O_9  and  C_10
REMARK    6  A    between atoms: C_21  and  C_23
REMARK                            x       y       z     vdW  Elec       q    Type
REMARK                         _______ _______ _______ _____ _____    ______ ____
ROOT
ATOM      1  C   UNL     1       2.459  -2.477  -4.357  0.00  0.00    +0.024 C 
ATOM      2  C   UNL     1       2.944  -1.722  -5.401  0.00  0.00    +0.079 C 
ATOM      3  C   UNL     1       2.931  -0.232  -5.365  0.00  0.00    +0.132 C 
ATOM      4  N   UNL     1       3.081   0.460  -4.268  0.00  0.00    -0.385 N 
ATOM      5  N   UNL     1       2.742   0.357  -6.634  0.00  0.00    -0.153 N 
ATOM      6  C   UNL     1       3.083  -0.392  -7.741  0.00  0.00    +0.181 C 
ATOM      7  N   UNL     1       3.479  -1.639  -7.769  0.00  0.00    -0.152 NA
ATOM      8  C   UNL     1       3.512  -2.348  -6.621  0.00  0.00    +0.273 C 
ATOM      9  O   UNL     1       3.991  -3.470  -6.586  0.00  0.00    -0.268 OA
ATOM     10  S   UNL     1       2.822   0.758  -9.066  0.00  0.00    -0.033 S 
ATOM     11  C   UNL     1       2.188   2.110  -8.084  0.00  0.00    +0.130 C 
ATOM     12  N   UNL     1       2.255   1.625  -6.868  0.00  0.00    -0.164 NA
ATOM     13  H   UNL     1       3.291   0.009  -3.434  0.00  0.00    +0.157 HD
ATOM     14  H   UNL     1       2.983   1.425  -4.285  0.00  0.00    +0.157 HD
ENDROOT
BRANCH   1  18
ATOM     15  C   UNL     1       0.402  -0.597  -1.162  0.00  0.00    +0.162 A 
ATOM     16  C   UNL     1       0.309  -0.077  -2.448  0.00  0.00    +0.050 A 
ATOM     17  C   UNL     1       0.976  -0.684  -3.489  0.00  0.00    +0.012 A 
ATOM     18  C   UNL     1       1.750  -1.829  -3.252  0.00  0.00    -0.021 A 
ATOM     19  C   UNL     1       1.841  -2.351  -1.954  0.00  0.00    +0.057 A 
ATOM     20  C   UNL     1       1.174  -1.732  -0.917  0.00  0.00    +0.162 A 
BRANCH  15  22
ATOM     21  C   UNL     1      -1.031   1.165  -0.461  0.00  0.00    +0.277 C 
ATOM     22  O   UNL     1      -0.258   0.007  -0.140  0.00  0.00    -0.491 OA
ENDBRANCH  15  22
BRANCH  20  23
ATOM     23  O   UNL     1       1.266  -2.232   0.345  0.00  0.00    -0.491 OA
ATOM     24  C   UNL     1       2.074  -3.397   0.524  0.00  0.00    +0.277 C 
ENDBRANCH  20  23
ENDBRANCH   1  18
BRANCH  11  25
ATOM     25  C   UNL     1       1.710   3.438  -8.530  0.00  0.00    +0.012 A 
ATOM     26  C   UNL     1       1.249   4.383  -7.607  0.00  0.00    +0.030 A 
ATOM     27  C   UNL     1       0.813   5.609  -8.067  0.00  0.00    +0.111 A 
ATOM     28  N   UNL     1       0.826   5.893  -9.355  0.00  0.00    -0.263 NA
ATOM     29  C   UNL     1       1.251   5.030 -10.258  0.00  0.00    +0.111 A 
ATOM     30  C   UNL     1       1.711   3.784  -9.886  0.00  0.00    +0.030 A 
ENDBRANCH  11  25
TORSDOF 4
