REMARK  Name = ZINC62502664
REMARK  7 active torsions:
REMARK  status: ('A' for Active; 'I' for Inactive)
REMARK    1  A    between atoms: C_2  and  C_3
REMARK    2  A    between atoms: C_3  and  N_4
REMARK    3  A    between atoms: N_4  and  C_5
REMARK    4  A    between atoms: C_5  and  C_6
REMARK    5  A    between atoms: N_15  and  C_16
REMARK    6  A    between atoms: C_16  and  C_17
REMARK    7  A    between atoms: C_22  and  N_23
REMARK                            x       y       z     vdW  Elec       q    Type
REMARK                         _______ _______ _______ _____ _____    ______ ____
ROOT
ATOM      1  N   UNL     1       2.010   2.418   0.205  0.00  0.00    -0.270 N 
ATOM      2  C   UNL     1       2.550   2.440   1.440  0.00  0.00    +0.303 C 
ATOM      3  O   UNL     1       3.728   2.704   1.584  0.00  0.00    -0.253 OA
ATOM      4  N   UNL     1       1.784   2.168   2.515  0.00  0.00    -0.295 N 
ATOM      5  H   UNL     1       0.844   1.957   2.400  0.00  0.00    +0.151 HD
ENDROOT
BRANCH   1   6
ATOM      6  C   UNL     1       0.591   2.100   0.031  0.00  0.00    +0.198 C 
BRANCH   6   8
ATOM      7  C   UNL     1       0.305  -0.512  -0.280  0.00  0.00    +0.005 C 
ATOM      8  C   UNL     1       0.432   0.647  -0.142  0.00  0.00    -0.086 C 
ENDBRANCH   6   8
ENDBRANCH   1   6
BRANCH   1   9
ATOM      9  C   UNL     1       2.843   2.714  -0.964  0.00  0.00    +0.145 C 
BRANCH   9  10
ATOM     10  C   UNL     1       2.804   4.194  -1.247  0.00  0.00    -0.030 A 
ATOM     11  C   UNL     1       1.837   4.711  -2.087  0.00  0.00    +0.008 A 
ATOM     12  C   UNL     1       1.800   6.068  -2.347  0.00  0.00    +0.038 A 
ATOM     13  C   UNL     1       2.733   6.909  -1.765  0.00  0.00    +0.123 A 
ATOM     14  C   UNL     1       3.702   6.390  -0.924  0.00  0.00    +0.038 A 
ATOM     15  C   UNL     1       3.733   5.033  -0.661  0.00  0.00    +0.008 A 
ATOM     16  F   UNL     1       2.699   8.236  -2.019  0.00  0.00    -0.205 F 
ENDBRANCH   9  10
ENDBRANCH   1   9
BRANCH   4  17
ATOM     17  C   UNL     1       2.371   2.191   3.857  0.00  0.00    +0.144 C 
BRANCH  17  18
ATOM     18  C   UNL     1       1.311   1.855   4.875  0.00  0.00    +0.008 A 
ATOM     19  C   UNL     1       0.706   2.856   5.614  0.00  0.00    +0.010 A 
ATOM     20  C   UNL     1      -0.265   2.501   6.540  0.00  0.00    +0.018 A 
ATOM     21  C   UNL     1      -0.597   1.170   6.695  0.00  0.00    +0.084 A 
ATOM     22  N   UNL     1      -0.003   0.236   5.977  0.00  0.00    -0.349 N 
ATOM     23  C   UNL     1       0.923   0.535   5.079  0.00  0.00    +0.103 A 
ATOM     24  H   UNL     1      -0.255  -0.691   6.106  0.00  0.00    +0.167 HD
BRANCH  23  25
ATOM     25  N   UNL     1       1.518  -0.480   4.339  0.00  0.00    -0.316 N 
ATOM     26  C   UNL     1       2.774  -1.096   4.789  0.00  0.00    +0.106 C 
ATOM     27  C   UNL     1       2.583  -2.615   4.855  0.00  0.00    +0.019 C 
ATOM     28  C   UNL     1       2.084  -3.121   3.500  0.00  0.00    +0.003 C 
ATOM     29  C   UNL     1       0.733  -2.477   3.178  0.00  0.00    +0.019 C 
ATOM     30  C   UNL     1       0.901  -0.961   3.096  0.00  0.00    +0.106 C 
ENDBRANCH  23  25
ENDBRANCH  17  18
ENDBRANCH   4  17
TORSDOF 7
