REMARK  Name = ZINC38613851
REMARK  7 active torsions:
REMARK  status: ('A' for Active; 'I' for Inactive)
REMARK    1  A    between atoms: C_1  and  C_2
REMARK    2  A    between atoms: C_4  and  C_16
REMARK    3  A    between atoms: C_6  and  C_15
REMARK    4  A    between atoms: N_8  and  C_9
REMARK    5  A    between atoms: N_17  and  N_18
REMARK    6  A    between atoms: C_19  and  C_21
REMARK    7  A    between atoms: C_24  and  C_27
REMARK                            x       y       z     vdW  Elec       q    Type
REMARK                         _______ _______ _______ _____ _____    ______ ____
ROOT
ATOM      1  N   UNL     1       1.356   1.792  -4.070  0.00  0.00    -0.205 N 
ATOM      2  C   UNL     1       0.957   1.911  -5.352  0.00  0.00    +0.263 C 
ATOM      3  O   UNL     1       0.194   1.097  -5.828  0.00  0.00    -0.271 OA
ATOM      4  H   UNL     1       1.966   2.443  -3.689  0.00  0.00    +0.177 HD
ENDROOT
BRANCH   2   5
ATOM      5  C   UNL     1       1.458   3.056  -6.194  0.00  0.00    +0.240 C 
ATOM      6  C   UNL     1       0.643   4.310  -5.932  0.00  0.00    +0.041 C 
ATOM      7  C   UNL     1       0.089   4.590  -7.128  0.00  0.00    +0.092 C 
ATOM      8  N   UNL     1       0.469   3.670  -8.053  0.00  0.00    -0.153 NA
ATOM      9  N   UNL     1       1.225   2.791  -7.623  0.00  0.00    -0.170 NA
BRANCH   7  10
ATOM     10  C   UNL     1      -0.808   5.740  -7.396  0.00  0.00    +0.003 A 
ATOM     11  C   UNL     1      -1.130   6.630  -6.373  0.00  0.00    +0.011 A 
ATOM     12  C   UNL     1      -1.965   7.698  -6.627  0.00  0.00    +0.022 A 
ATOM     13  C   UNL     1      -2.484   7.888  -7.896  0.00  0.00    +0.059 A 
ATOM     14  C   UNL     1      -2.168   7.007  -8.917  0.00  0.00    +0.060 A 
ATOM     15  C   UNL     1      -1.328   5.938  -8.674  0.00  0.00    +0.031 A 
ATOM     16 CL   UNL     1      -2.822   7.251 -10.507  0.00  0.00    -0.082 Cl
ATOM     17 CL   UNL     1      -3.534   9.235  -8.209  0.00  0.00    -0.082 Cl
ENDBRANCH   7  10
ENDBRANCH   2   5
BRANCH   1  19
ATOM     18  C   UNL     1       1.270   0.614  -2.070  0.00  0.00    +0.114 C 
ATOM     19  N   UNL     1       0.890   0.727  -3.287  0.00  0.00    -0.192 NA
BRANCH  18  22
ATOM     20  C   UNL     1      -0.019   1.526   0.010  0.00  0.00    +0.031 C 
ATOM     21  C   UNL     1       0.002  -0.004   0.002  0.00  0.00    +0.109 C 
ATOM     22  C   UNL     1       0.769  -0.531  -1.228  0.00  0.00    +0.099 C 
ATOM     23  C   UNL     1       1.925  -1.300  -0.630  0.00  0.00    +0.044 C 
ATOM     24  N   UNL     1       1.866  -1.248   0.637  0.00  0.00    -0.188 NA
ATOM     25  N   UNL     1       0.784  -0.519   1.138  0.00  0.00    -0.221 N 
ATOM     26  C   UNL     1       2.987  -2.022  -1.419  0.00  0.00    +0.063 C 
BRANCH  25  27
ATOM     27  C   UNL     1       0.492  -0.312   2.487  0.00  0.00    +0.052 A 
ATOM     28  C   UNL     1      -0.623   0.432   2.853  0.00  0.00    +0.025 A 
ATOM     29  C   UNL     1      -0.908   0.635   4.188  0.00  0.00    +0.002 A 
ATOM     30  C   UNL     1      -0.086   0.099   5.162  0.00  0.00    +0.000 A 
ATOM     31  C   UNL     1       1.025  -0.643   4.803  0.00  0.00    +0.002 A 
ATOM     32  C   UNL     1       1.313  -0.855   3.469  0.00  0.00    +0.025 A 
ENDBRANCH  25  27
ENDBRANCH  18  22
ENDBRANCH   1  19
TORSDOF 5
