REMARK  Name = ZINC67649737
REMARK  6 active torsions:
REMARK  status: ('A' for Active; 'I' for Inactive)
REMARK    1  A    between atoms: C_1  and  C_2
REMARK    2  A    between atoms: C_2  and  C_3
REMARK    3  A    between atoms: C_2  and  C_4
REMARK    4  A    between atoms: C_4  and  N_5
REMARK    5  A    between atoms: C_9  and  C_11
REMARK    6  A    between atoms: C_11  and  N_12
REMARK                            x       y       z     vdW  Elec       q    Type
REMARK                         _______ _______ _______ _____ _____    ______ ____
ROOT
ATOM      1  C   UNL     1      -3.700  -6.214  -0.394  0.00  0.00    +0.228 C 
ENDROOT
BRANCH   1   2
ATOM      2  N   UNL     1      -5.075  -6.721  -0.384  0.00  0.00    -0.184 N 
ATOM      3  C   UNL     1      -5.743  -6.972   0.789  0.00  0.00    +0.207 C 
ATOM      4  N   UNL     1      -7.020  -6.897   0.917  0.00  0.00    -0.237 NA
ATOM      5  C   UNL     1      -7.928  -6.564  -0.043  0.00  0.00    +0.092 A 
ATOM      6  C   UNL     1      -9.234  -6.211   0.305  0.00  0.00    +0.030 A 
ATOM      7  C   UNL     1     -10.141  -5.876  -0.678  0.00  0.00    +0.002 A 
ATOM      8  C   UNL     1      -9.771  -5.885  -2.011  0.00  0.00    +0.002 A 
ATOM      9  C   UNL     1      -8.478  -6.234  -2.370  0.00  0.00    +0.031 A 
ATOM     10  C   UNL     1      -7.572  -6.568  -1.397  0.00  0.00    +0.134 A 
ATOM     11  S   UNL     1      -5.912  -7.017  -1.799  0.00  0.00    +0.078 S 
ATOM     12  O   UNL     1      -5.447  -6.086  -2.765  0.00  0.00    -0.150 OA
ATOM     13  O   UNL     1      -5.899  -8.423  -2.008  0.00  0.00    -0.150 OA
ENDBRANCH   1   2
BRANCH   1  18
ATOM     14  N   UNL     1      -1.416  -1.993  -0.116  0.00  0.00    -0.299 N 
ATOM     15  C   UNL     1      -2.575  -2.682  -0.130  0.00  0.00    +0.306 C 
ATOM     16  O   UNL     1      -3.634  -2.092  -0.036  0.00  0.00    -0.252 OA
ATOM     17  N   UNL     1      -2.559  -4.024  -0.248  0.00  0.00    -0.239 N 
ATOM     18  C   UNL     1      -3.718  -4.713  -0.262  0.00  0.00    +0.240 C 
ATOM     19  O   UNL     1      -4.774  -4.125  -0.168  0.00  0.00    -0.274 OA
ATOM     20  H   UNL     1      -0.572  -2.463  -0.190  0.00  0.00    +0.150 HD
ATOM     21  H   UNL     1      -1.714  -4.495  -0.323  0.00  0.00    +0.159 HD
BRANCH  14  22
ATOM     22  C   UNL     1      -1.433  -0.534   0.013  0.00  0.00    +0.108 C 
BRANCH  22  24
ATOM     23  C   UNL     1      -0.019   1.526   0.010  0.00  0.00    +0.009 C 
ATOM     24  C   UNL     1       0.002  -0.004   0.002  0.00  0.00    -0.000 C 
ATOM     25  C   UNL     1       0.742  -0.511   1.242  0.00  0.00    +0.009 C 
ENDBRANCH  22  24
ENDBRANCH  14  22
ENDBRANCH   1  18
TORSDOF 4
