REMARK  Name = ZINC44027563
REMARK  4 active torsions:
REMARK  status: ('A' for Active; 'I' for Inactive)
REMARK    1  A    between atoms: C_1  and  N_2
REMARK    2  A    between atoms: C_10  and  C_11
REMARK    3  A    between atoms: C_14  and  C_16
REMARK    4  A    between atoms: C_19  and  N_22
REMARK                            x       y       z     vdW  Elec       q    Type
REMARK                         _______ _______ _______ _____ _____    ______ ____
ROOT
ATOM      1  C   UNL     1      -0.094  -5.155  -3.577  0.00  0.00    +0.129 A 
ATOM      2  C   UNL     1       0.372  -6.278  -4.236  0.00  0.00    +0.050 A 
ATOM      3  C   UNL     1      -0.129  -7.386  -3.549  0.00  0.00    +0.050 A 
ATOM      4  C   UNL     1      -0.879  -6.904  -2.500  0.00  0.00    +0.136 A 
ATOM      5  O   UNL     1      -0.842  -5.560  -2.529  0.00  0.00    -0.455 OA
ENDROOT
BRANCH   1  15
ATOM      6  C   UNL     1       0.009   1.263   0.263  0.00  0.00    +0.172 C 
ATOM      7  N   UNL     1       0.264  -0.176   0.165  0.00  0.00    -0.271 N 
ATOM      8  C   UNL     1       0.154  -0.914  -0.940  0.00  0.00    +0.050 A 
ATOM      9  C   UNL     1       0.498  -2.217  -0.601  0.00  0.00    +0.062 A 
ATOM     10  C   UNL     1       0.803  -2.235   0.762  0.00  0.00    +0.146 A 
ATOM     11  N   UNL     1       0.669  -1.013   1.216  0.00  0.00    -0.179 NA
ATOM     12  C   UNL     1       0.512  -3.292  -1.615  0.00  0.00    +0.193 C 
ATOM     13  O   UNL     1       0.637  -4.465  -1.309  0.00  0.00    -0.287 OA
ATOM     14  C   UNL     1       0.372  -2.880  -2.968  0.00  0.00    +0.004 C 
ATOM     15  C   UNL     1       0.172  -3.815  -3.935  0.00  0.00    +0.053 C 
ATOM     16  C   UNL     1       0.439  -1.428  -3.347  0.00  0.00    +0.045 C 
ATOM     17  C   UNL     1      -0.265  -0.528  -2.333  0.00  0.00    +0.060 C 
ENDBRANCH   1  15
BRANCH   4  18
ATOM     18  C   UNL     1      -1.599  -7.725  -1.507  0.00  0.00    +0.017 A 
ATOM     19  C   UNL     1      -1.549  -9.119  -1.579  0.00  0.00    +0.014 A 
ATOM     20  C   UNL     1      -2.224  -9.880  -0.648  0.00  0.00    +0.033 A 
ATOM     21  C   UNL     1      -2.949  -9.265   0.358  0.00  0.00    +0.126 A 
ATOM     22  C   UNL     1      -3.003  -7.884   0.436  0.00  0.00    +0.033 A 
ATOM     23  C   UNL     1      -2.329  -7.111  -0.485  0.00  0.00    +0.014 A 
BRANCH  21  24
ATOM     24  N   UNL     1      -3.671 -10.088   1.354  0.00  0.00    +0.056 N 
ATOM     25  O   UNL     1      -3.627 -11.294   1.288  0.00  0.00    -0.126 OA
ATOM     26  O   UNL     1      -4.306  -9.554   2.234  0.00  0.00    -0.126 OA
ENDBRANCH  21  24
ENDBRANCH   4  18
TORSDOF 3
