REMARK  Name = ZINC09386316
REMARK  9 active torsions:
REMARK  status: ('A' for Active; 'I' for Inactive)
REMARK    1  A    between atoms: C_1  and  N_51
REMARK    2  A    between atoms: C_2  and  N_51
REMARK    3  A    between atoms: C_3  and  C_4
REMARK    4  A    between atoms: C_3  and  N_51
REMARK    5  A    between atoms: C_4  and  C_5
REMARK    6  A    between atoms: C_5  and  N_6
REMARK    7  A    between atoms: C_17  and  C_19
REMARK    8  A    between atoms: C_19  and  S_20
REMARK    9  A    between atoms: S_20  and  C_23
REMARK                            x       y       z     vdW  Elec       q    Type
REMARK                         _______ _______ _______ _____ _____    ______ ____
ROOT
ATOM      1  N   UNL     1      -0.698   1.558   1.213  0.00  0.00    -0.249 N 
ATOM      2  C   UNL     1      -1.702   0.793   1.784  0.00  0.00    +0.168 A 
ATOM      3  N   UNL     1      -2.423   1.044   2.852  0.00  0.00    -0.223 NA
ATOM      4  C   UNL     1      -3.378   0.200   3.299  0.00  0.00    +0.099 A 
ATOM      5  C   UNL     1      -3.554  -0.981   2.542  0.00  0.00    +0.042 A 
ATOM      6  S   UNL     1      -2.349  -0.786   1.251  0.00  0.00    -0.052 S 
ATOM      7  C   UNL     1      -4.484  -1.937   2.866  0.00  0.00    +0.017 A 
ATOM      8  C   UNL     1      -5.290  -1.758   3.976  0.00  0.00    +0.003 A 
ATOM      9  C   UNL     1      -5.145  -0.611   4.742  0.00  0.00    +0.022 A 
ATOM     10  C   UNL     1      -4.220   0.351   4.426  0.00  0.00    +0.067 A 
ATOM     11 CL   UNL     1      -4.079   1.768   5.419  0.00  0.00    -0.081 Cl
ATOM     12  C   UNL     1      -0.353   2.738   1.767  0.00  0.00    +0.243 C 
ATOM     13  O   UNL     1       0.525   3.408   1.267  0.00  0.00    -0.273 OA
ENDROOT
BRANCH   1  14
ATOM     14  C   UNL     1      -0.013   1.086   0.008  0.00  0.00    +0.114 C 
BRANCH  14  15
ATOM     15  C   UNL     1      -0.753   1.593  -1.232  0.00  0.00    +0.001 C 
BRANCH  15  16
ATOM     16  C   UNL     1      -0.037   1.099  -2.490  0.00  0.00    -0.078 C 
BRANCH  16  19
ATOM     17  C   UNL     1      -0.664   3.049  -3.782  0.00  0.00    -0.097 C 
ATOM     18  C   UNL     1      -0.235   0.944  -4.898  0.00  0.00    -0.097 C 
ATOM     19  N   UNL     1      -0.775   1.579  -3.678  0.00  0.00    +0.376 N 
ATOM     20  H   UNL     1      -1.765   1.325  -3.580  0.00  0.00    -0.083 HD
ENDBRANCH  16  19
ENDBRANCH  15  16
ENDBRANCH  14  15
ENDBRANCH   1  14
BRANCH  12  21
ATOM     21  C   UNL     1      -1.058   3.224   3.006  0.00  0.00    +0.267 C 
BRANCH  21  22
ATOM     22  S   UNL     1      -0.373   4.828   3.502  0.00  0.00    +0.005 S 
ATOM     23  O   UNL     1       0.968   4.672   3.946  0.00  0.00    -0.169 OA
ATOM     24  O   UNL     1      -0.707   5.821   2.542  0.00  0.00    -0.169 OA
BRANCH  22  25
ATOM     25  C   UNL     1      -1.275   5.279   4.947  0.00  0.00    +0.089 A 
ATOM     26  C   UNL     1      -2.438   6.018   4.834  0.00  0.00    +0.030 A 
ATOM     27  C   UNL     1      -3.148   6.367   5.966  0.00  0.00    +0.040 A 
ATOM     28  C   UNL     1      -2.690   5.987   7.216  0.00  0.00    +0.124 A 
ATOM     29  C   UNL     1      -1.522   5.251   7.329  0.00  0.00    +0.040 A 
ATOM     30  C   UNL     1      -0.816   4.898   6.195  0.00  0.00    +0.030 A 
ATOM     31  F   UNL     1      -3.381   6.332   8.324  0.00  0.00    -0.205 F 
ENDBRANCH  22  25
ENDBRANCH  21  22
ENDBRANCH  12  21
TORSDOF 7
