REMARK  Name = ZINC00189650
REMARK  2 active torsions:
REMARK  status: ('A' for Active; 'I' for Inactive)
REMARK    1  A    between atoms: C_1  and  N_2
REMARK    2  A    between atoms: C_18  and  C_23
REMARK                            x       y       z     vdW  Elec       q    Type
REMARK                         _______ _______ _______ _____ _____    ______ ____
ROOT
ATOM      1  C   UNL     1       1.432  -7.198  -2.015  0.00  0.00    +0.140 C 
ATOM      2  N   UNL     1       1.101  -6.053  -1.162  0.00  0.00    -0.255 N 
ATOM      3  C   UNL     1       1.976  -5.448  -0.334  0.00  0.00    +0.242 C 
ATOM      4  O   UNL     1       3.145  -5.728  -0.174  0.00  0.00    -0.273 OA
ATOM      5  C   UNL     1       1.199  -4.345   0.355  0.00  0.00    +0.167 C 
ATOM      6  C   UNL     1       1.802  -2.983  -0.011  0.00  0.00    +0.069 C 
ATOM      7  C   UNL     1       0.742  -1.918   0.115  0.00  0.00    -0.015 A 
ATOM      8  C   UNL     1       0.942  -0.486   0.244  0.00  0.00    +0.003 A 
ATOM      9  C   UNL     1       2.093   0.306   0.299  0.00  0.00    +0.010 A 
ATOM     10  C   UNL     1       1.907   1.661   0.429  0.00  0.00    +0.001 A 
ATOM     11  C   UNL     1       0.645   2.227   0.503  0.00  0.00    +0.002 A 
ATOM     12  C   UNL     1      -0.510   1.466   0.450  0.00  0.00    +0.026 A 
ATOM     13  C   UNL     1      -0.353   0.088   0.318  0.00  0.00    +0.047 A 
ATOM     14  N   UNL     1      -1.254  -0.933   0.235  0.00  0.00    -0.356 N 
ATOM     15  H   UNL     1      -2.219  -0.830   0.256  0.00  0.00    +0.166 HD
ATOM     16  C   UNL     1      -0.591  -2.126   0.118  0.00  0.00    +0.046 A 
ATOM     17  C   UNL     1      -1.228  -3.498   0.009  0.00  0.00    +0.153 C 
ATOM     18  N   UNL     1      -0.136  -4.437  -0.277  0.00  0.00    -0.288 N 
ATOM     19  C   UNL     1      -0.110  -5.480  -1.108  0.00  0.00    +0.143 C 
ATOM     20  S   UNL     1      -1.465  -6.024  -2.001  0.00  0.00    -0.018 S 
ENDROOT
BRANCH  17  21
ATOM     21  C   UNL     1      -2.232  -3.514  -1.114  0.00  0.00    -0.021 A 
ATOM     22  C   UNL     1      -1.820  -3.289  -2.414  0.00  0.00    +0.006 A 
ATOM     23  C   UNL     1      -2.741  -3.309  -3.444  0.00  0.00    +0.000 A 
ATOM     24  C   UNL     1      -4.076  -3.544  -3.174  0.00  0.00    +0.000 A 
ATOM     25  C   UNL     1      -4.489  -3.764  -1.873  0.00  0.00    +0.000 A 
ATOM     26  C   UNL     1      -3.568  -3.749  -0.843  0.00  0.00    +0.006 A 
ENDBRANCH  17  21
TORSDOF 1
