REMARK  Name = ZINC06793620
REMARK  4 active torsions:
REMARK  status: ('A' for Active; 'I' for Inactive)
REMARK    1  A    between atoms: C_1  and  C_2
REMARK    2  A    between atoms: C_7  and  N_8
REMARK    3  A    between atoms: C_9  and  C_11
REMARK    4  A    between atoms: C_12  and  C_29
REMARK                            x       y       z     vdW  Elec       q    Type
REMARK                         _______ _______ _______ _____ _____    ______ ____
ROOT
ATOM      1  C   UNL     1      -3.253   2.422  -0.367  0.00  0.00    +0.194 A 
ATOM      2  C   UNL     1      -2.530   3.537  -0.088  0.00  0.00    +0.008 A 
ATOM      3  C   UNL     1      -1.255   3.104   0.347  0.00  0.00    +0.038 A 
ATOM      4  C   UNL     1      -1.275   1.700   0.299  0.00  0.00    +0.137 A 
ATOM      5  O   UNL     1      -2.499   1.328  -0.131  0.00  0.00    -0.450 OA
ATOM      6  C   UNL     1      -0.145   0.982   0.681  0.00  0.00    +0.050 A 
ATOM      7  C   UNL     1       0.994   1.635   1.099  0.00  0.00    +0.050 A 
ATOM      8  C   UNL     1       1.038   3.024   1.152  0.00  0.00    +0.133 A 
ATOM      9  C   UNL     1      -0.085   3.771   0.773  0.00  0.00    +0.070 A 
ATOM     10  C   UNL     1      -0.029   5.234   0.825  0.00  0.00    +0.171 C 
ATOM     11  O   UNL     1      -0.980   5.904   0.481  0.00  0.00    -0.292 OA
ATOM     12  C   UNL     1       1.242   5.891   1.316  0.00  0.00    +0.127 C 
ATOM     13  C   UNL     1       2.419   4.955   1.038  0.00  0.00    +0.118 C 
ATOM     14  O   UNL     1       2.159   3.659   1.572  0.00  0.00    -0.485 OA
ATOM     15  C   UNL     1       3.699   5.533   1.669  0.00  0.00    +0.048 C 
ATOM     16  C   UNL     1       4.812   5.192   0.646  0.00  0.00    +0.004 C 
ATOM     17  C   UNL     1       4.099   5.391  -0.715  0.00  0.00    +0.004 C 
ATOM     18  C   UNL     1       2.669   4.862  -0.474  0.00  0.00    +0.048 C 
ATOM     19  C   UNL     1      -2.996   4.965  -0.216  0.00  0.00    +0.048 C 
ENDROOT
BRANCH   1  21
ATOM     20  N   UNL     1      -5.260   1.235  -1.095  0.00  0.00    -0.279 N 
ATOM     21  C   UNL     1      -4.642   2.408  -0.851  0.00  0.00    +0.284 C 
ATOM     22  O   UNL     1      -5.234   3.456  -1.032  0.00  0.00    -0.266 OA
ATOM     23  H   UNL     1      -4.806   0.400  -0.903  0.00  0.00    +0.155 HD
BRANCH  20  30
ATOM     24  C   UNL     1      -6.022  -0.965  -2.729  0.00  0.00    +0.045 C 
ATOM     25  C   UNL     1      -6.968   0.168  -2.426  0.00  0.00    -0.029 A 
ATOM     26  C   UNL     1      -8.247   0.159  -2.946  0.00  0.00    +0.005 A 
ATOM     27  C   UNL     1      -9.116   1.198  -2.668  0.00  0.00    +0.000 A 
ATOM     28  C   UNL     1      -8.707   2.250  -1.869  0.00  0.00    +0.002 A 
ATOM     29  C   UNL     1      -7.431   2.263  -1.342  0.00  0.00    +0.023 A 
ATOM     30  C   UNL     1      -6.554   1.223  -1.623  0.00  0.00    +0.037 A 
ENDBRANCH  20  30
ENDBRANCH   1  21
TORSDOF 2
