REMARK  Name = ZINC21781965
REMARK  3 active torsions:
REMARK  status: ('A' for Active; 'I' for Inactive)
REMARK    1  A    between atoms: C_1  and  N_2
REMARK    2  A    between atoms: C_4  and  C_7
REMARK    3  A    between atoms: C_12  and  C_14
REMARK                            x       y       z     vdW  Elec       q    Type
REMARK                         _______ _______ _______ _____ _____    ______ ____
ROOT
ATOM      1  C   UNL     1       2.864  -5.274  -0.188  0.00  0.00    +0.046 C 
ATOM      2  C   UNL     1       2.014  -4.223   0.089  0.00  0.00    +0.152 C 
ATOM      3  C   UNL     1       0.542  -4.230   0.044  0.00  0.00    +0.364 C 
ATOM      4  O   UNL     1      -0.183  -5.164  -0.246  0.00  0.00    -0.243 OA
ATOM      5  O   UNL     1       0.170  -2.982   0.398  0.00  0.00    -0.402 OA
ATOM      6  C   UNL     1       1.276  -2.251   0.634  0.00  0.00    +0.233 C 
ATOM      7  N   UNL     1       2.360  -2.956   0.464  0.00  0.00    -0.205 NA
ENDROOT
BRANCH   6   8
ATOM      8  C   UNL     1       1.264  -0.832   1.042  0.00  0.00    +0.051 A 
ATOM      9  C   UNL     1       0.067  -0.112   1.042  0.00  0.00    +0.014 A 
ATOM     10  C   UNL     1       0.063   1.213   1.424  0.00  0.00    +0.001 A 
ATOM     11  C   UNL     1       1.241   1.830   1.808  0.00  0.00    +0.001 A 
ATOM     12  C   UNL     1       2.430   1.124   1.811  0.00  0.00    +0.016 A 
ATOM     13  C   UNL     1       2.450  -0.203   1.431  0.00  0.00    +0.030 A 
ATOM     14 BR   UNL     1       4.077  -1.167   1.436  0.00  0.00    -0.050 Br
ENDBRANCH   6   8
BRANCH   1  18
ATOM     15  C   UNL     1       7.784  -6.053  -0.505  0.00  0.00    +0.172 C 
ATOM     16  N   UNL     1       6.478  -5.406  -0.357  0.00  0.00    -0.274 N 
ATOM     17  C   UNL     1       5.287  -6.026  -0.393  0.00  0.00    +0.116 A 
ATOM     18  C   UNL     1       4.312  -5.057  -0.217  0.00  0.00    +0.015 A 
ATOM     19  C   UNL     1       4.981  -3.818  -0.065  0.00  0.00    +0.142 A 
ATOM     20  N   UNL     1       6.263  -4.039  -0.150  0.00  0.00    -0.179 NA
ENDBRANCH   1  18
TORSDOF 2
