REMARK  Name = ZINC49750002
REMARK  8 active torsions:
REMARK  status: ('A' for Active; 'I' for Inactive)
REMARK    1  A    between atoms: C_1  and  C_2
REMARK    2  A    between atoms: C_2  and  O_3
REMARK    3  A    between atoms: O_3  and  C_4
REMARK    4  A    between atoms: C_4  and  C_6
REMARK    5  A    between atoms: C_10  and  N_11
REMARK    6  A    between atoms: C_12  and  C_14
REMARK    7  A    between atoms: C_19  and  C_23
REMARK    8  A    between atoms: C_25  and  C_29
REMARK                            x       y       z     vdW  Elec       q    Type
REMARK                         _______ _______ _______ _____ _____    ______ ____
ROOT
ATOM      1  C   UNL     1       1.449  -2.344  -2.516  0.00  0.00    +0.091 A 
ATOM      2  C   UNL     1       2.876  -2.619  -2.515  0.00  0.00    -0.021 A 
ATOM      3  C   UNL     1       3.342  -3.117  -3.680  0.00  0.00    -0.004 A 
ATOM      4  S   UNL     1       1.922  -3.212  -4.730  0.00  0.00    -0.077 S 
ATOM      5  C   UNL     1       0.750  -2.624  -3.682  0.00  0.00    +0.087 A 
ATOM      6  C   UNL     1       4.757  -3.498  -3.993  0.00  0.00    +0.046 C 
ATOM      7  C   UNL     1       5.669  -2.887  -2.920  0.00  0.00    -0.009 C 
ATOM      8  C   UNL     1       5.082  -3.190  -1.538  0.00  0.00    +0.008 C 
ATOM      9  C   UNL     1       3.799  -2.383  -1.329  0.00  0.00    +0.037 C 
ATOM     10  C   UNL     1       7.069  -3.496  -3.030  0.00  0.00    +0.008 C 
ENDROOT
BRANCH   5  11
ATOM     11  N   UNL     1      -0.603  -2.455  -3.925  0.00  0.00    -0.274 N 
ATOM     12  C   UNL     1      -1.117  -2.782  -5.127  0.00  0.00    +0.268 C 
ATOM     13  O   UNL     1      -0.394  -3.226  -5.997  0.00  0.00    -0.268 OA
ATOM     14  H   UNL     1      -1.180  -2.101  -3.230  0.00  0.00    +0.156 HD
BRANCH  12  15
ATOM     15  C   UNL     1      -2.558  -2.602  -5.386  0.00  0.00    +0.144 A 
ATOM     16  C   UNL     1      -3.206  -2.898  -6.552  0.00  0.00    +0.125 A 
ATOM     17  N   UNL     1      -4.519  -2.584  -6.371  0.00  0.00    -0.306 N 
ATOM     18  C   UNL     1      -5.607  -2.673  -7.193  0.00  0.00    +0.093 A 
ATOM     19  C   UNL     1      -6.826  -2.288  -6.763  0.00  0.00    +0.021 A 
ATOM     20  C   UNL     1      -6.995  -1.787  -5.461  0.00  0.00    -0.046 A 
ATOM     21  C   UNL     1      -5.922  -1.693  -4.631  0.00  0.00    +0.050 A 
ATOM     22  C   UNL     1      -4.652  -2.100  -5.093  0.00  0.00    +0.139 A 
ATOM     23  N   UNL     1      -3.464  -2.124  -4.513  0.00  0.00    -0.223 NA
ATOM     24  C   UNL     1      -8.359  -1.357  -4.986  0.00  0.00    +0.044 C 
ENDBRANCH  12  15
ENDBRANCH   5  11
BRANCH   1  25
ATOM     25  C   UNL     1       0.776  -1.800  -1.335  0.00  0.00    +0.342 C 
ATOM     26  O   UNL     1       0.312  -2.552  -0.499  0.00  0.00    -0.245 OA
BRANCH  25  27
ATOM     27  O   UNL     1       0.671  -0.465  -1.174  0.00  0.00    -0.461 OA
BRANCH  27  29
ATOM     28  C   UNL     1      -0.019   1.526   0.010  0.00  0.00    +0.048 C 
ATOM     29  C   UNL     1       0.002  -0.004   0.002  0.00  0.00    +0.229 C 
ENDBRANCH  27  29
ENDBRANCH  25  27
ENDBRANCH   1  25
TORSDOF 5
