REMARK  Name = ZINC48731022
REMARK  6 active torsions:
REMARK  status: ('A' for Active; 'I' for Inactive)
REMARK    1  A    between atoms: C_10  and  N_11
REMARK    2  A    between atoms: C_12  and  C_14
REMARK    3  A    between atoms: N_16  and  C_17
REMARK    4  A    between atoms: C_17  and  C_18
REMARK    5  A    between atoms: C_18  and  C_20
REMARK    6  A    between atoms: C_18  and  N_25
REMARK                            x       y       z     vdW  Elec       q    Type
REMARK                         _______ _______ _______ _____ _____    ______ ____
ROOT
ATOM      1  C   UNL     1       7.319   0.211   0.186  0.00  0.00    +0.299 C 
ATOM      2  O   UNL     1       7.298   1.425   0.186  0.00  0.00    -0.265 OA
ATOM      3  N   UNL     1       8.496  -0.442   0.263  0.00  0.00    -0.309 N 
ATOM      4  H   UNL     1       8.513  -1.412   0.262  0.00  0.00    +0.149 HD
ENDROOT
BRANCH   1   6
ATOM      5  N   UNL     1       4.866   0.096   0.024  0.00  0.00    -0.277 N 
ATOM      6  C   UNL     1       6.042  -0.558   0.101  0.00  0.00    +0.303 C 
ATOM      7  O   UNL     1       6.063  -1.771   0.101  0.00  0.00    -0.265 OA
ATOM      8  H   UNL     1       4.853   1.062  -0.062  0.00  0.00    +0.155 HD
BRANCH   5  18
ATOM      9  C   UNL     1       0.174   0.933  -1.633  0.00  0.00    +0.001 A 
ATOM     10  C   UNL     1       1.360   1.662  -1.687  0.00  0.00    +0.001 A 
ATOM     11  C   UNL     1       2.507   1.175  -1.140  0.00  0.00    +0.010 A 
ATOM     12  C   UNL     1       2.499  -0.079  -0.511  0.00  0.00    +0.003 A 
ATOM     13  C   UNL     1       1.294  -0.822  -0.454  0.00  0.00    -0.016 A 
ATOM     14  C   UNL     1       0.128  -0.286  -1.030  0.00  0.00    +0.008 A 
ATOM     15  C   UNL     1       1.283  -2.077   0.176  0.00  0.00    +0.008 A 
ATOM     16  C   UNL     1       2.427  -2.571   0.727  0.00  0.00    +0.002 A 
ATOM     17  C   UNL     1       3.616  -1.852   0.678  0.00  0.00    +0.024 A 
ATOM     18  C   UNL     1       3.669  -0.616   0.068  0.00  0.00    +0.042 A 
ENDBRANCH   5  18
ENDBRANCH   1   6
BRANCH   3  19
ATOM     19  C   UNL     1       9.749   0.312   0.346  0.00  0.00    +0.097 C 
BRANCH  19  20
ATOM     20  C   UNL     1      10.932  -0.657   0.297  0.00  0.00    +0.016 C 
BRANCH  20  21
ATOM     21  N   UNL     1      10.833  -1.606   1.415  0.00  0.00    +0.387 N 
ATOM     22  C   UNL     1      10.727  -0.864   2.677  0.00  0.00    -0.078 C 
ATOM     23  C   UNL     1      10.543  -1.846   3.836  0.00  0.00    -0.019 C 
ATOM     24  C   UNL     1      11.748  -2.789   3.896  0.00  0.00    -0.004 C 
ATOM     25  C   UNL     1      11.894  -3.502   2.548  0.00  0.00    -0.019 C 
ATOM     26  C   UNL     1      12.028  -2.458   1.437  0.00  0.00    -0.078 C 
ATOM     27  H   UNL     1      10.013  -2.181   1.294  0.00  0.00    -0.081 HD
ENDBRANCH  20  21
BRANCH  20  28
ATOM     28  C   UNL     1      12.220   0.117   0.408  0.00  0.00    +0.093 A 
ATOM     29  C   UNL     1      12.978   0.534  -0.622  0.00  0.00    +0.043 A 
ATOM     30  C   UNL     1      14.085   1.215  -0.066  0.00  0.00    +0.041 A 
ATOM     31  C   UNL     1      13.938   1.174   1.270  0.00  0.00    +0.195 A 
ATOM     32  O   UNL     1      12.803   0.512   1.551  0.00  0.00    -0.469 OA
ENDBRANCH  20  28
ENDBRANCH  19  20
ENDBRANCH   3  19
TORSDOF 6
