REMARK  Name = ZINC21573856
REMARK  13 active torsions:
REMARK  status: ('A' for Active; 'I' for Inactive)
REMARK    1  A    between atoms: C_1  and  C_2
REMARK    2  A    between atoms: C_5  and  N_9
REMARK    3  A    between atoms: C_7  and  C_8
REMARK    4  A    between atoms: C_10  and  S_14
REMARK    5  A    between atoms: S_14  and  C_15
REMARK    6  A    between atoms: C_15  and  C_17
REMARK    7  A    between atoms: C_15  and  C_18
REMARK    8  A    between atoms: N_20  and  C_21
REMARK    9  A    between atoms: C_21  and  C_22
REMARK   10  A    between atoms: C_21  and  C_23
REMARK   11  A    between atoms: C_21  and  C_25
REMARK   12  A    between atoms: C_25  and  C_26
REMARK   13  A    between atoms: C_25  and  C_27
REMARK                            x       y       z     vdW  Elec       q    Type
REMARK                         _______ _______ _______ _____ _____    ______ ____
ROOT
ATOM      1  S   UNL     1       1.612  -1.043   1.582  0.00  0.00    -0.072 S 
ENDROOT
BRANCH   1   3
ATOM      2  N   UNL     1       2.405   1.105  -0.015  0.00  0.00    -0.187 N 
ATOM      3  C   UNL     1       2.703  -0.068   0.599  0.00  0.00    +0.215 A 
ATOM      4  N   UNL     1       3.958  -0.342   0.318  0.00  0.00    -0.101 NA
ATOM      5  N   UNL     1       4.466   0.579  -0.418  0.00  0.00    -0.022 NA
ATOM      6  N   UNL     1       3.590   1.492  -0.664  0.00  0.00    -0.038 NA
BRANCH   2  11
ATOM      7  C   UNL     1      -2.553   3.867   0.045  0.00  0.00    +0.044 C 
ATOM      8  C   UNL     1      -1.237   3.134   0.030  0.00  0.00    -0.047 A 
ATOM      9  C   UNL     1      -1.217   1.751   0.017  0.00  0.00    +0.006 A 
ATOM     10  C   UNL     1      -0.013   1.076   0.008  0.00  0.00    +0.028 A 
ATOM     11  C   UNL     1       1.180   1.787   0.000  0.00  0.00    +0.070 A 
ATOM     12  C   UNL     1       1.157   3.175   0.008  0.00  0.00    +0.031 A 
ATOM     13  C   UNL     1      -0.051   3.844   0.022  0.00  0.00    -0.046 A 
ATOM     14  C   UNL     1      -0.077   5.351   0.030  0.00  0.00    +0.044 C 
ENDBRANCH   2  11
ENDBRANCH   1   3
BRANCH   1  15
ATOM     15  C   UNL     1       2.720  -2.404   2.024  0.00  0.00    +0.137 C 
ATOM     16  C   UNL     1       3.103  -3.180   0.763  0.00  0.00    +0.029 C 
BRANCH  15  17
ATOM     17  C   UNL     1       2.021  -3.327   2.989  0.00  0.00    +0.227 C 
ATOM     18  O   UNL     1       0.810  -3.383   3.006  0.00  0.00    -0.275 OA
ATOM     19  N   UNL     1       2.742  -4.090   3.834  0.00  0.00    -0.296 N 
ATOM     20  H   UNL     1       3.841  -4.040   3.819  0.00  0.00    +0.150 HD
BRANCH  19  21
ATOM     21  C   UNL     1       2.063  -4.987   4.772  0.00  0.00    +0.121 C 
ATOM     22  C   UNL     1       1.218  -5.997   3.992  0.00  0.00    +0.048 C 
BRANCH  21  23
ATOM     23  C   UNL     1       3.104  -5.733   5.609  0.00  0.00    +0.020 C 
ATOM     24  C   UNL     1       3.865  -4.735   6.484  0.00  0.00    +0.010 C 
ATOM     25  C   UNL     1       2.401  -6.759   6.501  0.00  0.00    +0.010 C 
ENDBRANCH  21  23
BRANCH  21  26
ATOM     26  C   UNL     1       1.191  -4.200   5.660  0.00  0.00    +0.088 C 
ATOM     27  N   UNL     1       0.519  -3.593   6.345  0.00  0.00    -0.194 NA
ENDBRANCH  21  26
ENDBRANCH  19  21
ENDBRANCH  15  17
ENDBRANCH   1  15
TORSDOF 7
