REMARK  Name = ZINC41586109
REMARK  7 active torsions:
REMARK  status: ('A' for Active; 'I' for Inactive)
REMARK    1  A    between atoms: C_1  and  C_2
REMARK    2  A    between atoms: C_2  and  O_3
REMARK    3  A    between atoms: O_3  and  C_4
REMARK    4  A    between atoms: N_9  and  C_12
REMARK    5  A    between atoms: C_12  and  C_13
REMARK    6  A    between atoms: C_14  and  O_31
REMARK    7  A    between atoms: C_22  and  C_24
REMARK                            x       y       z     vdW  Elec       q    Type
REMARK                         _______ _______ _______ _____ _____    ______ ____
ROOT
ATOM      1  C   UNL     1      -6.565  -5.241   1.667  0.00  0.00    +0.051 A 
ATOM      2  C   UNL     1      -7.627  -5.458   0.803  0.00  0.00    +0.125 A 
ATOM      3  C   UNL     1      -8.029  -6.755   0.489  0.00  0.00    +0.046 A 
ATOM      4  C   UNL     1      -7.393  -7.829   1.039  0.00  0.00    +0.015 A 
ATOM      5  C   UNL     1      -6.332  -7.630   1.934  0.00  0.00    +0.019 A 
ATOM      6  C   UNL     1      -5.900  -6.321   2.224  0.00  0.00    +0.147 A 
ATOM      7  O   UNL     1      -4.829  -6.125   3.031  0.00  0.00    -0.421 OA
ATOM      8  C   UNL     1      -4.570  -7.091   3.943  0.00  0.00    +0.345 A 
ATOM      9  O   UNL     1      -4.183  -6.811   5.063  0.00  0.00    -0.245 OA
ATOM     10  C   UNL     1      -4.772  -8.491   3.536  0.00  0.00    +0.067 A 
ATOM     11  C   UNL     1      -5.682  -8.736   2.540  0.00  0.00    +0.027 A 
ENDROOT
BRANCH  10  12
ATOM     12  C   UNL     1      -4.028  -9.595   4.187  0.00  0.00    -0.011 A 
ATOM     13  C   UNL     1      -4.711 -10.557   4.930  0.00  0.00    +0.010 A 
ATOM     14  C   UNL     1      -4.013 -11.583   5.534  0.00  0.00    +0.020 A 
ATOM     15  C   UNL     1      -2.637 -11.658   5.403  0.00  0.00    +0.041 A 
ATOM     16  C   UNL     1      -1.953 -10.705   4.666  0.00  0.00    +0.020 A 
ATOM     17  C   UNL     1      -2.642  -9.679   4.053  0.00  0.00    +0.010 A 
ATOM     18 CL   UNL     1      -1.765 -12.951   6.165  0.00  0.00    -0.084 Cl
ENDBRANCH  10  12
BRANCH   2  19
ATOM     19  O   UNL     1      -8.280  -4.400   0.258  0.00  0.00    -0.506 OA
ATOM     20  H   UNL     1      -7.910  -4.101  -0.584  0.00  0.00    +0.292 HD
ENDBRANCH   2  19
BRANCH   1  21
ATOM     21  C   UNL     1      -6.133  -3.836   1.995  0.00  0.00    +0.127 C 
BRANCH  21  27
ATOM     22  C   UNL     1      -1.497  -1.836   0.006  0.00  0.00    +0.403 C 
ATOM     23  O   UNL     1      -0.523  -2.563  -0.007  0.00  0.00    -0.226 OA
ATOM     24  N   UNL     1      -2.735  -2.368   0.015  0.00  0.00    -0.265 N 
ATOM     25  C   UNL     1      -3.927  -1.506   0.025  0.00  0.00    +0.126 C 
ATOM     26  C   UNL     1      -4.846  -1.960   1.164  0.00  0.00    +0.104 C 
ATOM     27  N   UNL     1      -5.120  -3.397   1.026  0.00  0.00    -0.295 NA
ATOM     28  C   UNL     1      -3.889  -4.188   1.155  0.00  0.00    +0.104 C 
ATOM     29  C   UNL     1      -2.930  -3.825   0.009  0.00  0.00    +0.126 C 
BRANCH  22  30
ATOM     30  O   UNL     1      -1.339  -0.499   0.012  0.00  0.00    -0.451 OA
BRANCH  30  32
ATOM     31  C   UNL     1      -0.019   1.526   0.010  0.00  0.00    +0.048 C 
ATOM     32  C   UNL     1       0.002  -0.004   0.002  0.00  0.00    +0.230 C 
ENDBRANCH  30  32
ENDBRANCH  22  30
ENDBRANCH  21  27
ENDBRANCH   1  21
TORSDOF 6
