REMARK  Name = ZINC37176634
REMARK  9 active torsions:
REMARK  status: ('A' for Active; 'I' for Inactive)
REMARK    1  A    between atoms: C_1  and  C_2
REMARK    2  A    between atoms: C_4  and  C_10
REMARK    3  A    between atoms: C_5  and  O_9
REMARK    4  A    between atoms: C_7  and  C_8
REMARK    5  A    between atoms: C_10  and  N_11
REMARK    6  A    between atoms: N_14  and  S_17
REMARK    7  A    between atoms: S_17  and  N_20
REMARK    8  A    between atoms: C_22  and  C_29
REMARK    9  A    between atoms: C_25  and  C_28
REMARK                            x       y       z     vdW  Elec       q    Type
REMARK                         _______ _______ _______ _____ _____    ______ ____
ROOT
ATOM      1  N   UNL     1       1.404  -3.301  -2.709  0.00  0.00    -0.296 NA
ATOM      2  C   UNL     1       1.829  -4.396  -1.827  0.00  0.00    +0.102 C 
ATOM      3  C   UNL     1       3.313  -4.693  -2.066  0.00  0.00    +0.126 C 
ATOM      4  N   UNL     1       3.515  -4.937  -3.502  0.00  0.00    -0.164 NA
ATOM      5  C   UNL     1       2.993  -3.948  -4.456  0.00  0.00    +0.126 C 
ATOM      6  C   UNL     1       1.522  -3.680  -4.123  0.00  0.00    +0.102 C 
ENDROOT
BRANCH   4   7
ATOM      7  S   UNL     1       4.311  -6.290  -4.031  0.00  0.00    +0.100 S 
ATOM      8  O   UNL     1       4.726  -6.023  -5.363  0.00  0.00    -0.141 OA
ATOM      9  O   UNL     1       5.226  -6.651  -3.005  0.00  0.00    -0.141 OA
BRANCH   7  10
ATOM     10  N   UNL     1       3.195  -7.511  -4.119  0.00  0.00    -0.161 NA
ATOM     11  C   UNL     1       2.515  -7.825  -5.386  0.00  0.00    +0.142 C 
ATOM     12  C   UNL     1       2.638  -9.332  -5.639  0.00  0.00    +0.131 C 
ATOM     13  O   UNL     1       2.187 -10.042  -4.484  0.00  0.00    -0.371 OA
ATOM     14  C   UNL     1       2.960  -9.796  -3.307  0.00  0.00    +0.131 C 
ATOM     15  C   UNL     1       2.858  -8.317  -2.935  0.00  0.00    +0.142 C 
ATOM     16  C   UNL     1       2.428 -10.653  -2.157  0.00  0.00    +0.039 C 
ATOM     17  C   UNL     1       4.100  -9.685  -5.920  0.00  0.00    +0.039 C 
ENDBRANCH   7  10
ENDBRANCH   4   7
BRANCH   1  18
ATOM     18  C   UNL     1       0.036  -2.869  -2.391  0.00  0.00    +0.123 C 
BRANCH  18  22
ATOM     19  C   UNL     1      -0.996  -2.714   2.502  0.00  0.00    +0.044 C 
ATOM     20  C   UNL     1      -0.457  -2.050   1.261  0.00  0.00    -0.047 A 
ATOM     21  C   UNL     1      -0.458  -2.732   0.058  0.00  0.00    +0.012 A 
ATOM     22  C   UNL     1       0.036  -2.125  -1.080  0.00  0.00    +0.008 A 
ATOM     23  C   UNL     1       0.532  -0.831  -1.017  0.00  0.00    +0.122 A 
ATOM     24  C   UNL     1       0.530  -0.149   0.191  0.00  0.00    +0.049 A 
ATOM     25  C   UNL     1       0.031  -0.758   1.327  0.00  0.00    -0.044 A 
ATOM     26  C   UNL     1       0.024  -0.016   2.638  0.00  0.00    +0.044 C 
BRANCH  23  27
ATOM     27  O   UNL     1       1.018  -0.233  -2.135  0.00  0.00    -0.506 OA
ATOM     28  H   UNL     1       0.374   0.320  -2.598  0.00  0.00    +0.292 HD
ENDBRANCH  23  27
ENDBRANCH  18  22
ENDBRANCH   1  18
TORSDOF 5
