REMARK  Name = ZINC64345916
REMARK  9 active torsions:
REMARK  status: ('A' for Active; 'I' for Inactive)
REMARK    1  A    between atoms: C_1  and  C_2
REMARK    2  A    between atoms: C_3  and  C_15
REMARK    3  A    between atoms: C_10  and  C_14
REMARK    4  A    between atoms: N_12  and  C_13
REMARK    5  A    between atoms: C_15  and  C_16
REMARK    6  A    between atoms: C_16  and  C_17
REMARK    7  A    between atoms: C_22  and  C_27
REMARK    8  A    between atoms: C_23  and  S_25
REMARK    9  A    between atoms: S_25  and  C_26
REMARK                            x       y       z     vdW  Elec       q    Type
REMARK                         _______ _______ _______ _____ _____    ______ ____
ROOT
ATOM      1  C   UNL     1       0.244   1.494  -0.021  0.00  0.00    +0.045 C 
ATOM      2  C   UNL     1       0.126  -0.008  -0.013  0.00  0.00    -0.030 A 
ATOM      3  C   UNL     1      -0.096  -0.688  -1.169  0.00  0.00    +0.021 A 
ATOM      4  C   UNL     1      -0.204  -2.090  -1.150  0.00  0.00    +0.254 A 
ATOM      5  O   UNL     1      -0.404  -2.692  -2.192  0.00  0.00    -0.268 OA
ATOM      6  N   UNL     1      -0.089  -2.776   0.002  0.00  0.00    -0.307 N 
ATOM      7  H   UNL     1      -0.166  -3.743  -0.004  0.00  0.00    +0.170 HD
ATOM      8  C   UNL     1       0.135  -2.121   1.183  0.00  0.00    +0.139 A 
ATOM      9  C   UNL     1       0.251  -0.730   1.196  0.00  0.00    +0.043 A 
ATOM     10  C   UNL     1       0.483  -0.345   2.538  0.00  0.00    +0.069 A 
ATOM     11  N   UNL     1       0.508  -1.423   3.270  0.00  0.00    -0.174 NA
ATOM     12  N   UNL     1       0.288  -2.541   2.458  0.00  0.00    -0.251 N 
ATOM     13  C   UNL     1       0.244  -3.933   2.912  0.00  0.00    +0.174 C 
ATOM     14  C   UNL     1       0.669   1.066   3.034  0.00  0.00    +0.068 C 
ENDROOT
BRANCH   3  15
ATOM     15  C   UNL     1      -0.228   0.061  -2.470  0.00  0.00    +0.050 C 
BRANCH  15  16
ATOM     16  C   UNL     1       1.134   0.118  -3.165  0.00  0.00    +0.101 C 
BRANCH  16  17
ATOM     17  C   UNL     1       1.002   0.867  -4.466  0.00  0.00    +0.219 C 
ATOM     18  O   UNL     1      -0.074   1.312  -4.804  0.00  0.00    -0.275 OA
ATOM     19  N   UNL     1       2.082   1.043  -5.255  0.00  0.00    -0.265 N 
ATOM     20  C   UNL     1       1.960   1.735  -6.456  0.00  0.00    +0.166 A 
ATOM     21  N   UNL     1       2.881   2.007  -7.362  0.00  0.00    -0.229 NA
ATOM     22  C   UNL     1       2.589   2.682  -8.457  0.00  0.00    +0.061 A 
ATOM     23  C   UNL     1       1.312   3.110  -8.663  0.00  0.00    +0.069 A 
ATOM     24  S   UNL     1       0.513   2.486  -7.190  0.00  0.00    -0.046 S 
ATOM     25  C   UNL     1       3.661   2.979  -9.474  0.00  0.00    +0.067 C 
ATOM     26  H   UNL     1       2.943   0.688  -4.984  0.00  0.00    +0.157 HD
BRANCH  23  27
ATOM     27  S   UNL     1       0.633   4.020 -10.011  0.00  0.00    -0.120 S 
ATOM     28  C   UNL     1      -1.117   4.210  -9.575  0.00  0.00    +0.090 C 
ENDBRANCH  23  27
ENDBRANCH  16  17
ENDBRANCH  15  16
ENDBRANCH   3  15
TORSDOF 4
