REMARK  Name = ZINC36153921
REMARK  6 active torsions:
REMARK  status: ('A' for Active; 'I' for Inactive)
REMARK    1  A    between atoms: C_1  and  C_2
REMARK    2  A    between atoms: C_2  and  C_3
REMARK    3  A    between atoms: C_2  and  C_4
REMARK    4  A    between atoms: C_4  and  C_5
REMARK    5  A    between atoms: C_11  and  C_13
REMARK    6  A    between atoms: C_16  and  N_20
REMARK                            x       y       z     vdW  Elec       q    Type
REMARK                         _______ _______ _______ _____ _____    ______ ____
ROOT
ATOM      1  C   UNL     1      -2.125  -0.137  -1.266  0.00  0.00    +0.156 A 
ATOM      2  N   UNL     1      -2.798   0.961  -1.464  0.00  0.00    -0.132 NA
ATOM      3  N   UNL     1      -3.258   0.986  -2.667  0.00  0.00    -0.120 NA
ATOM      4  C   UNL     1      -2.897  -0.096  -3.288  0.00  0.00    +0.218 A 
ATOM      5  N   UNL     1      -2.151  -0.871  -2.435  0.00  0.00    -0.190 N 
ATOM      6  N   UNL     1      -1.676  -2.072  -2.942  0.00  0.00    -0.156 NA
ATOM      7  C   UNL     1      -1.931  -2.435  -4.174  0.00  0.00    +0.134 A 
ATOM      8  S   UNL     1      -2.916  -1.071  -4.772  0.00  0.00    -0.026 S 
ENDROOT
BRANCH   7   9
ATOM      9  C   UNL     1      -1.515  -3.663  -4.886  0.00  0.00    +0.027 A 
ATOM     10  C   UNL     1      -1.890  -3.861  -6.216  0.00  0.00    +0.014 A 
ATOM     11  C   UNL     1      -1.502  -5.006  -6.877  0.00  0.00    +0.023 A 
ATOM     12  C   UNL     1      -0.738  -5.965  -6.220  0.00  0.00    +0.026 A 
ATOM     13  C   UNL     1      -0.362  -5.772  -4.896  0.00  0.00    +0.043 A 
ATOM     14  C   UNL     1      -0.743  -4.625  -4.231  0.00  0.00    +0.052 A 
ATOM     15 CL   UNL     1      -0.268  -4.380  -2.579  0.00  0.00    -0.083 Cl
BRANCH  12  16
ATOM     16  N   UNL     1      -0.348  -7.123  -6.892  0.00  0.00    -0.358 N 
ATOM     17  H   UNL     1      -0.610  -7.260  -7.816  0.00  0.00    +0.142 HD
ATOM     18  H   UNL     1       0.185  -7.793  -6.435  0.00  0.00    +0.142 HD
ENDBRANCH  12  16
ENDBRANCH   7   9
BRANCH   1  19
ATOM     19  C   UNL     1      -1.433  -0.534   0.013  0.00  0.00    +0.081 C 
BRANCH  19  21
ATOM     20  C   UNL     1      -0.019   1.526   0.010  0.00  0.00    +0.007 C 
ATOM     21  C   UNL     1       0.002  -0.004   0.002  0.00  0.00    -0.010 C 
ATOM     22  C   UNL     1       0.742  -0.511   1.242  0.00  0.00    +0.007 C 
ENDBRANCH  19  21
ENDBRANCH   1  19
TORSDOF 4
