REMARK  Name = ZINC10152615
REMARK  9 active torsions:
REMARK  status: ('A' for Active; 'I' for Inactive)
REMARK    1  A    between atoms: C_1  and  C_2
REMARK    2  A    between atoms: C_5  and  N_9
REMARK    3  A    between atoms: C_7  and  C_8
REMARK    4  A    between atoms: C_11  and  C_16
REMARK    5  A    between atoms: N_18  and  N_19
REMARK    6  A    between atoms: C_20  and  C_21
REMARK    7  A    between atoms: C_20  and  C_22
REMARK    8  A    between atoms: C_25  and  O_29
REMARK    9  A    between atoms: C_27  and  O_28
REMARK                            x       y       z     vdW  Elec       q    Type
REMARK                         _______ _______ _______ _____ _____    ______ ____
ROOT
ATOM      1  C   UNL     1       7.596   4.429   2.219  0.00  0.00    +0.237 C 
ATOM      2  O   UNL     1       7.066   4.158   3.275  0.00  0.00    -0.274 OA
ATOM      3  N   UNL     1       6.967   4.156   1.059  0.00  0.00    -0.206 N 
ATOM      4  H   UNL     1       7.391   4.373   0.214  0.00  0.00    +0.177 HD
ENDROOT
BRANCH   1   7
ATOM      5  N   UNL     1      10.147   6.699   3.505  0.00  0.00    -0.271 N 
ATOM      6  C   UNL     1       9.417   5.432   3.634  0.00  0.00    +0.127 C 
ATOM      7  C   UNL     1       8.959   5.073   2.203  0.00  0.00    +0.103 C 
ATOM      8  C   UNL     1       8.905   6.465   1.530  0.00  0.00    +0.110 C 
ATOM      9  C   UNL     1       9.874   7.303   2.335  0.00  0.00    +0.221 C 
ATOM     10  O   UNL     1      10.337   8.365   1.977  0.00  0.00    -0.275 OA
BRANCH   5  15
ATOM     11  C   UNL     1      13.669   8.778   7.436  0.00  0.00    +0.044 C 
ATOM     12  C   UNL     1      12.733   8.226   6.392  0.00  0.00    -0.047 A 
ATOM     13  C   UNL     1      12.610   8.863   5.170  0.00  0.00    +0.005 A 
ATOM     14  C   UNL     1      11.757   8.356   4.209  0.00  0.00    +0.024 A 
ATOM     15  C   UNL     1      11.015   7.212   4.475  0.00  0.00    +0.037 A 
ATOM     16  C   UNL     1      11.142   6.576   5.702  0.00  0.00    +0.027 A 
ATOM     17  C   UNL     1      12.000   7.085   6.657  0.00  0.00    -0.046 A 
ATOM     18  C   UNL     1      12.137   6.394   7.990  0.00  0.00    +0.044 C 
ENDBRANCH   5  15
ENDBRANCH   1   7
BRANCH   3  19
ATOM     19  N   UNL     1       5.700   3.557   1.073  0.00  0.00    -0.184 NA
ATOM     20  C   UNL     1       5.094   3.293  -0.044  0.00  0.00    +0.067 C 
ATOM     21  C   UNL     1       5.753   3.631  -1.357  0.00  0.00    +0.068 C 
BRANCH  20  22
ATOM     22  C   UNL     1       3.762   2.664  -0.029  0.00  0.00    +0.039 A 
ATOM     23  C   UNL     1       3.107   2.379  -1.230  0.00  0.00    +0.017 A 
ATOM     24  C   UNL     1       1.862   1.790  -1.211  0.00  0.00    +0.046 A 
ATOM     25  C   UNL     1       1.254   1.477  -0.001  0.00  0.00    +0.120 A 
ATOM     26  C   UNL     1       1.894   1.761   1.197  0.00  0.00    +0.091 A 
ATOM     27  C   UNL     1       3.147   2.348   1.191  0.00  0.00    +0.129 A 
BRANCH  27  28
ATOM     28  O   UNL     1       3.776   2.622   2.363  0.00  0.00    -0.506 OA
ATOM     29  H   UNL     1       3.581   3.500   2.718  0.00  0.00    +0.292 HD
ENDBRANCH  27  28
BRANCH  25  30
ATOM     30  O   UNL     1       0.026   0.896   0.009  0.00  0.00    -0.507 OA
ATOM     31  H   UNL     1       0.049  -0.070  -0.004  0.00  0.00    +0.292 HD
ENDBRANCH  25  30
ENDBRANCH  20  22
ENDBRANCH   3  19
TORSDOF 6
