REMARK  Name = ZINC01229945
REMARK  6 active torsions:
REMARK  status: ('A' for Active; 'I' for Inactive)
REMARK    1  A    between atoms: C_4  and  C_7
REMARK    2  A    between atoms: C_7  and  C_25
REMARK    3  A    between atoms: C_9  and  C_11
REMARK    4  A    between atoms: N_13  and  N_14
REMARK    5  A    between atoms: C_15  and  C_16
REMARK    6  A    between atoms: C_19  and  N_22
REMARK                            x       y       z     vdW  Elec       q    Type
REMARK                         _______ _______ _______ _____ _____    ______ ____
ROOT
ATOM      1  C   UNL     1      -6.118   1.679   0.159  0.00  0.00    +0.033 C 
ATOM      2  C   UNL     1      -5.998   1.089  -1.248  0.00  0.00    +0.031 C 
ATOM      3  C   UNL     1      -4.871   0.883  -0.233  0.00  0.00    +0.093 C 
ENDROOT
BRANCH   1   7
ATOM      4  C   UNL     1      -8.875  -0.174   2.845  0.00  0.00    +0.000 A 
ATOM      5  C   UNL     1      -9.191   1.036   2.256  0.00  0.00    +0.000 A 
ATOM      6  C   UNL     1      -8.299   1.636   1.387  0.00  0.00    +0.004 A 
ATOM      7  C   UNL     1      -7.090   1.025   1.107  0.00  0.00    -0.036 A 
ATOM      8  C   UNL     1      -6.777  -0.188   1.691  0.00  0.00    +0.004 A 
ATOM      9  C   UNL     1      -7.667  -0.785   2.564  0.00  0.00    +0.000 A 
ENDBRANCH   1   7
BRANCH   1  10
ATOM     10  C   UNL     1      -5.974   3.172   0.302  0.00  0.00    -0.036 A 
ATOM     11  C   UNL     1      -5.170   3.697   1.297  0.00  0.00    +0.004 A 
ATOM     12  C   UNL     1      -5.035   5.066   1.425  0.00  0.00    +0.000 A 
ATOM     13  C   UNL     1      -5.711   5.911   0.565  0.00  0.00    +0.000 A 
ATOM     14  C   UNL     1      -6.519   5.387  -0.426  0.00  0.00    +0.000 A 
ATOM     15  C   UNL     1      -6.650   4.017  -0.558  0.00  0.00    +0.004 A 
ENDBRANCH   1  10
BRANCH   3  16
ATOM     16  C   UNL     1      -3.593   1.653  -0.447  0.00  0.00    +0.236 C 
ATOM     17  O   UNL     1      -3.613   2.708  -1.046  0.00  0.00    -0.274 OA
ATOM     18  N   UNL     1      -2.428   1.170   0.027  0.00  0.00    -0.207 N 
ATOM     19  H   UNL     1      -2.412   0.326   0.506  0.00  0.00    +0.177 HD
BRANCH  18  20
ATOM     20  N   UNL     1      -1.240   1.885  -0.171  0.00  0.00    -0.188 NA
ATOM     21  C   UNL     1      -0.118   1.420   0.285  0.00  0.00    +0.138 C 
BRANCH  21  22
ATOM     22  C   UNL     1       1.133   2.170   0.071  0.00  0.00    -0.005 A 
ATOM     23  C   UNL     1       1.115   3.382  -0.623  0.00  0.00    +0.012 A 
ATOM     24  C   UNL     1       2.288   4.081  -0.816  0.00  0.00    +0.033 A 
ATOM     25  C   UNL     1       3.483   3.579  -0.332  0.00  0.00    +0.126 A 
ATOM     26  C   UNL     1       3.510   2.377   0.352  0.00  0.00    +0.033 A 
ATOM     27  C   UNL     1       2.344   1.669   0.556  0.00  0.00    +0.012 A 
BRANCH  25  28
ATOM     28  N   UNL     1       4.739   4.332  -0.547  0.00  0.00    +0.056 N 
ATOM     29  O   UNL     1       5.793   3.893  -0.123  0.00  0.00    -0.126 OA
ATOM     30  O   UNL     1       4.719   5.391  -1.148  0.00  0.00    -0.126 OA
ENDBRANCH  25  28
ENDBRANCH  21  22
ENDBRANCH  18  20
ENDBRANCH   3  16
TORSDOF 6
