REMARK  Name = ZINC63224571
REMARK  4 active torsions:
REMARK  status: ('A' for Active; 'I' for Inactive)
REMARK    1  A    between atoms: C_4  and  C_7
REMARK    2  A    between atoms: C_9  and  N_10
REMARK    3  A    between atoms: C_11  and  C_13
REMARK    4  A    between atoms: C_23  and  N_25
REMARK                            x       y       z     vdW  Elec       q    Type
REMARK                         _______ _______ _______ _____ _____    ______ ____
ROOT
ATOM      1  C   UNL     1       7.088  -2.226   3.307  0.00  0.00    +0.306 C 
ATOM      2  O   UNL     1       7.990  -1.948   2.544  0.00  0.00    -0.265 OA
ATOM      3  N   UNL     1       7.360  -2.502   4.598  0.00  0.00    -0.263 N 
ATOM      4  C   UNL     1       6.275  -2.817   5.538  0.00  0.00    +0.114 C 
ATOM      5  C   UNL     1       6.535  -2.037   6.833  0.00  0.00    +0.024 C 
ATOM      6  C   UNL     1       7.847  -2.525   7.449  0.00  0.00    +0.038 C 
ATOM      7  C   UNL     1       8.951  -2.500   6.426  0.00  0.00    -0.024 A 
ATOM      8  C   UNL     1       8.679  -2.497   5.065  0.00  0.00    +0.040 A 
ATOM      9  C   UNL     1       9.722  -2.484   4.145  0.00  0.00    +0.026 A 
ATOM     10  C   UNL     1      11.031  -2.476   4.585  0.00  0.00    +0.034 A 
ATOM     11  C   UNL     1      11.303  -2.481   5.941  0.00  0.00    +0.127 A 
ATOM     12  C   UNL     1      10.266  -2.486   6.859  0.00  0.00    +0.038 A 
ENDROOT
BRANCH   1  14
ATOM     13  N   UNL     1       5.391  -1.862   1.562  0.00  0.00    -0.304 N 
ATOM     14  C   UNL     1       5.678  -2.263   2.816  0.00  0.00    +0.300 C 
ATOM     15  O   UNL     1       4.791  -2.654   3.546  0.00  0.00    -0.265 OA
ATOM     16  H   UNL     1       6.100  -1.550   0.978  0.00  0.00    +0.149 HD
BRANCH  13  19
ATOM     17  C   UNL     1       3.629  -0.941  -0.051  0.00  0.00    +0.041 C 
ATOM     18  C   UNL     1       3.765  -2.439  -0.331  0.00  0.00    +0.033 C 
ATOM     19  C   UNL     1       4.008  -1.898   1.080  0.00  0.00    +0.081 C 
BRANCH  17  23
ATOM     20  C   UNL     1      -0.312   0.706  -0.006  0.00  0.00    +0.000 A 
ATOM     21  C   UNL     1       0.787   1.542   0.049  0.00  0.00    +0.000 A 
ATOM     22  C   UNL     1       2.062   1.010   0.034  0.00  0.00    +0.004 A 
ATOM     23  C   UNL     1       2.238  -0.360  -0.035  0.00  0.00    -0.042 A 
ATOM     24  C   UNL     1       1.139  -1.196  -0.088  0.00  0.00    +0.004 A 
ATOM     25  C   UNL     1      -0.136  -0.663  -0.075  0.00  0.00    +0.000 A 
ENDBRANCH  17  23
ENDBRANCH  13  19
ENDBRANCH   1  14
BRANCH  11  26
ATOM     26  N   UNL     1      12.706  -2.471   6.413  0.00  0.00    +0.056 N 
ATOM     27  O   UNL     1      13.612  -2.459   5.613  0.00  0.00    -0.126 OA
ATOM     28  O   UNL     1      12.945  -2.476   7.598  0.00  0.00    -0.126 OA
ENDBRANCH  11  26
TORSDOF 4
