REMARK  Name = ZINC63411353
REMARK  4 active torsions:
REMARK  status: ('A' for Active; 'I' for Inactive)
REMARK    1  A    between atoms: C_1  and  C_2
REMARK    2  A    between atoms: C_6  and  C_7
REMARK    3  A    between atoms: N_8  and  N_9
REMARK    4  A    between atoms: C_10  and  C_12
REMARK                            x       y       z     vdW  Elec       q    Type
REMARK                         _______ _______ _______ _____ _____    ______ ____
ROOT
ATOM      1  C   UNL     1      -0.196  -4.790   4.069  0.00  0.00    +0.243 C 
ATOM      2  C   UNL     1       1.214  -5.305   4.023  0.00  0.00    -0.007 C 
ATOM      3  C   UNL     1       1.288  -6.191   5.047  0.00  0.00    +0.095 C 
ATOM      4  C   UNL     1       2.567  -6.897   5.313  0.00  0.00    +0.005 A 
ATOM      5  C   UNL     1       2.630  -8.001   6.151  0.00  0.00    +0.010 A 
ATOM      6  C   UNL     1       3.837  -8.645   6.342  0.00  0.00    +0.001 A 
ATOM      7  C   UNL     1       4.972  -8.187   5.695  0.00  0.00    +0.000 A 
ATOM      8  C   UNL     1       4.913  -7.080   4.869  0.00  0.00    +0.004 A 
ATOM      9  C   UNL     1       3.716  -6.415   4.682  0.00  0.00    -0.038 A 
ATOM     10  C   UNL     1       3.678  -5.162   3.849  0.00  0.00    +0.040 C 
ATOM     11  C   UNL     1       2.354  -5.004   3.101  0.00  0.00    +0.040 C 
ATOM     12  N   UNL     1       0.097  -6.267   5.678  0.00  0.00    -0.153 NA
ATOM     13  N   UNL     1      -0.783  -5.529   5.205  0.00  0.00    -0.170 NA
ENDROOT
BRANCH   1  15
ATOM     14  N   UNL     1      -0.032  -2.439   3.315  0.00  0.00    -0.205 N 
ATOM     15  C   UNL     1      -0.213  -3.306   4.332  0.00  0.00    +0.263 C 
ATOM     16  O   UNL     1      -0.390  -2.891   5.458  0.00  0.00    -0.271 OA
ATOM     17  H   UNL     1       0.110  -2.771   2.415  0.00  0.00    +0.177 HD
BRANCH  14  19
ATOM     18  C   UNL     1       0.229  -0.227   2.600  0.00  0.00    +0.145 C 
ATOM     19  N   UNL     1      -0.048  -1.060   3.559  0.00  0.00    -0.187 NA
BRANCH  18  25
ATOM     20  C   UNL     1       0.707   1.446   0.053  0.00  0.00    +0.045 C 
ATOM     21  C   UNL     1       0.973  -0.034   0.143  0.00  0.00    -0.035 A 
ATOM     22  C   UNL     1       1.463  -0.729  -0.938  0.00  0.00    +0.011 A 
ATOM     23  C   UNL     1       1.692  -2.063  -0.822  0.00  0.00    +0.046 A 
ATOM     24  S   UNL     1       1.210  -2.388   0.866  0.00  0.00    -0.095 S 
ATOM     25  C   UNL     1       0.737  -0.727   1.318  0.00  0.00    +0.035 A 
ENDBRANCH  18  25
ENDBRANCH  14  19
ENDBRANCH   1  15
TORSDOF 3
