REMARK  Name = ZINC02319777
REMARK  9 active torsions:
REMARK  status: ('A' for Active; 'I' for Inactive)
REMARK    1  A    between atoms: C_1  and  C_2
REMARK    2  A    between atoms: C_2  and  C_28
REMARK    3  A    between atoms: N_11  and  N_25
REMARK    4  A    between atoms: C_12  and  C_14
REMARK    5  A    between atoms: C_14  and  C_15
REMARK    6  A    between atoms: C_18  and  O_23
REMARK    7  A    between atoms: C_19  and  O_21
REMARK    8  A    between atoms: O_21  and  C_22
REMARK    9  A    between atoms: O_23  and  C_24
REMARK                            x       y       z     vdW  Elec       q    Type
REMARK                         _______ _______ _______ _____ _____    ______ ____
ROOT
ATOM      1  C   UNL     1       0.002  -0.004   0.002  0.00  0.00    +0.041 C 
ATOM      2  C   UNL     1      -0.019   1.526   0.010  0.00  0.00    +0.068 C 
ATOM      3  C   UNL     1      -0.730   2.017   1.274  0.00  0.00    +0.071 C 
ATOM      4  C   UNL     1      -2.211   1.678   1.152  0.00  0.00    -0.018 A 
ATOM      5  C   UNL     1      -2.726   1.386  -0.069  0.00  0.00    +0.021 A 
ATOM      6  S   UNL     1      -4.443   1.052   0.221  0.00  0.00    -0.071 S 
ATOM      7  C   UNL     1      -4.467   1.304   1.969  0.00  0.00    +0.116 A 
ATOM      8  C   UNL     1      -3.128   1.642   2.272  0.00  0.00    +0.077 A 
ATOM      9  C   UNL     1      -2.822   1.912   3.649  0.00  0.00    +0.279 A 
ATOM     10  O   UNL     1      -1.699   2.213   4.016  0.00  0.00    -0.265 OA
ATOM     11  N   UNL     1      -3.860   1.812   4.513  0.00  0.00    -0.218 N 
ATOM     12  C   UNL     1      -5.115   1.480   4.126  0.00  0.00    +0.135 A 
ATOM     13  N   UNL     1      -5.435   1.224   2.876  0.00  0.00    -0.224 NA
ATOM     14  C   UNL     1      -1.976   1.361  -1.363  0.00  0.00    +0.203 C 
ATOM     15  O   UNL     1      -0.705   1.997  -1.152  0.00  0.00    -0.368 OA
ATOM     16  C   UNL     1       1.418   2.053  -0.001  0.00  0.00    +0.041 C 
ENDROOT
BRANCH  11  17
ATOM     17  N   UNL     1      -3.630   2.057   5.837  0.00  0.00    -0.294 N 
ATOM     18  H   UNL     1      -2.662   2.292   5.998  0.00  0.00    +0.163 HD
ATOM     19  H   UNL     1      -4.241   2.782   6.182  0.00  0.00    +0.163 HD
ENDBRANCH  11  17
BRANCH  12  20
ATOM     20  C   UNL     1      -6.193   1.398   5.176  0.00  0.00    +0.111 C 
BRANCH  20  21
ATOM     21  C   UNL     1      -7.498   1.016   4.526  0.00  0.00    -0.036 A 
ATOM     22  C   UNL     1      -8.352   2.000   4.063  0.00  0.00    +0.008 A 
ATOM     23  C   UNL     1      -9.548   1.655   3.462  0.00  0.00    +0.049 A 
ATOM     24  C   UNL     1      -9.898   0.321   3.332  0.00  0.00    +0.161 A 
ATOM     25  C   UNL     1      -9.041  -0.669   3.803  0.00  0.00    +0.162 A 
ATOM     26  C   UNL     1      -7.842  -0.317   4.400  0.00  0.00    +0.053 A 
BRANCH  25  27
ATOM     27  O   UNL     1      -9.381  -1.980   3.677  0.00  0.00    -0.491 OA
ATOM     28  C   UNL     1      -8.452  -2.942   4.183  0.00  0.00    +0.277 C 
ENDBRANCH  25  27
BRANCH  24  29
ATOM     29  O   UNL     1     -11.077  -0.020   2.746  0.00  0.00    -0.491 OA
ATOM     30  C   UNL     1     -11.906   1.049   2.286  0.00  0.00    +0.277 C 
ENDBRANCH  24  29
ENDBRANCH  20  21
ENDBRANCH  12  20
TORSDOF 5
