REMARK  Name = ZINC67293974
REMARK  6 active torsions:
REMARK  status: ('A' for Active; 'I' for Inactive)
REMARK    1  A    between atoms: C_1  and  O_2
REMARK    2  A    between atoms: O_2  and  C_3
REMARK    3  A    between atoms: N_11  and  C_12
REMARK    4  A    between atoms: C_20  and  C_22
REMARK    5  A    between atoms: N_24  and  C_25
REMARK    6  A    between atoms: C_25  and  C_26
REMARK                            x       y       z     vdW  Elec       q    Type
REMARK                         _______ _______ _______ _____ _____    ______ ____
ROOT
ATOM      1  C   UNL     1      -1.221  -0.683   0.104  0.00  0.00    +0.163 A 
ATOM      2  C   UNL     1      -2.391   0.057   0.128  0.00  0.00    +0.049 A 
ATOM      3  C   UNL     1      -3.626  -0.575   0.113  0.00  0.00    +0.004 A 
ATOM      4  C   UNL     1      -3.706  -1.949   0.075  0.00  0.00    +0.012 A 
ATOM      5  C   UNL     1      -2.532  -2.713   0.053  0.00  0.00    +0.022 A 
ATOM      6  C   UNL     1      -1.280  -2.072   0.059  0.00  0.00    +0.179 A 
ATOM      7  O   UNL     1      -0.143  -2.811   0.023  0.00  0.00    -0.435 OA
ATOM      8  C   UNL     1      -0.207  -4.065   0.539  0.00  0.00    +0.212 A 
ATOM      9  N   UNL     1       0.776  -4.550   1.266  0.00  0.00    -0.325 N 
ATOM     10  C   UNL     1      -1.413  -4.869   0.258  0.00  0.00    +0.097 A 
ATOM     11  C   UNL     1      -2.591  -4.176   0.020  0.00  0.00    +0.030 A 
ATOM     12  H   UNL     1       0.679  -5.412   1.700  0.00  0.00    +0.169 HD
ENDROOT
BRANCH   9  13
ATOM     13  C   UNL     1       1.935  -3.837   1.411  0.00  0.00    +0.043 A 
ATOM     14  C   UNL     1       2.529  -3.232   0.301  0.00  0.00    +0.028 A 
ATOM     15  C   UNL     1       3.698  -2.515   0.452  0.00  0.00    +0.042 A 
ATOM     16  C   UNL     1       4.283  -2.394   1.702  0.00  0.00    +0.142 A 
ATOM     17  C   UNL     1       3.699  -2.993   2.808  0.00  0.00    +0.078 A 
ATOM     18  C   UNL     1       2.526  -3.708   2.670  0.00  0.00    +0.048 A 
ATOM     19 CL   UNL     1       4.439  -2.837   4.370  0.00  0.00    -0.081 Cl
ATOM     20  F   UNL     1       5.428  -1.691   1.844  0.00  0.00    -0.204 F 
ENDBRANCH   9  13
BRANCH  10  21
ATOM     21  C   UNL     1      -1.370  -6.341   0.243  0.00  0.00    +0.249 C 
ATOM     22  O   UNL     1      -0.344  -6.922   0.540  0.00  0.00    -0.270 OA
ATOM     23  N   UNL     1      -2.467  -7.044  -0.101  0.00  0.00    -0.309 N 
ATOM     24  H   UNL     1      -3.263  -6.582  -0.409  0.00  0.00    +0.149 HD
BRANCH  23  25
ATOM     25  C   UNL     1      -2.459  -8.506  -0.008  0.00  0.00    +0.136 C 
BRANCH  25  26
ATOM     26  C   UNL     1      -3.817  -9.053  -0.453  0.00  0.00    +0.135 C 
ATOM     27  C   UNL     1      -3.842 -10.597  -0.330  0.00  0.00    +0.035 C 
ATOM     28  C   UNL     1      -5.366 -10.857  -0.181  0.00  0.00    +0.031 C 
ATOM     29  C   UNL     1      -5.833  -9.618   0.613  0.00  0.00    +0.160 C 
ATOM     30  O   UNL     1      -4.854  -8.588   0.425  0.00  0.00    -0.375 OA
ENDBRANCH  25  26
ENDBRANCH  23  25
ENDBRANCH  10  21
BRANCH   1  32
ATOM     31  C   UNL     1      -0.032   1.376   0.166  0.00  0.00    +0.277 C 
ATOM     32  O   UNL     1      -0.016  -0.052   0.119  0.00  0.00    -0.491 OA
ENDBRANCH   1  32
TORSDOF 5
