REMARK  Name = ZINC01442476
REMARK  5 active torsions:
REMARK  status: ('A' for Active; 'I' for Inactive)
REMARK    1  A    between atoms: C_3  and  C_6
REMARK    2  A    between atoms: C_6  and  N_7
REMARK    3  A    between atoms: N_7  and  C_8
REMARK    4  A    between atoms: N_13  and  C_16
REMARK    5  A    between atoms: N_25  and  C_26
REMARK                            x       y       z     vdW  Elec       q    Type
REMARK                         _______ _______ _______ _____ _____    ______ ____
ROOT
ATOM      1  N   UNL     1       5.168   1.037   1.467  0.00  0.00    -0.266 N 
ATOM      2  C   UNL     1       6.048   1.760   2.187  0.00  0.00    +0.307 C 
ATOM      3  O   UNL     1       6.579   1.271   3.166  0.00  0.00    -0.252 OA
ATOM      4  N   UNL     1       6.340   3.024   1.823  0.00  0.00    -0.269 N 
ATOM      5  H   UNL     1       5.867   3.437   1.084  0.00  0.00    +0.156 HD
ENDROOT
BRANCH   1   6
ATOM      6  C   UNL     1       4.851  -0.337   1.863  0.00  0.00    +0.173 C 
ATOM      7  C   UNL     1       6.129  -1.200   1.903  0.00  0.00    +0.128 C 
ATOM      8  C   UNL     1       6.217  -1.637   3.348  0.00  0.00    +0.228 C 
ATOM      9  O   UNL     1       7.086  -2.339   3.818  0.00  0.00    -0.275 OA
ATOM     10  N   UNL     1       5.182  -1.125   4.027  0.00  0.00    -0.209 N 
ATOM     11  C   UNL     1       4.347  -0.378   3.289  0.00  0.00    +0.247 C 
ATOM     12  O   UNL     1       3.350   0.178   3.698  0.00  0.00    -0.273 OA
BRANCH  10  13
ATOM     13  C   UNL     1       4.986  -1.354   5.397  0.00  0.00    +0.044 A 
ATOM     14  C   UNL     1       4.213  -2.426   5.819  0.00  0.00    +0.027 A 
ATOM     15  C   UNL     1       4.021  -2.650   7.169  0.00  0.00    +0.040 A 
ATOM     16  C   UNL     1       4.599  -1.804   8.101  0.00  0.00    +0.124 A 
ATOM     17  C   UNL     1       5.371  -0.733   7.681  0.00  0.00    +0.040 A 
ATOM     18  C   UNL     1       5.570  -0.510   6.333  0.00  0.00    +0.027 A 
ATOM     19  F   UNL     1       4.410  -2.023   9.420  0.00  0.00    -0.205 F 
ENDBRANCH  10  13
ENDBRANCH   1   6
BRANCH   4  20
ATOM     20  C   UNL     1       7.327   3.741   2.512  0.00  0.00    +0.035 A 
ATOM     21  C   UNL     1       8.144   4.631   1.828  0.00  0.00    +0.026 A 
ATOM     22  C   UNL     1       9.116   5.338   2.509  0.00  0.00    +0.040 A 
ATOM     23  C   UNL     1       9.275   5.159   3.872  0.00  0.00    +0.124 A 
ATOM     24  C   UNL     1       8.462   4.272   4.556  0.00  0.00    +0.040 A 
ATOM     25  C   UNL     1       7.485   3.568   3.880  0.00  0.00    +0.026 A 
ATOM     26  F   UNL     1      10.227   5.851   4.537  0.00  0.00    -0.205 F 
ENDBRANCH   4  20
BRANCH   1  27
ATOM     27  C   UNL     1       4.528   1.626   0.288  0.00  0.00    +0.184 C 
BRANCH  27  30
ATOM     28  C   UNL     1       1.762   3.806   1.374  0.00  0.00    +0.041 A 
ATOM     29  C   UNL     1       3.128   3.592   1.080  0.00  0.00    +0.046 A 
ATOM     30  C   UNL     1       3.248   2.307   0.699  0.00  0.00    +0.122 A 
ATOM     31  O   UNL     1       2.034   1.735   0.746  0.00  0.00    -0.466 OA
ATOM     32  C   UNL     1       1.129   2.639   1.155  0.00  0.00    +0.195 A 
ENDBRANCH  27  30
ENDBRANCH   1  27
TORSDOF 5
