REMARK  Name = ZINC02883047
REMARK  4 active torsions:
REMARK  status: ('A' for Active; 'I' for Inactive)
REMARK    1  A    between atoms: C_1  and  O_2
REMARK    2  A    between atoms: O_2  and  C_3
REMARK    3  A    between atoms: C_3  and  C_5
REMARK    4  A    between atoms: C_11  and  C_13
REMARK                            x       y       z     vdW  Elec       q    Type
REMARK                         _______ _______ _______ _____ _____    ______ ____
ROOT
ATOM      1  C   UNL     1       0.740  -2.282   0.867  0.00  0.00    +0.101 C 
ATOM      2  C   UNL     1      -0.682  -2.845   0.904  0.00  0.00    +0.033 C 
ATOM      3  C   UNL     1      -0.620  -4.369   1.046  0.00  0.00    +0.109 C 
ATOM      4  N   UNL     1       0.191  -4.702   2.225  0.00  0.00    -0.297 N 
ATOM      5  C   UNL     1       1.543  -4.138   2.334  0.00  0.00    +0.109 C 
ATOM      6  C   UNL     1       1.457  -2.616   2.177  0.00  0.00    +0.033 C 
ATOM      7  C   UNL     1      -0.296  -5.508   3.188  0.00  0.00    +0.254 C 
ATOM      8  O   UNL     1       0.417  -5.853   4.111  0.00  0.00    -0.270 OA
ENDROOT
BRANCH   7   9
ATOM      9  C   UNL     1      -1.693  -5.972   3.124  0.00  0.00    +0.122 A 
ATOM     10  C   UNL     1      -2.062  -7.038   2.314  0.00  0.00    +0.031 A 
ATOM     11  C   UNL     1      -3.432  -7.407   2.280  0.00  0.00    +0.018 A 
ATOM     12  C   UNL     1      -3.834  -8.590   1.644  0.00  0.00    +0.011 A 
ATOM     13  C   UNL     1      -5.151  -8.953   1.656  0.00  0.00    +0.001 A 
ATOM     14  C   UNL     1      -6.096  -8.156   2.287  0.00  0.00    +0.004 A 
ATOM     15  C   UNL     1      -5.726  -6.979   2.902  0.00  0.00    +0.047 A 
ATOM     16  C   UNL     1      -4.394  -6.586   2.897  0.00  0.00    +0.139 A 
ATOM     17  O   UNL     1      -4.024  -5.411   3.460  0.00  0.00    -0.422 OA
ATOM     18  C   UNL     1      -2.752  -5.328   3.921  0.00  0.00    +0.350 A 
ATOM     19  O   UNL     1      -2.492  -4.740   4.954  0.00  0.00    -0.244 OA
ENDBRANCH   7   9
BRANCH   1  20
ATOM     20  C   UNL     1       0.684  -0.786   0.693  0.00  0.00    +0.310 C 
ATOM     21  O   UNL     1       1.167  -0.062   1.531  0.00  0.00    -0.251 OA
BRANCH  20  23
ATOM     22  C   UNL     1       0.079   1.167  -0.492  0.00  0.00    +0.280 C 
ATOM     23  O   UNL     1       0.097  -0.258  -0.392  0.00  0.00    -0.468 OA
ENDBRANCH  20  23
ENDBRANCH   1  20
TORSDOF 3
