REMARK  Name = ZINC20476978
REMARK  6 active torsions:
REMARK  status: ('A' for Active; 'I' for Inactive)
REMARK    1  A    between atoms: C_1  and  C_2
REMARK    2  A    between atoms: C_2  and  C_29
REMARK    3  A    between atoms: C_6  and  N_22
REMARK    4  A    between atoms: C_13  and  S_17
REMARK    5  A    between atoms: S_17  and  C_18
REMARK    6  A    between atoms: C_18  and  C_19
REMARK                            x       y       z     vdW  Elec       q    Type
REMARK                         _______ _______ _______ _____ _____    ______ ____
ROOT
ATOM      1  C   UNL     1       3.628   0.897   9.071  0.00  0.00    +0.041 C 
ATOM      2  C   UNL     1       2.975  -0.465   8.832  0.00  0.00    +0.068 C 
ATOM      3  C   UNL     1       2.210  -0.444   7.506  0.00  0.00    +0.070 C 
ATOM      4  C   UNL     1       0.982   0.415   7.643  0.00  0.00    -0.024 A 
ATOM      5  C   UNL     1       0.480   0.766   8.857  0.00  0.00    +0.022 A 
ATOM      6  C   UNL     1      -0.673   1.555   8.933  0.00  0.00    +0.128 A 
ATOM      7  N   UNL     1      -1.279   1.965   7.830  0.00  0.00    -0.224 NA
ATOM      8  C   UNL     1      -0.817   1.647   6.639  0.00  0.00    +0.113 A 
ATOM      9  C   UNL     1       0.333   0.858   6.464  0.00  0.00    +0.037 A 
ATOM     10  C   UNL     1       0.723   0.587   5.068  0.00  0.00    +0.092 A 
ATOM     11  C   UNL     1      -0.098   1.149   4.083  0.00  0.00    +0.072 A 
ATOM     12  S   UNL     1      -1.354   2.013   4.986  0.00  0.00    -0.064 S 
ATOM     13  C   UNL     1       0.174   0.961   2.735  0.00  0.00    +0.115 A 
ATOM     14  N   UNL     1       1.235   0.225   2.401  0.00  0.00    -0.228 NA
ATOM     15  C   UNL     1       2.001  -0.296   3.342  0.00  0.00    +0.223 A 
ATOM     16  N   UNL     1       1.774  -0.138   4.623  0.00  0.00    -0.234 NA
ATOM     17  C   UNL     1       1.141   0.327  10.139  0.00  0.00    +0.199 C 
ATOM     18  O   UNL     1       2.046  -0.747   9.885  0.00  0.00    -0.369 OA
ATOM     19  C   UNL     1       4.050  -1.553   8.789  0.00  0.00    +0.041 C 
ENDROOT
BRANCH   6  20
ATOM     20  N   UNL     1      -1.185   1.910  10.174  0.00  0.00    -0.315 N 
ATOM     21  C   UNL     1      -0.215   2.741  10.932  0.00  0.00    +0.106 C 
ATOM     22  C   UNL     1      -1.104   3.455  11.981  0.00  0.00    +0.020 C 
ATOM     23  C   UNL     1      -2.402   3.747  11.193  0.00  0.00    +0.020 C 
ATOM     24  C   UNL     1      -2.400   2.740  10.028  0.00  0.00    +0.106 C 
ENDBRANCH   6  20
BRANCH  13  25
ATOM     25  S   UNL     1      -0.860   1.669   1.497  0.00  0.00    -0.095 S 
BRANCH  25  26
ATOM     26  C   UNL     1      -0.013   1.086   0.008  0.00  0.00    +0.171 C 
BRANCH  26  27
ATOM     27  C   UNL     1      -0.742   1.585  -1.213  0.00  0.00    +0.221 C 
ATOM     28  O   UNL     1      -1.736   2.268  -1.088  0.00  0.00    -0.275 OA
ATOM     29  N   UNL     1      -0.288   1.272  -2.443  0.00  0.00    -0.329 N 
ATOM     30  H   UNL     1      -0.820   1.637  -3.334  0.00  0.00    +0.145 HD
ATOM     31  H   UNL     1       0.614   0.653  -2.556  0.00  0.00    +0.145 HD
ENDBRANCH  26  27
ENDBRANCH  25  26
ENDBRANCH  13  25
TORSDOF 4
