REMARK  Name = ZINC23424157
REMARK  5 active torsions:
REMARK  status: ('A' for Active; 'I' for Inactive)
REMARK    1  A    between atoms: C_4  and  S_9
REMARK    2  A    between atoms: C_5  and  C_7
REMARK    3  A    between atoms: S_9  and  N_12
REMARK    4  A    between atoms: N_15  and  C_18
REMARK    5  A    between atoms: C_18  and  N_19
REMARK                            x       y       z     vdW  Elec       q    Type
REMARK                         _______ _______ _______ _____ _____    ______ ____
ROOT
ATOM      1  N   UNL     1      -4.112  -0.022   3.629  0.00  0.00    -0.174 NA
ATOM      2  C   UNL     1      -4.718   1.099   2.896  0.00  0.00    +0.125 C 
ATOM      3  C   UNL     1      -4.214   1.065   1.449  0.00  0.00    +0.103 C 
ATOM      4  N   UNL     1      -2.746   1.043   1.446  0.00  0.00    -0.284 NA
ATOM      5  C   UNL     1      -2.229  -0.173   2.087  0.00  0.00    +0.103 C 
ATOM      6  C   UNL     1      -2.652  -0.189   3.560  0.00  0.00    +0.125 C 
ENDROOT
BRANCH   1   7
ATOM      7  S   UNL     1      -5.046  -1.067   4.510  0.00  0.00    +0.062 S 
ATOM      8  O   UNL     1      -4.166  -1.766   5.378  0.00  0.00    -0.153 OA
ATOM      9  O   UNL     1      -6.153  -0.316   4.990  0.00  0.00    -0.153 OA
BRANCH   7  13
ATOM     10  C   UNL     1      -6.720  -4.134   1.616  0.00  0.00    +0.001 A 
ATOM     11  C   UNL     1      -7.560  -3.222   2.231  0.00  0.00    +0.002 A 
ATOM     12  C   UNL     1      -7.049  -2.290   3.117  0.00  0.00    +0.030 A 
ATOM     13  C   UNL     1      -5.696  -2.258   3.385  0.00  0.00    +0.123 A 
ATOM     14  C   UNL     1      -4.843  -3.176   2.769  0.00  0.00    +0.078 A 
ATOM     15  C   UNL     1      -5.367  -4.117   1.880  0.00  0.00    +0.021 A 
BRANCH  14  16
ATOM     16  C   UNL     1      -3.439  -3.152   3.047  0.00  0.00    +0.101 C 
ATOM     17  N   UNL     1      -2.325  -3.134   3.268  0.00  0.00    -0.191 NA
ENDBRANCH  14  16
ENDBRANCH   7  13
ENDBRANCH   1   7
BRANCH   4  18
ATOM     18  C   UNL     1      -2.220   1.183   0.082  0.00  0.00    +0.205 C 
BRANCH  18  19
ATOM     19  N   UNL     1      -0.868   1.744   0.134  0.00  0.00    -0.210 N 
ATOM     20  C   UNL     1      -0.593   3.065   0.107  0.00  0.00    +0.252 C 
ATOM     21  O   UNL     1      -1.386   3.979   0.036  0.00  0.00    -0.272 OA
ATOM     22  C   UNL     1       0.911   3.163   0.176  0.00  0.00    +0.139 C 
ATOM     23  C   UNL     1       1.351   3.946   1.404  0.00  0.00    +0.040 C 
ATOM     24  C   UNL     1       1.004   5.429   1.234  0.00  0.00    +0.008 C 
ATOM     25  C   UNL     1       1.897   6.026   0.136  0.00  0.00    +0.043 C 
ATOM     26  C   UNL     1       1.876   5.113  -1.045  0.00  0.00    -0.005 A 
ATOM     27  C   UNL     1       1.446   3.821  -1.085  0.00  0.00    -0.005 A 
ATOM     28  C   UNL     1       1.529   3.175  -2.318  0.00  0.00    +0.014 A 
ATOM     29  C   UNL     1       2.017   3.832  -3.396  0.00  0.00    +0.046 A 
ATOM     30  S   UNL     1       2.394   5.437  -2.709  0.00  0.00    -0.101 S 
ATOM     31  N   UNL     1       1.362   1.770   0.246  0.00  0.00    -0.281 N 
ATOM     32  C   UNL     1       0.249   1.010   0.219  0.00  0.00    +0.311 C 
ATOM     33  O   UNL     1       0.259  -0.204   0.262  0.00  0.00    -0.252 OA
ATOM     34  H   UNL     1       2.437   1.542   0.305  0.00  0.00    +0.152 HD
ENDBRANCH  18  19
ENDBRANCH   4  18
TORSDOF 5
