REMARK  Name = ZINC43229796
REMARK  3 active torsions:
REMARK  status: ('A' for Active; 'I' for Inactive)
REMARK    1  A    between atoms: C_1  and  C_2
REMARK    2  A    between atoms: C_2  and  C_4
REMARK    3  A    between atoms: C_2  and  N_10
REMARK                            x       y       z     vdW  Elec       q    Type
REMARK                         _______ _______ _______ _____ _____    ______ ____
ROOT
ATOM      1  N   UNL     1       0.688  -0.475  -1.204  0.00  0.00    -0.292 N 
ATOM      2  C   UNL     1       0.006  -0.608  -2.358  0.00  0.00    +0.307 C 
ATOM      3  O   UNL     1      -1.195  -0.424  -2.380  0.00  0.00    -0.252 OA
ATOM      4  N   UNL     1       0.656  -0.945  -3.490  0.00  0.00    -0.255 N 
ATOM      5  C   UNL     1       2.076  -1.301  -3.569  0.00  0.00    +0.120 C 
ATOM      6  C   UNL     1       2.334  -1.601  -5.054  0.00  0.00    +0.056 C 
ATOM      7  C   UNL     1       0.996  -1.385  -5.725  0.00  0.00    -0.024 A 
ATOM      8  C   UNL     1       0.074  -1.013  -4.760  0.00  0.00    +0.041 A 
ATOM      9  C   UNL     1      -1.245  -0.762  -5.143  0.00  0.00    +0.024 A 
ATOM     10  C   UNL     1      -1.620  -0.886  -6.464  0.00  0.00    +0.002 A 
ATOM     11  C   UNL     1      -0.694  -1.261  -7.419  0.00  0.00    +0.000 A 
ATOM     12  C   UNL     1       0.616  -1.505  -7.048  0.00  0.00    +0.005 A 
ATOM     13  H   UNL     1       1.633  -0.693  -1.170  0.00  0.00    +0.151 HD
ENDROOT
BRANCH   1  15
ATOM     14  C   UNL     1      -0.019   1.528   0.009  0.00  0.00    +0.033 C 
ATOM     15  C   UNL     1       0.002  -0.002   0.002  0.00  0.00    +0.102 C 
BRANCH  15  16
ATOM     16  C   UNL     1       0.732  -0.500   1.223  0.00  0.00    -0.027 A 
ATOM     17  C   UNL     1       2.114  -0.510   1.246  0.00  0.00    +0.005 A 
ATOM     18  C   UNL     1       2.783  -0.967   2.366  0.00  0.00    +0.000 A 
ATOM     19  C   UNL     1       2.070  -1.413   3.463  0.00  0.00    +0.000 A 
ATOM     20  C   UNL     1       0.688  -1.403   3.440  0.00  0.00    +0.000 A 
ATOM     21  C   UNL     1       0.019  -0.942   2.321  0.00  0.00    +0.005 A 
ENDBRANCH  15  16
ENDBRANCH   1  15
TORSDOF 2
