REMARK  Name = ZINC56252997
REMARK  5 active torsions:
REMARK  status: ('A' for Active; 'I' for Inactive)
REMARK    1  A    between atoms: C_6  and  C_7
REMARK    2  A    between atoms: C_7  and  C_13
REMARK    3  A    between atoms: C_13  and  N_14
REMARK    4  A    between atoms: C_15  and  C_17
REMARK    5  A    between atoms: C_21  and  N_27
REMARK                            x       y       z     vdW  Elec       q    Type
REMARK                         _______ _______ _______ _____ _____    ______ ____
ROOT
ATOM      1  N   UNL     1      -2.423   0.894   1.396  0.00  0.00    -0.309 N 
ATOM      2  C   UNL     1      -3.002   1.378   2.513  0.00  0.00    +0.260 C 
ATOM      3  O   UNL     1      -3.201   0.643   3.461  0.00  0.00    -0.269 OA
ATOM      4  H   UNL     1      -2.264   1.480   0.639  0.00  0.00    +0.149 HD
ENDROOT
BRANCH   2   5
ATOM      5  C   UNL     1      -3.392   2.794   2.585  0.00  0.00    +0.103 A 
ATOM      6  C   UNL     1      -3.975   3.396   3.654  0.00  0.00    +0.041 A 
ATOM      7  C   UNL     1      -4.188   4.756   3.319  0.00  0.00    +0.003 A 
ATOM      8  C   UNL     1      -4.742   5.841   4.010  0.00  0.00    +0.042 A 
ATOM      9  C   UNL     1      -4.813   7.064   3.409  0.00  0.00    +0.127 A 
ATOM     10  C   UNL     1      -4.339   7.244   2.115  0.00  0.00    +0.035 A 
ATOM     11  C   UNL     1      -3.790   6.193   1.415  0.00  0.00    +0.028 A 
ATOM     12  C   UNL     1      -3.707   4.936   2.008  0.00  0.00    +0.047 A 
ATOM     13  N   UNL     1      -3.218   3.724   1.579  0.00  0.00    -0.351 N 
ATOM     14  H   UNL     1      -2.820   3.551   0.712  0.00  0.00    +0.166 HD
BRANCH   9  15
ATOM     15  N   UNL     1      -5.399   8.209   4.141  0.00  0.00    +0.056 N 
ATOM     16  O   UNL     1      -5.813   8.058   5.267  0.00  0.00    -0.126 OA
ATOM     17  O   UNL     1      -5.464   9.294   3.614  0.00  0.00    -0.126 OA
ENDBRANCH   9  15
ENDBRANCH   2   5
BRANCH   1  18
ATOM     18  C   UNL     1      -2.034  -0.516   1.324  0.00  0.00    +0.116 C 
BRANCH  18  19
ATOM     19  C   UNL     1      -1.362  -0.792  -0.023  0.00  0.00    +0.015 C 
ATOM     20  C   UNL     1      -2.362  -0.546  -1.157  0.00  0.00    +0.041 C 
ATOM     21  C   UNL     1      -3.526  -1.531  -1.023  0.00  0.00    +0.160 C 
ATOM     22  O   UNL     1      -3.022  -2.868  -1.048  0.00  0.00    -0.380 OA
ATOM     23  C   UNL     1      -2.118  -3.170   0.017  0.00  0.00    +0.160 C 
ATOM     24  C   UNL     1      -0.898  -2.251  -0.075  0.00  0.00    +0.041 C 
BRANCH  19  30
ATOM     25  C   UNL     1      -0.176   1.079  -1.187  0.00  0.00    +0.007 A 
ATOM     26  C   UNL     1       0.912   1.917  -1.342  0.00  0.00    +0.038 A 
ATOM     27  C   UNL     1       2.003   1.797  -0.498  0.00  0.00    +0.123 A 
ATOM     28  C   UNL     1       2.003   0.837   0.499  0.00  0.00    +0.038 A 
ATOM     29  C   UNL     1       0.914  -0.000   0.652  0.00  0.00    +0.007 A 
ATOM     30  C   UNL     1      -0.175   0.121  -0.191  0.00  0.00    -0.039 A 
ATOM     31  F   UNL     1       3.067   2.615  -0.649  0.00  0.00    -0.205 F 
ENDBRANCH  19  30
ENDBRANCH  18  19
ENDBRANCH   1  18
TORSDOF 5
