REMARK  Name = ZINC36998880
REMARK  9 active torsions:
REMARK  status: ('A' for Active; 'I' for Inactive)
REMARK    1  A    between atoms: C_1  and  C_2
REMARK    2  A    between atoms: C_7  and  C_24
REMARK    3  A    between atoms: N_12  and  C_16
REMARK    4  A    between atoms: C_16  and  C_17
REMARK    5  A    between atoms: C_17  and  C_19
REMARK    6  A    between atoms: C_17  and  N_23
REMARK    7  A    between atoms: C_19  and  C_20
REMARK    8  A    between atoms: C_19  and  C_21
REMARK    9  A    between atoms: C_19  and  C_22
REMARK                            x       y       z     vdW  Elec       q    Type
REMARK                         _______ _______ _______ _____ _____    ______ ____
ROOT
ATOM      1  C   UNL     1      -0.019   1.526   0.010  0.00  0.00    +0.010 C 
ATOM      2  C   UNL     1       0.002  -0.004   0.002  0.00  0.00    +0.019 C 
ATOM      3  C   UNL     1       0.718  -0.498  -1.258  0.00  0.00    +0.006 C 
ATOM      4  C   UNL     1       2.160   0.015  -1.257  0.00  0.00    +0.001 C 
ATOM      5  C   UNL     1       2.892  -0.516  -0.024  0.00  0.00    +0.006 C 
ATOM      6  C   UNL     1       2.184  -0.023   1.241  0.00  0.00    +0.019 C 
ATOM      7  C   UNL     1       0.739  -0.509   1.238  0.00  0.00    +0.118 C 
ATOM      8  C   UNL     1       0.029  -0.062   2.495  0.00  0.00    +0.247 C 
ATOM      9  O   UNL     1      -0.169   1.076   2.861  0.00  0.00    -0.273 OA
ATOM     10  N   UNL     1      -0.337  -1.198   3.124  0.00  0.00    -0.226 N 
ATOM     11  C   UNL     1       0.041  -2.285   2.441  0.00  0.00    +0.309 C 
ATOM     12  O   UNL     1      -0.176  -3.423   2.807  0.00  0.00    -0.252 OA
ATOM     13  N   UNL     1       0.690  -1.975   1.302  0.00  0.00    -0.284 N 
ATOM     14  C   UNL     1       2.904  -0.570   2.475  0.00  0.00    +0.010 C 
ATOM     15  H   UNL     1       1.053  -2.598   0.653  0.00  0.00    +0.151 HD
ENDROOT
BRANCH  10  16
ATOM     16  C   UNL     1      -1.060  -1.237   4.398  0.00  0.00    +0.102 C 
BRANCH  16  17
ATOM     17  C   UNL     1      -2.566  -1.239   4.130  0.00  0.00    -0.051 C 
BRANCH  17  18
ATOM     18  C   UNL     1      -3.321  -1.154   5.458  0.00  0.00    -0.049 C 
ATOM     19  C   UNL     1      -2.934   0.137   6.183  0.00  0.00    +0.009 C 
ATOM     20  C   UNL     1      -4.827  -1.156   5.190  0.00  0.00    +0.009 C 
ATOM     21  C   UNL     1      -2.956  -2.357   6.330  0.00  0.00    +0.009 C 
ENDBRANCH  17  18
BRANCH  17  22
ATOM     22  N   UNL     1      -2.917  -0.084   3.293  0.00  0.00    +0.381 N 
ATOM     23  H   UNL     1      -2.662   0.767   3.770  0.00  0.00    -0.090 HD
ATOM     24  H   UNL     1      -2.419  -0.140   2.417  0.00  0.00    -0.090 HD
ATOM     25  H   UNL     1      -3.910  -0.086   3.116  0.00  0.00    -0.090 HD
ENDBRANCH  17  22
ENDBRANCH  16  17
ENDBRANCH  10  16
TORSDOF 4
