REMARK  Name = ZINC01747154
REMARK  9 active torsions:
REMARK  status: ('A' for Active; 'I' for Inactive)
REMARK    1  A    between atoms: C_1  and  C_2
REMARK    2  A    between atoms: C_2  and  O_3
REMARK    3  A    between atoms: O_3  and  C_4
REMARK    4  A    between atoms: C_4  and  C_6
REMARK    5  A    between atoms: C_10  and  N_11
REMARK    6  A    between atoms: C_12  and  C_14
REMARK    7  A    between atoms: C_14  and  O_15
REMARK    8  A    between atoms: O_15  and  C_16
REMARK    9  A    between atoms: C_25  and  C_29
REMARK                            x       y       z     vdW  Elec       q    Type
REMARK                         _______ _______ _______ _____ _____    ______ ____
ROOT
ATOM      1  C   UNL     1       5.402   9.119  -0.004  0.00  0.00    +0.091 A 
ATOM      2  C   UNL     1       6.821   9.431  -0.016  0.00  0.00    -0.021 A 
ATOM      3  C   UNL     1       7.645   8.361  -0.029  0.00  0.00    -0.004 A 
ATOM      4  S   UNL     1       6.566   6.958  -0.018  0.00  0.00    -0.077 S 
ATOM      5  C   UNL     1       5.040   7.778  -0.007  0.00  0.00    +0.086 A 
ATOM      6  C   UNL     1       9.143   8.375  -0.042  0.00  0.00    +0.046 C 
ATOM      7  C   UNL     1       9.617   9.785   0.339  0.00  0.00    -0.009 C 
ATOM      8  C   UNL     1       8.832  10.809  -0.485  0.00  0.00    +0.008 C 
ATOM      9  C   UNL     1       7.377  10.850  -0.015  0.00  0.00    +0.037 C 
ATOM     10  C   UNL     1      11.112   9.921   0.043  0.00  0.00    +0.008 C 
ENDROOT
BRANCH   5  11
ATOM     11  N   UNL     1       3.767   7.229   0.003  0.00  0.00    -0.277 N 
ATOM     12  C   UNL     1       3.611   5.890  -0.003  0.00  0.00    +0.255 C 
ATOM     13  O   UNL     1       4.583   5.166  -0.016  0.00  0.00    -0.272 OA
ATOM     14  H   UNL     1       2.990   7.808   0.013  0.00  0.00    +0.155 HD
BRANCH  12  15
ATOM     15  C   UNL     1       2.227   5.294   0.008  0.00  0.00    +0.325 C 
BRANCH  15  16
ATOM     16  O   UNL     1       2.323   3.868  -0.000  0.00  0.00    -0.481 OA
BRANCH  16  17
ATOM     17  C   UNL     1       1.156   3.171   0.008  0.00  0.00    +0.141 A 
ATOM     18  C   UNL     1      -0.056   3.845   0.022  0.00  0.00    +0.067 A 
ATOM     19  C   UNL     1      -1.241   3.134   0.030  0.00  0.00    +0.045 A 
ATOM     20  C   UNL     1      -1.219   1.750   0.017  0.00  0.00    +0.021 A 
ATOM     21  C   UNL     1      -0.013   1.076   0.008  0.00  0.00    +0.025 A 
ATOM     22  C   UNL     1       1.176   1.783   0.000  0.00  0.00    +0.083 A 
ATOM     23 CL   UNL     1       2.691   0.935  -0.018  0.00  0.00    -0.080 Cl
ATOM     24 CL   UNL     1      -2.759   3.977   0.048  0.00  0.00    -0.083 Cl
ENDBRANCH  16  17
ENDBRANCH  15  16
ENDBRANCH  12  15
ENDBRANCH   5  11
BRANCH   1  25
ATOM     25  C   UNL     1       4.391  10.178   0.012  0.00  0.00    +0.342 C 
ATOM     26  O   UNL     1       3.982  10.612   1.072  0.00  0.00    -0.245 OA
BRANCH  25  27
ATOM     27  O   UNL     1       3.914  10.672  -1.149  0.00  0.00    -0.461 OA
BRANCH  27  29
ATOM     28  C   UNL     1       2.497  12.152  -2.465  0.00  0.00    +0.048 C 
ATOM     29  C   UNL     1       2.914  11.721  -1.058  0.00  0.00    +0.229 C 
ENDBRANCH  27  29
ENDBRANCH  25  27
ENDBRANCH   1  25
TORSDOF 7
