REMARK  Name = ZINC67345228
REMARK  8 active torsions:
REMARK  status: ('A' for Active; 'I' for Inactive)
REMARK    1  A    between atoms: C_1  and  C_2
REMARK    2  A    between atoms: N_7  and  C_9
REMARK    3  A    between atoms: C_9  and  C_11
REMARK    4  A    between atoms: C_9  and  C_12
REMARK    5  A    between atoms: C_12  and  N_13
REMARK    6  A    between atoms: C_14  and  C_16
REMARK    7  A    between atoms: N_18  and  C_19
REMARK    8  A    between atoms: N_18  and  C_20
REMARK                            x       y       z     vdW  Elec       q    Type
REMARK                         _______ _______ _______ _____ _____    ______ ____
ROOT
ATOM      1  N   UNL     1       1.986  -4.564   1.350  0.00  0.00    -0.309 N 
ATOM      2  C   UNL     1       1.959  -5.896   1.144  0.00  0.00    +0.299 C 
ATOM      3  O   UNL     1       1.375  -6.619   1.924  0.00  0.00    -0.265 OA
ATOM      4  H   UNL     1       2.453  -3.986   0.726  0.00  0.00    +0.149 HD
ENDROOT
BRANCH   2   5
ATOM      5  C   UNL     1       2.648  -6.482  -0.044  0.00  0.00    +0.305 C 
ATOM      6  O   UNL     1       3.174  -5.754  -0.861  0.00  0.00    -0.265 OA
ATOM      7  N   UNL     1       2.686  -7.819  -0.209  0.00  0.00    -0.266 N 
ATOM      8  C   UNL     1       3.454  -8.399  -1.314  0.00  0.00    +0.139 C 
BRANCH   7   9
ATOM      9  C   UNL     1       1.995  -8.650   0.670  0.00  0.00    +0.044 A 
ATOM     10  C   UNL     1       0.690  -9.010   0.408  0.00  0.00    +0.024 A 
ATOM     11  C   UNL     1      -0.009  -9.839   1.280  0.00  0.00    +0.002 A 
ATOM     12  C   UNL     1       0.574 -10.316   2.414  0.00  0.00    +0.008 A 
ATOM     13  C   UNL     1       1.902  -9.973   2.719  0.00  0.00    -0.016 A 
ATOM     14  C   UNL     1       2.626  -9.135   1.836  0.00  0.00    +0.004 A 
ATOM     15  C   UNL     1       3.954  -8.798   2.139  0.00  0.00    +0.010 A 
ATOM     16  C   UNL     1       4.531  -9.284   3.273  0.00  0.00    +0.001 A 
ATOM     17  C   UNL     1       3.822 -10.114   4.139  0.00  0.00    +0.001 A 
ATOM     18  C   UNL     1       2.528 -10.451   3.883  0.00  0.00    +0.008 A 
ENDBRANCH   7   9
ENDBRANCH   2   5
BRANCH   1  19
ATOM     19  C   UNL     1       1.310  -3.989   2.515  0.00  0.00    +0.089 C 
BRANCH  19  20
ATOM     20  C   UNL     1       1.379  -2.462   2.443  0.00  0.00    -0.054 C 
ATOM     21  C   UNL     1       0.551  -1.860   3.580  0.00  0.00    -0.012 C 
BRANCH  20  27
ATOM     22  C   UNL     1      -2.614  -2.310  -0.386  0.00  0.00    +0.005 C 
ATOM     23  C   UNL     1      -1.128  -1.954  -0.303  0.00  0.00    -0.031 C 
ATOM     24  C   UNL     1      -0.952  -0.445  -0.499  0.00  0.00    -0.001 C 
ATOM     25  C   UNL     1       0.528  -0.088  -0.336  0.00  0.00    -0.018 C 
ATOM     26  C   UNL     1       1.012  -0.555   1.038  0.00  0.00    -0.078 C 
ATOM     27  N   UNL     1       0.842  -2.008   1.153  0.00  0.00    +0.383 N 
ATOM     28  C   UNL     1      -0.583  -2.353   1.070  0.00  0.00    -0.075 C 
ATOM     29  H   UNL     1       1.341  -2.465   0.404  0.00  0.00    -0.081 HD
ENDBRANCH  20  27
ENDBRANCH  19  20
ENDBRANCH   1  19
TORSDOF 5
