REMARK  Name = ZINC43979108
REMARK  7 active torsions:
REMARK  status: ('A' for Active; 'I' for Inactive)
REMARK    1  A    between atoms: C_1  and  C_2
REMARK    2  A    between atoms: C_2  and  C_3
REMARK    3  A    between atoms: C_2  and  C_4
REMARK    4  A    between atoms: C_2  and  N_5
REMARK    5  A    between atoms: C_11  and  C_14
REMARK    6  A    between atoms: C_14  and  N_15
REMARK    7  A    between atoms: N_18  and  C_19
REMARK                            x       y       z     vdW  Elec       q    Type
REMARK                         _______ _______ _______ _____ _____    ______ ____
ROOT
ATOM      1  N   UNL     1       0.688  -0.477  -1.203  0.00  0.00    -0.294 N 
ATOM      2  C   UNL     1       1.972  -0.132  -1.427  0.00  0.00    +0.303 C 
ATOM      3  O   UNL     1       2.532   0.644  -0.678  0.00  0.00    -0.253 OA
ATOM      4  N   UNL     1       2.633  -0.647  -2.482  0.00  0.00    -0.286 N 
ATOM      5  C   UNL     1       1.938  -1.494  -3.461  0.00  0.00    +0.109 C 
ATOM      6  C   UNL     1       2.703  -2.813  -3.604  0.00  0.00    +0.024 C 
ATOM      7  C   UNL     1       4.163  -2.516  -3.954  0.00  0.00    +0.009 C 
ATOM      8  C   UNL     1       4.805  -1.705  -2.827  0.00  0.00    +0.024 C 
ATOM      9  C   UNL     1       4.063  -0.369  -2.678  0.00  0.00    +0.109 C 
ATOM     10  H   UNL     1       0.218  -1.038  -1.839  0.00  0.00    +0.151 HD
ENDROOT
BRANCH   1  12
ATOM     11  C   UNL     1      -0.019   1.525   0.011  0.00  0.00    +0.031 C 
ATOM     12  C   UNL     1       0.003  -0.005   0.003  0.00  0.00    +0.028 C 
ATOM     13  C   UNL     1       0.743  -0.511   1.242  0.00  0.00    +0.031 C 
ATOM     14  C   UNL     1      -1.433  -0.535   0.014  0.00  0.00    +0.031 C 
ENDBRANCH   1  12
BRANCH   7  15
ATOM     15  C   UNL     1       4.922  -3.833  -4.132  0.00  0.00    +0.109 C 
BRANCH  15  16
ATOM     16  N   UNL     1       6.288  -3.552  -4.583  0.00  0.00    -0.299 N 
ATOM     17  C   UNL     1       7.146  -4.567  -4.807  0.00  0.00    +0.300 C 
ATOM     18  O   UNL     1       6.786  -5.715  -4.635  0.00  0.00    -0.253 OA
ATOM     19  N   UNL     1       8.401  -4.308  -5.223  0.00  0.00    -0.297 N 
ATOM     20  H   UNL     1       6.574  -2.635  -4.721  0.00  0.00    +0.150 HD
ATOM     21  H   UNL     1       8.688  -3.392  -5.360  0.00  0.00    +0.151 HD
BRANCH  19  22
ATOM     22  C   UNL     1       9.334  -5.412  -5.466  0.00  0.00    +0.074 C 
ATOM     23  C   UNL     1       9.132  -5.947  -6.885  0.00  0.00    +0.022 C 
ATOM     24  C   UNL     1      10.105  -7.099  -7.140  0.00  0.00    +0.002 C 
ATOM     25  C   UNL     1      11.542  -6.596  -6.984  0.00  0.00    +0.000 C 
ATOM     26  C   UNL     1      11.744  -6.061  -5.565  0.00  0.00    +0.002 C 
ATOM     27  C   UNL     1      10.771  -4.909  -5.311  0.00  0.00    +0.022 C 
ENDBRANCH  19  22
ENDBRANCH  15  16
ENDBRANCH   7  15
TORSDOF 4
