REMARK  Name = ZINC04132387
REMARK  5 active torsions:
REMARK  status: ('A' for Active; 'I' for Inactive)
REMARK    1  A    between atoms: C_1  and  C_2
REMARK    2  A    between atoms: C_2  and  O_3
REMARK    3  A    between atoms: O_3  and  C_4
REMARK    4  A    between atoms: C_8  and  N_10
REMARK    5  A    between atoms: C_14  and  C_23
REMARK                            x       y       z     vdW  Elec       q    Type
REMARK                         _______ _______ _______ _____ _____    ______ ____
ROOT
ATOM      1  C   UNL     1      -4.666  -1.085  -0.011  0.00  0.00    +0.123 A 
ATOM      2  C   UNL     1      -4.144   0.187  -0.173  0.00  0.00    +0.051 A 
ATOM      3  C   UNL     1      -3.014   0.392  -0.953  0.00  0.00    -0.014 A 
ATOM      4  C   UNL     1      -2.408  -0.687  -1.568  0.00  0.00    +0.062 A 
ATOM      5  C   UNL     1      -2.934  -1.968  -1.405  0.00  0.00    +0.151 A 
ATOM      6  C   UNL     1      -4.058  -2.167  -0.630  0.00  0.00    +0.080 A 
ATOM      7  N   UNL     1      -1.265  -0.546  -2.361  0.00  0.00    -0.335 N 
ATOM      8  C   UNL     1      -1.191   0.768  -2.967  0.00  0.00    +0.105 C 
ATOM      9  C   UNL     1      -1.200   1.855  -1.905  0.00  0.00    +0.029 C 
ATOM     10  C   UNL     1      -2.506   1.804  -1.086  0.00  0.00    +0.049 C 
ATOM     11  C   UNL     1      -2.076   2.297   0.285  0.00  0.00    -0.023 C 
ATOM     12  C   UNL     1      -0.780   2.152   0.444  0.00  0.00    -0.030 C 
ATOM     13  C   UNL     1      -0.164   1.538  -0.799  0.00  0.00    +0.033 C 
ATOM     14  H   UNL     1      -1.217  -1.273  -3.058  0.00  0.00    +0.147 HD
ENDROOT
BRANCH   8  15
ATOM     15  C   UNL     1      -2.384   0.942  -3.871  0.00  0.00    -0.027 A 
ATOM     16  C   UNL     1      -2.931  -0.154  -4.512  0.00  0.00    +0.007 A 
ATOM     17  C   UNL     1      -4.029   0.004  -5.337  0.00  0.00    +0.020 A 
ATOM     18  C   UNL     1      -4.572   1.262  -5.530  0.00  0.00    +0.041 A 
ATOM     19  C   UNL     1      -4.021   2.359  -4.894  0.00  0.00    +0.020 A 
ATOM     20  C   UNL     1      -2.926   2.199  -4.065  0.00  0.00    +0.007 A 
ATOM     21 CL   UNL     1      -5.947   1.462  -6.571  0.00  0.00    -0.084 Cl
ENDBRANCH   8  15
BRANCH   5  22
ATOM     22  N   UNL     1      -2.283  -3.120  -2.067  0.00  0.00    +0.058 N 
ATOM     23  O   UNL     1      -2.962  -4.022  -2.526  0.00  0.00    -0.126 OA
ATOM     24  O   UNL     1      -1.069  -3.168  -2.152  0.00  0.00    -0.126 OA
ENDBRANCH   5  22
BRANCH   1  25
ATOM     25  O   UNL     1      -5.774  -1.274   0.755  0.00  0.00    -0.492 OA
BRANCH  25  27
ATOM     26  C   UNL     1      -7.500  -2.627   1.771  0.00  0.00    +0.048 C 
ATOM     27  C   UNL     1      -6.257  -2.613   0.879  0.00  0.00    +0.225 C 
ENDBRANCH  25  27
ENDBRANCH   1  25
TORSDOF 4
