REMARK  Name = ZINC11694237
REMARK  8 active torsions:
REMARK  status: ('A' for Active; 'I' for Inactive)
REMARK    1  A    between atoms: C_1  and  C_2
REMARK    2  A    between atoms: C_4  and  C_7
REMARK    3  A    between atoms: N_9  and  C_10
REMARK    4  A    between atoms: C_10  and  C_11
REMARK    5  A    between atoms: C_11  and  C_12
REMARK    6  A    between atoms: C_12  and  N_44
REMARK    7  A    between atoms: C_13  and  N_44
REMARK    8  A    between atoms: C_14  and  N_44
REMARK                            x       y       z     vdW  Elec       q    Type
REMARK                         _______ _______ _______ _____ _____    ______ ____
ROOT
ATOM      1  C   UNL     1      -0.025  -0.801  -2.300  0.00  0.00    +0.290 C 
ATOM      2  O   UNL     1       0.536  -1.267  -3.273  0.00  0.00    -0.266 OA
ATOM      3  N   UNL     1       0.686  -0.489  -1.198  0.00  0.00    -0.244 N 
ATOM      4  C   UNL     1       2.066  -0.597  -1.211  0.00  0.00    +0.169 A 
ATOM      5  N   UNL     1       2.853  -0.980  -2.189  0.00  0.00    -0.221 NA
ATOM      6  C   UNL     1       4.197  -1.038  -2.059  0.00  0.00    +0.116 A 
ATOM      7  C   UNL     1       5.152  -1.429  -3.028  0.00  0.00    +0.152 A 
ATOM      8  C   UNL     1       6.492  -1.431  -2.731  0.00  0.00    +0.079 A 
ATOM      9  C   UNL     1       6.957  -1.051  -1.478  0.00  0.00    +0.127 A 
ATOM     10  C   UNL     1       6.050  -0.663  -0.508  0.00  0.00    +0.055 A 
ATOM     11  C   UNL     1       4.707  -0.658  -0.798  0.00  0.00    +0.046 A 
ATOM     12  S   UNL     1       3.230  -0.242   0.098  0.00  0.00    -0.052 S 
ATOM     13  F   UNL     1       8.281  -1.062  -1.210  0.00  0.00    -0.205 F 
ATOM     14  F   UNL     1       4.740  -1.806  -4.258  0.00  0.00    -0.203 F 
ENDROOT
BRANCH   1  18
ATOM     15  C   UNL     1      -4.934  -0.631  -3.547  0.00  0.00    +0.069 C 
ATOM     16  C   UNL     1      -3.607  -0.493  -2.846  0.00  0.00    +0.081 A 
ATOM     17  C   UNL     1      -2.352  -0.937  -3.319  0.00  0.00    +0.080 A 
ATOM     18  C   UNL     1      -1.482  -0.576  -2.326  0.00  0.00    +0.222 A 
ATOM     19  O   UNL     1      -2.226   0.020  -1.376  0.00  0.00    -0.350 OA
ATOM     20  N   UNL     1      -3.393   0.059  -1.688  0.00  0.00    -0.083 NA
ENDBRANCH   1  18
BRANCH   3  21
ATOM     21  C   UNL     1      -0.003  -0.036   0.013  0.00  0.00    +0.114 C 
BRANCH  21  22
ATOM     22  C   UNL     1      -0.203   1.479  -0.050  0.00  0.00    +0.001 C 
BRANCH  22  23
ATOM     23  C   UNL     1      -0.922   1.952   1.215  0.00  0.00    -0.078 C 
BRANCH  23  26
ATOM     24  C   UNL     1      -2.037   3.771   0.071  0.00  0.00    -0.097 C 
ATOM     25  C   UNL     1      -1.583   3.930   2.444  0.00  0.00    -0.097 C 
ATOM     26  N   UNL     1      -1.089   3.419   1.149  0.00  0.00    +0.376 N 
ATOM     27  H   UNL     1      -0.179   3.849   0.946  0.00  0.00    -0.083 HD
ENDBRANCH  23  26
ENDBRANCH  22  23
ENDBRANCH  21  22
ENDBRANCH   3  21
TORSDOF 5
