REMARK  Name = ZINC42352203
REMARK  6 active torsions:
REMARK  status: ('A' for Active; 'I' for Inactive)
REMARK    1  A    between atoms: C_1  and  C_2
REMARK    2  A    between atoms: C_2  and  C_3
REMARK    3  A    between atoms: C_2  and  C_4
REMARK    4  A    between atoms: C_2  and  C_5
REMARK    5  A    between atoms: C_5  and  C_7
REMARK    6  A    between atoms: C_5  and  O_19
REMARK                            x       y       z     vdW  Elec       q    Type
REMARK                         _______ _______ _______ _____ _____    ______ ____
ROOT
ATOM      1  C   UNL     1       2.132   0.024  -1.268  0.00  0.00    +0.003 A 
ATOM      2  C   UNL     1       3.161  -0.762  -0.780  0.00  0.00    +0.057 A 
ATOM      3  C   UNL     1       4.458  -0.280  -0.792  0.00  0.00    +0.162 A 
ATOM      4  C   UNL     1       4.725   0.988  -1.290  0.00  0.00    +0.163 A 
ATOM      5  C   UNL     1       3.694   1.772  -1.778  0.00  0.00    +0.069 A 
ATOM      6  C   UNL     1       2.398   1.285  -1.770  0.00  0.00    +0.050 A 
ATOM      7 CL   UNL     1       1.102   2.262  -2.387  0.00  0.00    -0.083 Cl
ATOM      8  O   UNL     1       6.008   1.453  -1.298  0.00  0.00    -0.488 OA
ATOM      9  C   UNL     1       6.583   1.721  -0.018  0.00  0.00    +0.232 C 
ATOM     10  C   UNL     1       7.165   0.454   0.588  0.00  0.00    +0.082 C 
ATOM     11  C   UNL     1       6.098  -0.586   0.890  0.00  0.00    +0.232 C 
ATOM     12  O   UNL     1       5.482  -1.046  -0.315  0.00  0.00    -0.488 OA
ENDROOT
BRANCH   1  13
ATOM     13  C   UNL     1       0.718  -0.497  -1.257  0.00  0.00    +0.151 C 
BRANCH  13  15
ATOM     14  C   UNL     1      -0.019   1.526   0.010  0.00  0.00    +0.013 C 
ATOM     15  C   UNL     1       0.002  -0.004   0.002  0.00  0.00    -0.008 C 
ATOM     16  C   UNL     1       0.742  -0.511   1.242  0.00  0.00    +0.013 C 
ATOM     17  C   UNL     1      -1.433  -0.534   0.013  0.00  0.00    +0.013 C 
ENDBRANCH  13  15
BRANCH  13  18
ATOM     18  O   UNL     1       0.738  -1.926  -1.265  0.00  0.00    -0.387 OA
ATOM     19  H   UNL     1       1.192  -2.318  -0.506  0.00  0.00    +0.210 HD
ENDBRANCH  13  18
ENDBRANCH   1  13
TORSDOF 3
