REMARK  Name = ZINC35769544
REMARK  4 active torsions:
REMARK  status: ('A' for Active; 'I' for Inactive)
REMARK    1  A    between atoms: C_6  and  C_7
REMARK    2  A    between atoms: C_7  and  C_8
REMARK    3  A    between atoms: C_16  and  C_19
REMARK    4  A    between atoms: C_24  and  C_27
REMARK                            x       y       z     vdW  Elec       q    Type
REMARK                         _______ _______ _______ _____ _____    ______ ____
ROOT
ATOM      1  C   UNL     1      -1.732  -1.016  -1.412  0.00  0.00    +0.145 A 
ATOM      2  N   UNL     1      -2.509  -0.156  -2.033  0.00  0.00    -0.208 NA
ATOM      3  C   UNL     1      -2.857  -0.431  -3.280  0.00  0.00    +0.181 A 
ATOM      4  S   UNL     1      -2.084  -1.898  -3.557  0.00  0.00    +0.049 S 
ATOM      5  N   UNL     1      -1.346  -2.085  -2.063  0.00  0.00    -0.192 NA
ATOM      6  N   UNL     1      -3.656   0.302  -4.138  0.00  0.00    -0.308 N 
ATOM      7  C   UNL     1      -4.243   1.578  -3.707  0.00  0.00    +0.108 C 
ATOM      8  C   UNL     1      -5.757   1.528  -3.940  0.00  0.00    +0.032 C 
ATOM      9  C   UNL     1      -6.032   1.171  -5.402  0.00  0.00    +0.078 C 
ATOM     10  C   UNL     1      -5.450  -0.210  -5.711  0.00  0.00    +0.032 C 
ATOM     11  C   UNL     1      -3.928  -0.177  -5.500  0.00  0.00    +0.108 C 
ENDROOT
BRANCH   9  12
ATOM     12  C   UNL     1      -7.519   1.154  -5.643  0.00  0.00    +0.219 C 
ATOM     13  O   UNL     1      -8.271   0.777  -4.769  0.00  0.00    -0.275 OA
ATOM     14  N   UNL     1      -8.015   1.558  -6.830  0.00  0.00    -0.301 N 
ATOM     15  C   UNL     1      -7.114   1.899  -7.940  0.00  0.00    +0.108 C 
ATOM     16  C   UNL     1      -7.521   1.086  -9.173  0.00  0.00    +0.032 C 
ATOM     17  C   UNL     1      -9.003   1.325  -9.470  0.00  0.00    +0.078 C 
ATOM     18  C   UNL     1      -9.846   0.855  -8.282  0.00  0.00    +0.032 C 
ATOM     19  C   UNL     1      -9.465   1.659  -7.041  0.00  0.00    +0.108 C 
BRANCH  17  20
ATOM     20  C   UNL     1      -9.399   0.553 -10.702  0.00  0.00    +0.214 C 
ATOM     21  O   UNL     1      -8.577  -0.121 -11.286  0.00  0.00    -0.276 OA
ATOM     22  N   UNL     1     -10.667   0.612 -11.157  0.00  0.00    -0.329 N 
ATOM     23  H   UNL     1     -11.324   1.152 -10.690  0.00  0.00    +0.145 HD
ATOM     24  H   UNL     1     -10.921   0.116 -11.950  0.00  0.00    +0.145 HD
ENDBRANCH  17  20
ENDBRANCH   9  12
BRANCH   1  25
ATOM     25  C   UNL     1      -1.291  -0.774   0.008  0.00  0.00    +0.112 C 
BRANCH  25  31
ATOM     26  C   UNL     1      -0.030   1.387   0.027  0.00  0.00    +0.007 A 
ATOM     27  C   UNL     1       1.152   2.103   0.027  0.00  0.00    +0.038 A 
ATOM     28  C   UNL     1       2.365   1.436   0.009  0.00  0.00    +0.123 A 
ATOM     29  C   UNL     1       2.392   0.052  -0.009  0.00  0.00    +0.038 A 
ATOM     30  C   UNL     1       1.209  -0.662  -0.009  0.00  0.00    +0.007 A 
ATOM     31  C   UNL     1      -0.002   0.005   0.009  0.00  0.00    -0.040 A 
ATOM     32  F   UNL     1       3.521   2.135   0.009  0.00  0.00    -0.205 F 
ENDBRANCH  25  31
ENDBRANCH   1  25
TORSDOF 4
