REMARK  Name = ZINC64061297
REMARK  8 active torsions:
REMARK  status: ('A' for Active; 'I' for Inactive)
REMARK    1  A    between atoms: C_1  and  O_2
REMARK    2  A    between atoms: O_2  and  C_3
REMARK    3  A    between atoms: C_6  and  C_11
REMARK    4  A    between atoms: C_7  and  O_9
REMARK    5  A    between atoms: O_9  and  C_10
REMARK    6  A    between atoms: C_11  and  N_12
REMARK    7  A    between atoms: C_25  and  C_27
REMARK    8  A    between atoms: C_31  and  O_33
REMARK                            x       y       z     vdW  Elec       q    Type
REMARK                         _______ _______ _______ _____ _____    ______ ____
ROOT
ATOM      1  N   UNL     1       1.486  -2.933  -5.351  0.00  0.00    -0.289 NA
ATOM      2  C   UNL     1       0.749  -1.788  -5.892  0.00  0.00    +0.090 C 
ATOM      3  C   UNL     1      -0.478  -2.272  -6.688  0.00  0.00    +0.049 C 
ATOM      4  C   UNL     1       0.029  -3.326  -7.641  0.00  0.00    -0.035 C 
ATOM      5  C   UNL     1      -0.134  -3.503  -8.944  0.00  0.00    -0.001 A 
ATOM      6  C   UNL     1      -0.984  -2.816  -9.930  0.00  0.00    +0.010 A 
ATOM      7  C   UNL     1      -0.881  -3.248 -11.215  0.00  0.00    +0.001 A 
ATOM      8  C   UNL     1      -0.029  -4.283 -11.613  0.00  0.00    +0.002 A 
ATOM      9  C   UNL     1       0.779  -4.977 -10.772  0.00  0.00    +0.026 A 
ATOM     10  C   UNL     1       0.752  -4.621  -9.393  0.00  0.00    +0.043 A 
ATOM     11  N   UNL     1       1.391  -5.130  -8.380  0.00  0.00    -0.376 N 
ATOM     12  C   UNL     1       0.936  -4.457  -7.166  0.00  0.00    +0.128 C 
ATOM     13  C   UNL     1       2.075  -3.791  -6.391  0.00  0.00    +0.114 C 
ATOM     14  H   UNL     1       2.054  -5.837  -8.424  0.00  0.00    +0.160 HD
ENDROOT
BRANCH  13  15
ATOM     15  C   UNL     1       2.939  -4.847  -5.750  0.00  0.00    -0.025 A 
ATOM     16  C   UNL     1       2.522  -5.467  -4.586  0.00  0.00    +0.005 A 
ATOM     17  C   UNL     1       3.312  -6.436  -3.996  0.00  0.00    +0.004 A 
ATOM     18  C   UNL     1       4.520  -6.786  -4.566  0.00  0.00    +0.045 A 
ATOM     19  C   UNL     1       4.941  -6.166  -5.734  0.00  0.00    +0.117 A 
ATOM     20  C   UNL     1       4.143  -5.198  -6.328  0.00  0.00    +0.050 A 
BRANCH  19  21
ATOM     21  O   UNL     1       6.129  -6.509  -6.297  0.00  0.00    -0.507 OA
ATOM     22  H   UNL     1       6.066  -7.231  -6.938  0.00  0.00    +0.292 HD
ENDBRANCH  19  21
ENDBRANCH  13  15
BRANCH   1  23
ATOM     23  C   UNL     1       2.507  -2.495  -4.390  0.00  0.00    +0.124 C 
BRANCH  23  27
ATOM     24  C   UNL     1       0.606  -0.607  -1.056  0.00  0.00    +0.124 A 
ATOM     25  C   UNL     1       1.173   0.162  -2.062  0.00  0.00    +0.046 A 
ATOM     26  C   UNL     1       1.787  -0.451  -3.138  0.00  0.00    +0.012 A 
ATOM     27  C   UNL     1       1.837  -1.830  -3.215  0.00  0.00    +0.008 A 
ATOM     28  C   UNL     1       1.272  -2.603  -2.211  0.00  0.00    +0.128 A 
ATOM     29  C   UNL     1       0.660  -1.990  -1.127  0.00  0.00    +0.091 A 
BRANCH  24  31
ATOM     30  C   UNL     1      -0.017   1.425   0.010  0.00  0.00    +0.277 C 
ATOM     31  O   UNL     1       0.002  -0.004   0.002  0.00  0.00    -0.495 OA
ENDBRANCH  24  31
BRANCH  28  32
ATOM     32  O   UNL     1       1.322  -3.959  -2.286  0.00  0.00    -0.495 OA
ATOM     33  C   UNL     1       0.719  -4.691  -1.217  0.00  0.00    +0.277 C 
ENDBRANCH  28  32
ENDBRANCH  23  27
ENDBRANCH   1  23
TORSDOF 6
