REMARK  Name = ZINC46634352
REMARK  6 active torsions:
REMARK  status: ('A' for Active; 'I' for Inactive)
REMARK    1  A    between atoms: C_1  and  C_2
REMARK    2  A    between atoms: C_4  and  C_14
REMARK    3  A    between atoms: C_6  and  C_11
REMARK    4  A    between atoms: C_22  and  C_24
REMARK    5  A    between atoms: C_27  and  O_30
REMARK    6  A    between atoms: O_30  and  C_31
REMARK                            x       y       z     vdW  Elec       q    Type
REMARK                         _______ _______ _______ _____ _____    ______ ____
ROOT
ATOM      1  C   UNL     1      -0.160   0.837  -2.879  0.00  0.00    +0.248 C 
ATOM      2  O   UNL     1       0.032   1.758  -2.110  0.00  0.00    -0.270 OA
ATOM      3  N   UNL     1      -0.371   1.083  -4.187  0.00  0.00    -0.290 N 
ATOM      4  C   UNL     1      -0.678  -0.051  -5.080  0.00  0.00    +0.109 C 
ATOM      5  C   UNL     1       0.066   0.050  -6.424  0.00  0.00    +0.019 C 
ATOM      6  C   UNL     1       1.477   0.535  -6.200  0.00  0.00    +0.002 C 
ATOM      7  C   UNL     1       1.513   2.056  -6.315  0.00  0.00    +0.002 C 
ATOM      8  C   UNL     1       1.169   2.766  -5.073  0.00  0.00    +0.027 C 
ATOM      9  C   UNL     1      -0.293   2.448  -4.656  0.00  0.00    +0.107 C 
ENDROOT
BRANCH   1  13
ATOM     10  C   UNL     1       2.747   0.858  -1.538  0.00  0.00    +0.070 C 
ATOM     11  C   UNL     1       2.240  -0.536  -1.272  0.00  0.00    +0.091 A 
ATOM     12  C   UNL     1       0.944  -1.079  -1.678  0.00  0.00    +0.076 A 
ATOM     13  C   UNL     1      -0.161  -0.556  -2.378  0.00  0.00    +0.053 A 
ATOM     14  C   UNL     1      -1.256  -1.395  -2.584  0.00  0.00    +0.037 A 
ATOM     15  C   UNL     1      -1.214  -2.692  -2.098  0.00  0.00    +0.049 A 
ATOM     16  N   UNL     1      -0.168  -3.153  -1.447  0.00  0.00    -0.215 NA
ATOM     17  C   UNL     1       0.902  -2.406  -1.220  0.00  0.00    +0.259 A 
ATOM     18  O   UNL     1       2.072  -2.641  -0.592  0.00  0.00    -0.334 OA
ATOM     19  N   UNL     1       2.875  -1.478  -0.644  0.00  0.00    -0.080 NA
BRANCH  15  20
ATOM     20  C   UNL     1      -2.398  -3.598  -2.321  0.00  0.00    +0.038 C 
ATOM     21  C   UNL     1      -3.721  -2.944  -2.725  0.00  0.00    +0.010 C 
ATOM     22  C   UNL     1      -3.549  -3.515  -1.316  0.00  0.00    +0.010 C 
ENDBRANCH  15  20
ENDBRANCH   1  13
BRANCH   9  23
ATOM     23  C   UNL     1      -0.722   3.383  -3.555  0.00  0.00    -0.027 A 
ATOM     24  C   UNL     1       0.186   4.276  -3.015  0.00  0.00    +0.009 A 
ATOM     25  C   UNL     1      -0.204   5.133  -2.005  0.00  0.00    +0.046 A 
ATOM     26  C   UNL     1      -1.508   5.098  -1.532  0.00  0.00    +0.120 A 
ATOM     27  C   UNL     1      -2.417   4.202  -2.075  0.00  0.00    +0.046 A 
ATOM     28  C   UNL     1      -2.023   3.350  -3.089  0.00  0.00    +0.009 A 
BRANCH  26  29
ATOM     29  O   UNL     1      -1.894   5.941  -0.538  0.00  0.00    -0.495 OA
ATOM     30  C   UNL     1      -3.252   5.849  -0.100  0.00  0.00    +0.277 C 
ENDBRANCH  26  29
ENDBRANCH   9  23
TORSDOF 4
