REMARK  Name = ZINC57646914
REMARK  7 active torsions:
REMARK  status: ('A' for Active; 'I' for Inactive)
REMARK    1  A    between atoms: C_1  and  C_2
REMARK    2  A    between atoms: C_2  and  C_3
REMARK    3  A    between atoms: C_3  and  C_24
REMARK    4  A    between atoms: N_6  and  C_10
REMARK    5  A    between atoms: C_10  and  C_11
REMARK    6  A    between atoms: C_11  and  C_12
REMARK    7  A    between atoms: C_12  and  N_13
REMARK                            x       y       z     vdW  Elec       q    Type
REMARK                         _______ _______ _______ _____ _____    ______ ____
ROOT
ATOM      1  C   UNL     1       0.718  -0.497  -1.257  0.00  0.00    +0.138 C 
ATOM      2  C   UNL     1       0.081   0.093  -2.499  0.00  0.00    +0.251 C 
ATOM      3  O   UNL     1      -1.061  -0.057  -2.878  0.00  0.00    -0.272 OA
ATOM      4  N   UNL     1       1.047   0.819  -3.095  0.00  0.00    -0.224 N 
ATOM      5  C   UNL     1       2.195   0.770  -2.408  0.00  0.00    +0.310 C 
ATOM      6  O   UNL     1       3.210   1.345  -2.748  0.00  0.00    -0.252 OA
ATOM      7  N   UNL     1       2.099   0.013  -1.301  0.00  0.00    -0.281 N 
ATOM      8  H   UNL     1       2.803  -0.163  -0.657  0.00  0.00    +0.152 HD
ENDROOT
BRANCH   1   9
ATOM      9  C   UNL     1       0.707  -2.003  -1.315  0.00  0.00    -0.015 A 
ATOM     10  C   UNL     1      -0.340  -2.709  -0.752  0.00  0.00    +0.006 A 
ATOM     11  C   UNL     1      -0.350  -4.090  -0.806  0.00  0.00    +0.000 A 
ATOM     12  C   UNL     1       0.686  -4.766  -1.424  0.00  0.00    +0.000 A 
ATOM     13  C   UNL     1       1.732  -4.060  -1.988  0.00  0.00    +0.000 A 
ATOM     14  C   UNL     1       1.740  -2.679  -1.938  0.00  0.00    +0.006 A 
ENDBRANCH   1   9
BRANCH   1  16
ATOM     15  C   UNL     1      -0.019   1.526   0.010  0.00  0.00    +0.007 C 
ATOM     16  C   UNL     1       0.002  -0.004   0.002  0.00  0.00    +0.037 C 
ENDBRANCH   1  16
BRANCH   4  17
ATOM     17  C   UNL     1       0.864   1.569  -4.340  0.00  0.00    +0.119 C 
BRANCH  17  18
ATOM     18  C   UNL     1       0.396   2.989  -4.016  0.00  0.00    +0.039 C 
BRANCH  18  19
ATOM     19  C   UNL     1       0.205   3.772  -5.317  0.00  0.00    +0.118 C 
BRANCH  19  20
ATOM     20  N   UNL     1      -0.243   5.131  -5.007  0.00  0.00    -0.234 N 
ATOM     21  C   UNL     1      -1.532   5.500  -4.888  0.00  0.00    +0.254 C 
ATOM     22  O   UNL     1      -2.493   4.769  -5.019  0.00  0.00    -0.270 OA
ATOM     23  C   UNL     1      -1.582   6.943  -4.571  0.00  0.00    +0.049 A 
ATOM     24  C   UNL     1      -2.605   7.848  -4.342  0.00  0.00    +0.014 A 
ATOM     25  C   UNL     1      -2.302   9.171  -4.062  0.00  0.00    +0.001 A 
ATOM     26  C   UNL     1      -0.987   9.593  -4.009  0.00  0.00    +0.001 A 
ATOM     27  C   UNL     1       0.048   8.698  -4.236  0.00  0.00    +0.014 A 
ATOM     28  C   UNL     1      -0.240   7.372  -4.517  0.00  0.00    +0.049 A 
ATOM     29  C   UNL     1       0.580   6.175  -4.798  0.00  0.00    +0.254 C 
ATOM     30  O   UNL     1       1.793   6.140  -4.836  0.00  0.00    -0.270 OA
ENDBRANCH  19  20
ENDBRANCH  18  19
ENDBRANCH  17  18
ENDBRANCH   4  17
TORSDOF 6
