REMARK  Name = ZINC05468166
REMARK  4 active torsions:
REMARK  status: ('A' for Active; 'I' for Inactive)
REMARK    1  A    between atoms: C_1  and  C_2
REMARK    2  A    between atoms: C_2  and  C_3
REMARK    3  A    between atoms: C_8  and  N_10
REMARK    4  A    between atoms: N_10  and  C_11
REMARK                            x       y       z     vdW  Elec       q    Type
REMARK                         _______ _______ _______ _____ _____    ______ ____
ROOT
ATOM      1  N   UNL     1      -3.151  -2.438  -3.154  0.00  0.00    -0.191 NA
ENDROOT
BRANCH   1   2
ATOM      2  C   UNL     1      -3.182  -3.819  -3.376  0.00  0.00    +0.075 A 
ATOM      3  C   UNL     1      -3.312  -4.693  -2.304  0.00  0.00    +0.027 A 
ATOM      4  C   UNL     1      -3.342  -6.056  -2.526  0.00  0.00    +0.003 A 
ATOM      5  C   UNL     1      -3.243  -6.552  -3.813  0.00  0.00    +0.021 A 
ATOM      6  C   UNL     1      -3.114  -5.685  -4.883  0.00  0.00    +0.061 A 
ATOM      7  C   UNL     1      -3.088  -4.319  -4.669  0.00  0.00    +0.082 A 
ATOM      8 CL   UNL     1      -2.933  -3.231  -6.013  0.00  0.00    -0.080 Cl
ATOM      9 CL   UNL     1      -2.989  -6.312  -6.497  0.00  0.00    -0.082 Cl
ENDBRANCH   1   2
BRANCH   1  14
ATOM     10  C   UNL     1      -2.128  -0.572   0.321  0.00  0.00    +0.141 C 
ATOM     11  C   UNL     1      -1.866  -2.069   0.206  0.00  0.00    +0.252 C 
ATOM     12  O   UNL     1      -1.367  -2.713   1.109  0.00  0.00    -0.272 OA
ATOM     13  N   UNL     1      -2.213  -2.611  -0.929  0.00  0.00    -0.156 NA
ATOM     14  C   UNL     1      -2.760  -1.950  -1.940  0.00  0.00    +0.171 C 
ATOM     15  S   UNL     1      -2.865  -0.267  -1.340  0.00  0.00    -0.078 S 
BRANCH  10  17
ATOM     16  C   UNL     1      -1.144   1.703   0.635  0.00  0.00    +0.005 C 
ATOM     17  C   UNL     1      -0.827   0.211   0.508  0.00  0.00    +0.020 C 
ENDBRANCH  10  17
ENDBRANCH   1  14
TORSDOF 3
