REMARK  Name = ZINC66937502
REMARK  4 active torsions:
REMARK  status: ('A' for Active; 'I' for Inactive)
REMARK    1  A    between atoms: C_1  and  N_2
REMARK    2  A    between atoms: C_4  and  S_7
REMARK    3  A    between atoms: S_7  and  N_10
REMARK    4  A    between atoms: C_14  and  C_18
REMARK                            x       y       z     vdW  Elec       q    Type
REMARK                         _______ _______ _______ _____ _____    ______ ____
ROOT
ATOM      1  N   UNL     1       1.627  -3.880  -2.007  0.00  0.00    -0.176 NA
ATOM      2  C   UNL     1       2.290  -3.274  -3.178  0.00  0.00    +0.109 C 
ATOM      3  C   UNL     1       3.721  -2.805  -2.856  0.00  0.00    +0.018 C 
ATOM      4  C   UNL     1       3.761  -2.163  -1.491  0.00  0.00    +0.009 C 
ATOM      5  C   UNL     1       4.107  -3.219  -0.446  0.00  0.00    +0.020 C 
ATOM      6  C   UNL     1       2.952  -3.984   0.048  0.00  0.00    +0.025 C 
ATOM      7  C   UNL     1       2.305  -4.782  -1.104  0.00  0.00    +0.110 C 
ENDROOT
BRANCH   5   8
ATOM      8  C   UNL     1       4.761  -2.535   0.727  0.00  0.00    -0.044 A 
ATOM      9  C   UNL     1       4.074  -1.565   1.433  0.00  0.00    +0.004 A 
ATOM     10  C   UNL     1       4.674  -0.938   2.508  0.00  0.00    +0.000 A 
ATOM     11  C   UNL     1       5.961  -1.280   2.878  0.00  0.00    +0.000 A 
ATOM     12  C   UNL     1       6.648  -2.251   2.173  0.00  0.00    +0.000 A 
ATOM     13  C   UNL     1       6.046  -2.881   1.100  0.00  0.00    +0.004 A 
ENDBRANCH   5   8
BRANCH   1  14
ATOM     14  S   UNL     1       0.041  -3.505  -1.711  0.00  0.00    +0.064 S 
ATOM     15  O   UNL     1      -0.492  -4.572  -0.939  0.00  0.00    -0.153 OA
ATOM     16  O   UNL     1      -0.521  -3.109  -2.955  0.00  0.00    -0.153 OA
BRANCH  14  20
ATOM     17  C   UNL     1      -0.018   1.461   0.010  0.00  0.00    +0.172 C 
ATOM     18  N   UNL     1       0.002  -0.004   0.002  0.00  0.00    -0.273 N 
ATOM     19  C   UNL     1       0.008  -0.792  -1.094  0.00  0.00    +0.136 A 
ATOM     20  C   UNL     1       0.027  -2.079  -0.676  0.00  0.00    +0.143 A 
ATOM     21  C   UNL     1       0.034  -2.078   0.723  0.00  0.00    +0.162 A 
ATOM     22  N   UNL     1       0.025  -0.834   1.130  0.00  0.00    -0.178 NA
ENDBRANCH  14  20
ENDBRANCH   1  14
TORSDOF 3
