REMARK  Name = ZINC15825858
REMARK  10 active torsions:
REMARK  status: ('A' for Active; 'I' for Inactive)
REMARK    1  A    between atoms: C_1  and  C_2
REMARK    2  A    between atoms: C_3  and  C_14
REMARK    3  A    between atoms: C_4  and  C_13
REMARK    4  A    between atoms: N_5  and  C_7
REMARK    5  A    between atoms: C_15  and  C_16
REMARK    6  A    between atoms: N_18  and  C_19
REMARK    7  A    between atoms: N_18  and  C_20
REMARK    8  A    between atoms: C_20  and  C_22
REMARK    9  A    between atoms: C_20  and  C_23
REMARK   10  A    between atoms: C_26  and  N_29
REMARK                            x       y       z     vdW  Elec       q    Type
REMARK                         _______ _______ _______ _____ _____    ______ ____
ROOT
ATOM      1  C   UNL     1      -1.850  -1.107  -1.175  0.00  0.00    +0.240 C 
ATOM      2  O   UNL     1      -0.977  -1.139  -2.022  0.00  0.00    -0.271 OA
ATOM      3  N   UNL     1      -1.616  -0.516   0.014  0.00  0.00    -0.294 N 
ATOM      4  C   UNL     1      -2.667  -0.478   1.033  0.00  0.00    +0.133 C 
ENDROOT
BRANCH   1   6
ATOM      5  C   UNL     1      -3.350  -2.284  -2.629  0.00  0.00    +0.016 C 
ATOM      6  C   UNL     1      -3.115  -1.692  -1.438  0.00  0.00    +0.068 C 
BRANCH   5   9
ATOM      7  C   UNL     1      -4.881  -4.322  -0.739  0.00  0.00    +0.068 C 
ATOM      8  C   UNL     1      -5.356  -3.799  -2.071  0.00  0.00    +0.068 A 
ATOM      9  C   UNL     1      -4.661  -2.890  -2.902  0.00  0.00    +0.019 A 
ATOM     10  C   UNL     1      -5.449  -2.675  -4.018  0.00  0.00    +0.049 A 
ATOM     11  N   UNL     1      -6.561  -3.421  -3.874  0.00  0.00    -0.236 N 
ATOM     12  N   UNL     1      -6.480  -4.106  -2.657  0.00  0.00    -0.171 NA
ATOM     13  C   UNL     1      -5.123  -1.774  -5.181  0.00  0.00    +0.066 C 
BRANCH  11  14
ATOM     14  C   UNL     1      -7.622  -3.494  -4.787  0.00  0.00    +0.066 A 
ATOM     15  C   UNL     1      -8.932  -3.520  -4.329  0.00  0.00    +0.028 A 
ATOM     16  C   UNL     1      -9.976  -3.587  -5.231  0.00  0.00    +0.002 A 
ATOM     17  C   UNL     1      -9.716  -3.640  -6.589  0.00  0.00    +0.000 A 
ATOM     18  C   UNL     1      -8.412  -3.620  -7.047  0.00  0.00    +0.002 A 
ATOM     19  C   UNL     1      -7.364  -3.547  -6.150  0.00  0.00    +0.028 A 
ENDBRANCH  11  14
ENDBRANCH   5   9
ENDBRANCH   1   6
BRANCH   3  20
ATOM     20  C   UNL     1      -0.309   0.088   0.286  0.00  0.00    +0.103 C 
ATOM     21  C   UNL     1      -0.354   0.815   1.632  0.00  0.00    +0.033 C 
BRANCH  20  22
ATOM     22  C   UNL     1       0.743  -0.990   0.332  0.00  0.00    -0.027 A 
ATOM     23  C   UNL     1       0.498  -2.164   1.021  0.00  0.00    +0.007 A 
ATOM     24  C   UNL     1       1.459  -3.156   1.060  0.00  0.00    +0.028 A 
ATOM     25  C   UNL     1       2.675  -2.969   0.417  0.00  0.00    +0.067 A 
ATOM     26  C   UNL     1       2.919  -1.787  -0.269  0.00  0.00    +0.028 A 
ATOM     27  C   UNL     1       1.953  -0.801  -0.310  0.00  0.00    +0.007 A 
BRANCH  25  28
ATOM     28  N   UNL     1       3.653  -3.972   0.460  0.00  0.00    -0.220 N 
ATOM     29  C   UNL     1       3.564  -5.162   1.085  0.00  0.00    +0.225 A 
ATOM     30  N   UNL     1       4.684  -5.809   0.886  0.00  0.00    -0.222 NA
ATOM     31  C   UNL     1       5.510  -5.068   0.150  0.00  0.00    +0.245 A 
ATOM     32  N   UNL     1       4.925  -3.934  -0.136  0.00  0.00    -0.154 NA
ENDBRANCH  25  28
ENDBRANCH  20  22
ENDBRANCH   3  20
TORSDOF 6
