REMARK  Name = ZINC49340055
REMARK  2 active torsions:
REMARK  status: ('A' for Active; 'I' for Inactive)
REMARK    1  A    between atoms: C_1  and  C_2
REMARK    2  A    between atoms: N_11  and  C_12
REMARK                            x       y       z     vdW  Elec       q    Type
REMARK                         _______ _______ _______ _____ _____    ______ ____
ROOT
ATOM      1  C   UNL     1      -0.014   1.529   0.005  0.00  0.00    +0.039 C 
ATOM      2  C   UNL     1       0.002  -0.001  -0.002  0.00  0.00    +0.133 C 
ATOM      3  C   UNL     1       0.725  -0.499  -1.259  0.00  0.00    +0.140 C 
ATOM      4  N   UNL     1       0.892  -1.957  -1.150  0.00  0.00    -0.281 N 
ATOM      5  C   UNL     1       1.476  -2.496   0.088  0.00  0.00    +0.137 C 
ATOM      6  C   UNL     1       0.717  -1.900   1.279  0.00  0.00    +0.179 C 
ATOM      7  O   UNL     1       0.690  -0.476   1.157  0.00  0.00    -0.374 OA
ATOM      8  C   UNL     1       0.522  -2.775  -2.156  0.00  0.00    +0.303 C 
ATOM      9  O   UNL     1      -0.045  -2.321  -3.131  0.00  0.00    -0.253 OA
ATOM     10  N   UNL     1       0.780  -4.096  -2.080  0.00  0.00    -0.292 N 
ATOM     11  H   UNL     1       1.167  -4.469  -1.273  0.00  0.00    +0.151 HD
ENDROOT
BRANCH  10  12
ATOM     12  C   UNL     1       0.475  -4.968  -3.217  0.00  0.00    +0.105 C 
ATOM     13  C   UNL     1       1.348  -6.239  -3.166  0.00  0.00    +0.032 C 
ATOM     14  C   UNL     1       0.398  -7.316  -3.730  0.00  0.00    +0.040 C 
ATOM     15  C   UNL     1      -0.997  -6.813  -3.427  0.00  0.00    -0.007 A 
ATOM     16  C   UNL     1      -0.953  -5.461  -3.133  0.00  0.00    -0.021 A 
ATOM     17  C   UNL     1      -2.120  -4.783  -2.824  0.00  0.00    +0.006 A 
ATOM     18  C   UNL     1      -3.330  -5.449  -2.808  0.00  0.00    +0.003 A 
ATOM     19  C   UNL     1      -3.378  -6.799  -3.102  0.00  0.00    +0.038 A 
ATOM     20  C   UNL     1      -2.210  -7.483  -3.409  0.00  0.00    +0.127 A 
ATOM     21  F   UNL     1      -2.256  -8.802  -3.697  0.00  0.00    -0.205 F 
ENDBRANCH  10  12
TORSDOF 1
