REMARK  Name = ZINC09389205
REMARK  5 active torsions:
REMARK  status: ('A' for Active; 'I' for Inactive)
REMARK    1  A    between atoms: C_1  and  C_2
REMARK    2  A    between atoms: C_2  and  C_4
REMARK    3  A    between atoms: C_2  and  N_53
REMARK    4  A    between atoms: N_15  and  C_18
REMARK    5  A    between atoms: N_21  and  C_26
REMARK                            x       y       z     vdW  Elec       q    Type
REMARK                         _______ _______ _______ _____ _____    ______ ____
ROOT
ATOM      1  C   UNL     1       3.801  -0.513   1.461  0.00  0.00    -0.059 C 
ATOM      2  C   UNL     1       2.384   0.066   1.422  0.00  0.00    +0.086 C 
ATOM      3  N   UNL     1       2.250   0.946   0.253  0.00  0.00    -0.331 N 
ATOM      4  C   UNL     1       2.510   0.209  -0.991  0.00  0.00    +0.086 C 
ATOM      5  C   UNL     1       3.926  -0.369  -0.952  0.00  0.00    -0.059 C 
ATOM      6  N   UNL     1       4.041  -1.270   0.215  0.00  0.00    +0.387 N 
ATOM      7  H   UNL     1       3.337  -2.012   0.134  0.00  0.00    -0.081 HD
ENDROOT
BRANCH   3   8
ATOM      8  C   UNL     1       1.001   1.545   0.224  0.00  0.00    +0.074 A 
ATOM      9  C   UNL     1      -0.166   0.755   0.157  0.00  0.00    +0.158 A 
ATOM     10  N   UNL     1      -1.342   1.316   0.124  0.00  0.00    -0.170 NA
ATOM     11  N   UNL     1      -1.478   2.708   0.166  0.00  0.00    -0.195 N 
ATOM     12  C   UNL     1      -0.391   3.501   0.230  0.00  0.00    +0.292 A 
ATOM     13  O   UNL     1      -0.517   4.715   0.261  0.00  0.00    -0.264 OA
ATOM     14  C   UNL     1       0.886   2.923   0.261  0.00  0.00    +0.129 A 
ATOM     15 CL   UNL     1       2.303   3.923   0.343  0.00  0.00    -0.076 Cl
BRANCH  11  16
ATOM     16  C   UNL     1      -2.754   3.281   0.135  0.00  0.00    +0.069 A 
ATOM     17  C   UNL     1      -3.100   4.260   1.059  0.00  0.00    +0.028 A 
ATOM     18  C   UNL     1      -4.359   4.827   1.022  0.00  0.00    +0.002 A 
ATOM     19  C   UNL     1      -5.277   4.415   0.075  0.00  0.00    +0.000 A 
ATOM     20  C   UNL     1      -4.938   3.437  -0.843  0.00  0.00    +0.002 A 
ATOM     21  C   UNL     1      -3.680   2.870  -0.815  0.00  0.00    +0.028 A 
ENDBRANCH  11  16
ENDBRANCH   3   8
BRANCH   6  23
ATOM     22  C   UNL     1       5.621  -2.638  -1.062  0.00  0.00    -0.006 C 
ATOM     23  C   UNL     1       5.385  -1.885   0.248  0.00  0.00    -0.015 C 
BRANCH  23  24
ATOM     24  C   UNL     1       5.452  -2.852   1.402  0.00  0.00    +0.066 A 
ATOM     25  N   UNL     1       4.569  -3.739   1.766  0.00  0.00    -0.246 NA
ATOM     26  C   UNL     1       4.754  -4.554   2.825  0.00  0.00    +0.078 A 
ATOM     27  C   UNL     1       3.902  -5.557   3.336  0.00  0.00    +0.029 A 
ATOM     28  C   UNL     1       4.260  -6.282   4.431  0.00  0.00    +0.002 A 
ATOM     29  C   UNL     1       5.465  -6.065   5.085  0.00  0.00    +0.001 A 
ATOM     30  C   UNL     1       6.327  -5.092   4.616  0.00  0.00    +0.017 A 
ATOM     31  C   UNL     1       5.974  -4.355   3.511  0.00  0.00    +0.039 A 
ATOM     32  S   UNL     1       6.720  -3.046   2.572  0.00  0.00    -0.074 S 
ENDBRANCH  23  24
ENDBRANCH   6  23
TORSDOF 4
