REMARK  Name = ZINC45951631
REMARK  6 active torsions:
REMARK  status: ('A' for Active; 'I' for Inactive)
REMARK    1  A    between atoms: C_1  and  C_2
REMARK    2  A    between atoms: C_2  and  C_3
REMARK    3  A    between atoms: C_5  and  C_19
REMARK    4  A    between atoms: C_6  and  C_18
REMARK    5  A    between atoms: C_7  and  N_9
REMARK    6  A    between atoms: C_12  and  C_15
REMARK                            x       y       z     vdW  Elec       q    Type
REMARK                         _______ _______ _______ _____ _____    ______ ____
ROOT
ATOM      1  C   UNL     1       0.624  -0.561   1.270  0.00  0.00    +0.109 A 
ATOM      2  N   UNL     1       0.137  -1.432   2.131  0.00  0.00    -0.347 N 
ATOM      3  C   UNL     1       0.852  -1.839   3.170  0.00  0.00    +0.020 A 
ATOM      4  C   UNL     1       2.127  -1.338   3.348  0.00  0.00    +0.008 A 
ATOM      5  C   UNL     1       2.613  -0.417   2.417  0.00  0.00    +0.128 A 
ATOM      6  N   UNL     1       1.837  -0.062   1.398  0.00  0.00    -0.219 NA
ATOM      7  C   UNL     1       2.973  -1.775   4.516  0.00  0.00    +0.049 C 
ATOM      8  C   UNL     1       0.281  -2.835   4.146  0.00  0.00    +0.064 C 
ATOM      9  H   UNL     1      -0.759  -1.781   2.002  0.00  0.00    +0.167 HD
ENDROOT
BRANCH   5  10
ATOM     10  N   UNL     1       3.886   0.114   2.552  0.00  0.00    -0.315 N 
ATOM     11  C   UNL     1       5.026  -0.485   1.845  0.00  0.00    +0.107 C 
ATOM     12  C   UNL     1       5.735   0.607   1.038  0.00  0.00    +0.034 C 
ATOM     13  C   UNL     1       6.109   1.762   1.969  0.00  0.00    +0.105 C 
ATOM     14  C   UNL     1       4.840   2.360   2.580  0.00  0.00    +0.034 C 
ATOM     15  C   UNL     1       4.120   1.291   3.399  0.00  0.00    +0.107 C 
BRANCH  13  16
ATOM     16  C   UNL     1       6.837   2.824   1.185  0.00  0.00    +0.359 C 
ATOM     17  O   UNL     1       6.753   3.993   1.519  0.00  0.00    -0.246 OA
ATOM     18  O   UNL     1       7.510   2.513   0.217  0.00  0.00    -0.246 OA
ENDBRANCH  13  16
ENDBRANCH   5  10
BRANCH   1  20
ATOM     19  C   UNL     1      -0.338   1.397   0.091  0.00  0.00    +0.012 C 
ATOM     20  C   UNL     1      -0.227  -0.129   0.104  0.00  0.00    +0.071 C 
ENDBRANCH   1  20
TORSDOF 3
