REMARK  Name = ZINC23483398
REMARK  13 active torsions:
REMARK  status: ('A' for Active; 'I' for Inactive)
REMARK    1  A    between atoms: C_1  and  C_2
REMARK    2  A    between atoms: C_2  and  C_4
REMARK    3  A    between atoms: C_2  and  N_30
REMARK    4  A    between atoms: C_7  and  S_16
REMARK    5  A    between atoms: N_8  and  C_9
REMARK    6  A    between atoms: S_16  and  C_17
REMARK    7  A    between atoms: C_17  and  C_19
REMARK    8  A    between atoms: C_17  and  C_20
REMARK    9  A    between atoms: C_20  and  C_22
REMARK   10  A    between atoms: C_25  and  O_28
REMARK   11  A    between atoms: O_28  and  C_29
REMARK   12  A    between atoms: N_30  and  C_31
REMARK   13  A    between atoms: N_30  and  C_32
REMARK                            x       y       z     vdW  Elec       q    Type
REMARK                         _______ _______ _______ _____ _____    ______ ____
ROOT
ATOM      1  C   UNL     1      -4.453  -4.261  -0.980  0.00  0.00    +0.125 A 
ATOM      2  N   UNL     1      -4.787  -3.120  -0.446  0.00  0.00    -0.135 NA
ATOM      3  N   UNL     1      -3.745  -2.384  -0.288  0.00  0.00    -0.122 NA
ATOM      4  C   UNL     1      -2.681  -3.016  -0.725  0.00  0.00    +0.197 A 
ATOM      5  N   UNL     1      -3.098  -4.237  -1.178  0.00  0.00    -0.275 N 
ENDROOT
BRANCH   5   6
ATOM      6  C   UNL     1      -2.304  -5.253  -1.730  0.00  0.00    +0.050 A 
ATOM      7  C   UNL     1      -2.480  -5.631  -3.054  0.00  0.00    +0.028 A 
ATOM      8  C   UNL     1      -1.694  -6.628  -3.597  0.00  0.00    +0.022 A 
ATOM      9  C   UNL     1      -0.739  -7.259  -2.819  0.00  0.00    +0.041 A 
ATOM     10  C   UNL     1      -0.565  -6.888  -1.498  0.00  0.00    +0.022 A 
ATOM     11  C   UNL     1      -1.345  -5.887  -0.952  0.00  0.00    +0.028 A 
ATOM     12 CL   UNL     1       0.244  -8.516  -3.503  0.00  0.00    -0.084 Cl
ENDBRANCH   5   6
BRANCH   1  14
ATOM     13  C   UNL     1      -5.795  -6.120  -0.034  0.00  0.00    -0.005 C 
ATOM     14  C   UNL     1      -5.386  -5.396  -1.318  0.00  0.00    -0.003 C 
BRANCH  14  15
ATOM     15  N   UNL     1      -6.583  -4.864  -1.983  0.00  0.00    +0.382 N 
ATOM     16  C   UNL     1      -7.461  -5.952  -2.434  0.00  0.00    -0.096 C 
ATOM     17  C   UNL     1      -7.305  -3.935  -1.104  0.00  0.00    -0.096 C 
ATOM     18  H   UNL     1      -6.255  -4.304  -2.871  0.00  0.00    -0.082 HD
ENDBRANCH  14  15
ENDBRANCH   1  14
BRANCH   4  19
ATOM     19  S   UNL     1      -1.026  -2.409  -0.722  0.00  0.00    -0.075 S 
BRANCH  19  20
ATOM     20  C   UNL     1      -1.293  -0.775   0.010  0.00  0.00    +0.122 C 
ATOM     21  C   UNL     1      -1.781  -0.936   1.451  0.00  0.00    +0.028 C 
BRANCH  20  22
ATOM     22  C   UNL     1       0.002  -0.004   0.002  0.00  0.00    +0.176 C 
ATOM     23  O   UNL     1       1.061  -0.596  -0.011  0.00  0.00    -0.291 OA
BRANCH  22  24
ATOM     24  C   UNL     1      -0.018   1.464   0.010  0.00  0.00    +0.019 A 
ATOM     25  C   UNL     1      -1.239   2.150   0.020  0.00  0.00    +0.015 A 
ATOM     26  C   UNL     1      -1.252   3.522   0.034  0.00  0.00    +0.046 A 
ATOM     27  C   UNL     1      -0.055   4.231   0.026  0.00  0.00    +0.120 A 
ATOM     28  C   UNL     1       1.160   3.554   0.010  0.00  0.00    +0.046 A 
ATOM     29  C   UNL     1       1.184   2.183   0.003  0.00  0.00    +0.015 A 
BRANCH  27  30
ATOM     30  O   UNL     1      -0.074   5.587   0.034  0.00  0.00    -0.495 OA
ATOM     31  C   UNL     1      -1.356   6.219   0.050  0.00  0.00    +0.277 C 
ENDBRANCH  27  30
ENDBRANCH  22  24
ENDBRANCH  20  22
ENDBRANCH  19  20
ENDBRANCH   4  19
TORSDOF 8
