REMARK  Name = ZINC40147448
REMARK  2 active torsions:
REMARK  status: ('A' for Active; 'I' for Inactive)
REMARK    1  A    between atoms: C_11  and  C_21
REMARK    2  A    between atoms: C_24  and  N_27
REMARK                            x       y       z     vdW  Elec       q    Type
REMARK                         _______ _______ _______ _____ _____    ______ ____
ROOT
ATOM      1  C   UNL     1      -0.016   1.357   0.009  0.00  0.00    +0.001 A 
ATOM      2  C   UNL     1       1.168   2.091   0.002  0.00  0.00    +0.001 A 
ATOM      3  C   UNL     1       2.378   1.468  -0.011  0.00  0.00    +0.009 A 
ATOM      4  C   UNL     1       2.437   0.063  -0.017  0.00  0.00    -0.012 A 
ATOM      5  C   UNL     1       1.232  -0.683  -0.013  0.00  0.00    -0.017 A 
ATOM      6  C   UNL     1       0.002  -0.004   0.002  0.00  0.00    +0.008 A 
ATOM      7  C   UNL     1       1.288  -2.088  -0.027  0.00  0.00    +0.010 A 
ATOM      8  C   UNL     1       2.492  -2.717  -0.040  0.00  0.00    +0.024 A 
ATOM      9  C   UNL     1       3.688  -1.987  -0.038  0.00  0.00    +0.036 A 
ATOM     10  C   UNL     1       3.671  -0.611  -0.023  0.00  0.00    -0.007 A 
ATOM     11  C   UNL     1       4.952   0.172  -0.007  0.00  0.00    +0.086 C 
ATOM     12  C   UNL     1       6.122  -0.672  -0.440  0.00  0.00    +0.024 C 
ATOM     13  C   UNL     1       6.052  -2.021  -0.435  0.00  0.00    +0.016 C 
ATOM     14  N   UNL     1       4.910  -2.661  -0.052  0.00  0.00    -0.317 N 
ATOM     15  C   UNL     1       7.236  -2.863  -0.847  0.00  0.00    +0.051 C 
ATOM     16  C   UNL     1       8.058  -2.114  -1.899  0.00  0.00    +0.014 C 
ATOM     17  C   UNL     1       8.505  -0.776  -1.303  0.00  0.00    +0.080 C 
ATOM     18  C   UNL     1       7.291  -0.011  -0.852  0.00  0.00    +0.162 C 
ATOM     19  O   UNL     1       7.322   1.204  -0.844  0.00  0.00    -0.292 OA
ATOM     20  H   UNL     1       4.947  -3.593   0.214  0.00  0.00    +0.152 HD
ENDROOT
BRANCH  11  21
ATOM     21  C   UNL     1       5.202   0.677   1.391  0.00  0.00    -0.035 A 
ATOM     22  C   UNL     1       5.343  -0.218   2.435  0.00  0.00    +0.007 A 
ATOM     23  C   UNL     1       5.572   0.246   3.716  0.00  0.00    +0.033 A 
ATOM     24  C   UNL     1       5.662   1.605   3.954  0.00  0.00    +0.126 A 
ATOM     25  C   UNL     1       5.522   2.500   2.910  0.00  0.00    +0.033 A 
ATOM     26  C   UNL     1       5.296   2.036   1.628  0.00  0.00    +0.007 A 
BRANCH  24  27
ATOM     27  N   UNL     1       5.907   2.102   5.327  0.00  0.00    +0.056 N 
ATOM     28  O   UNL     1       6.029   1.319   6.240  0.00  0.00    -0.126 OA
ATOM     29  O   UNL     1       5.985   3.290   5.535  0.00  0.00    -0.126 OA
ENDBRANCH  24  27
ENDBRANCH  11  21
TORSDOF 2
