REMARK  Name = ZINC02454643
REMARK  5 active torsions:
REMARK  status: ('A' for Active; 'I' for Inactive)
REMARK    1  A    between atoms: C_1  and  C_2
REMARK    2  A    between atoms: C_9  and  N_15
REMARK    3  A    between atoms: C_10  and  C_13
REMARK    4  A    between atoms: C_17  and  C_24
REMARK    5  A    between atoms: C_20  and  C_23
REMARK                            x       y       z     vdW  Elec       q    Type
REMARK                         _______ _______ _______ _____ _____    ______ ____
ROOT
ATOM      1  C   UNL     1      -3.403  -2.754   2.783  0.00  0.00    +0.047 C 
ATOM      2  C   UNL     1      -2.241  -2.801   1.823  0.00  0.00    -0.007 A 
ATOM      3  C   UNL     1      -2.319  -3.549   0.686  0.00  0.00    +0.008 A 
ATOM      4  C   UNL     1      -1.232  -3.579  -0.198  0.00  0.00    +0.019 A 
ATOM      5  C   UNL     1      -0.111  -2.877   0.083  0.00  0.00    +0.096 A 
ATOM      6  N   UNL     1      -0.022  -2.130   1.219  0.00  0.00    -0.267 N 
ATOM      7  C   UNL     1      -1.067  -2.077   2.098  0.00  0.00    +0.145 A 
ATOM      8  N   UNL     1      -0.999  -1.352   3.216  0.00  0.00    -0.213 NA
ATOM      9  C   UNL     1       0.081  -0.650   3.525  0.00  0.00    +0.139 A 
ATOM     10  C   UNL     1       1.197  -0.666   2.652  0.00  0.00    +0.119 A 
ATOM     11  C   UNL     1       1.113  -1.440   1.468  0.00  0.00    +0.270 A 
ATOM     12  O   UNL     1       2.048  -1.484   0.689  0.00  0.00    -0.266 OA
ENDROOT
BRANCH   9  13
ATOM     13  N   UNL     1       0.119   0.089   4.684  0.00  0.00    -0.314 N 
ATOM     14  C   UNL     1      -0.987  -0.277   5.578  0.00  0.00    +0.109 C 
ATOM     15  C   UNL     1      -0.831   0.456   6.912  0.00  0.00    +0.004 C 
ATOM     16  C   UNL     1      -0.830   1.966   6.662  0.00  0.00    +0.009 C 
ATOM     17  C   UNL     1       0.301   2.314   5.691  0.00  0.00    +0.004 C 
ATOM     18  C   UNL     1       0.112   1.528   4.392  0.00  0.00    +0.109 C 
ATOM     19  C   UNL     1       0.272   3.814   5.389  0.00  0.00    +0.009 C 
ATOM     20  C   UNL     1       0.489   0.046   7.568  0.00  0.00    +0.009 C 
ENDBRANCH   9  13
BRANCH  10  21
ATOM     21  C   UNL     1       2.362   0.069   2.953  0.00  0.00    +0.267 C 
ATOM     22  O   UNL     1       3.341  -0.025   2.240  0.00  0.00    -0.295 OA
ENDBRANCH  10  21
TORSDOF 2
