REMARK  Name = ZINC12776669
REMARK  8 active torsions:
REMARK  status: ('A' for Active; 'I' for Inactive)
REMARK    1  A    between atoms: C_1  and  N_2
REMARK    2  A    between atoms: N_2  and  C_3
REMARK    3  A    between atoms: C_3  and  C_4
REMARK    4  A    between atoms: N_6  and  C_7
REMARK    5  A    between atoms: C_14  and  C_16
REMARK    6  A    between atoms: C_16  and  N_17
REMARK    7  A    between atoms: N_20  and  C_21
REMARK    8  A    between atoms: C_21  and  C_22
REMARK                            x       y       z     vdW  Elec       q    Type
REMARK                         _______ _______ _______ _____ _____    ______ ____
ROOT
ATOM      1  C   UNL     1       2.966   0.584  -1.267  0.00  0.00    +0.132 C 
ATOM      2  N   UNL     1       2.406   1.042   0.007  0.00  0.00    -0.294 N 
ATOM      3  C   UNL     1       2.927   0.601   1.169  0.00  0.00    +0.233 C 
ATOM      4  O   UNL     1       2.464   0.979   2.224  0.00  0.00    -0.274 OA
ENDROOT
BRANCH   2   5
ATOM      5  C   UNL     1       1.280   1.979   0.018  0.00  0.00    +0.203 C 
BRANCH   5   6
ATOM      6  C   UNL     1      -0.015   1.208   0.015  0.00  0.00    +0.235 C 
ATOM      7  O   UNL     1       0.001  -0.004   0.004  0.00  0.00    -0.274 OA
ATOM      8  N   UNL     1      -1.191   1.867   0.018  0.00  0.00    -0.283 N 
ATOM      9  H   UNL     1      -1.205   2.834   0.092  0.00  0.00    +0.155 HD
BRANCH   8  10
ATOM     10  C   UNL     1      -2.391   1.155  -0.086  0.00  0.00    +0.047 A 
ATOM     11  C   UNL     1      -2.510  -0.099   0.499  0.00  0.00    +0.024 A 
ATOM     12  C   UNL     1      -3.698  -0.796   0.399  0.00  0.00    +0.002 A 
ATOM     13  C   UNL     1      -4.765  -0.252  -0.291  0.00  0.00    +0.001 A 
ATOM     14  C   UNL     1      -4.649   0.994  -0.880  0.00  0.00    +0.017 A 
ATOM     15  C   UNL     1      -3.465   1.699  -0.779  0.00  0.00    +0.039 A 
ATOM     16 BR   UNL     1      -3.307   3.402  -1.585  0.00  0.00    -0.048 Br
ENDBRANCH   8  10
ENDBRANCH   5   6
ENDBRANCH   2   5
BRANCH   3  17
ATOM     17  C   UNL     1       4.086  -0.364   1.158  0.00  0.00    +0.201 C 
BRANCH  17  18
ATOM     18  N   UNL     1       4.465  -0.688   2.535  0.00  0.00    -0.291 N 
ATOM     19  C   UNL     1       5.484  -1.538   2.772  0.00  0.00    +0.300 C 
ATOM     20  O   UNL     1       6.088  -2.035   1.841  0.00  0.00    -0.253 OA
ATOM     21  N   UNL     1       5.832  -1.836   4.039  0.00  0.00    -0.295 N 
ATOM     22  H   UNL     1       3.982  -0.291   3.277  0.00  0.00    +0.151 HD
ATOM     23  H   UNL     1       5.350  -1.439   4.781  0.00  0.00    +0.151 HD
BRANCH  21  24
ATOM     24  C   UNL     1       6.940  -2.760   4.296  0.00  0.00    +0.141 C 
BRANCH  24  25
ATOM     25  C   UNL     1       7.124  -2.923   5.782  0.00  0.00    -0.030 A 
ATOM     26  C   UNL     1       7.978  -2.081   6.470  0.00  0.00    +0.005 A 
ATOM     27  C   UNL     1       8.143  -2.227   7.834  0.00  0.00    +0.000 A 
ATOM     28  C   UNL     1       7.461  -3.221   8.510  0.00  0.00    +0.000 A 
ATOM     29  C   UNL     1       6.611  -4.067   7.822  0.00  0.00    +0.000 A 
ATOM     30  C   UNL     1       6.442  -3.917   6.458  0.00  0.00    +0.005 A 
ENDBRANCH  24  25
ENDBRANCH  21  24
ENDBRANCH  17  18
ENDBRANCH   3  17
TORSDOF 7
