REMARK  Name = ZINC36476259
REMARK  6 active torsions:
REMARK  status: ('A' for Active; 'I' for Inactive)
REMARK    1  A    between atoms: C_1  and  C_2
REMARK    2  A    between atoms: C_2  and  C_3
REMARK    3  A    between atoms: C_2  and  N_20
REMARK    4  A    between atoms: N_8  and  S_11
REMARK    5  A    between atoms: S_11  and  C_14
REMARK    6  A    between atoms: C_24  and  C_26
REMARK                            x       y       z     vdW  Elec       q    Type
REMARK                         _______ _______ _______ _____ _____    ______ ____
ROOT
ATOM      1  C   UNL     1       0.705  -0.582   1.145  0.00  0.00    +0.202 C 
ATOM      2  O   UNL     1       1.687  -1.266   0.950  0.00  0.00    -0.277 OA
ATOM      3  N   UNL     1       0.279  -0.357   2.404  0.00  0.00    -0.300 N 
ATOM      4  C   UNL     1      -0.847   0.553   2.661  0.00  0.00    +0.125 C 
ATOM      5  C   UNL     1      -1.913  -0.202   3.466  0.00  0.00    +0.128 C 
ATOM      6  N   UNL     1      -1.260  -0.862   4.605  0.00  0.00    -0.174 NA
ATOM      7  C   UNL     1      -0.135  -1.771   4.348  0.00  0.00    +0.128 C 
ATOM      8  C   UNL     1       0.927  -1.021   3.543  0.00  0.00    +0.125 C 
ENDROOT
BRANCH   6   9
ATOM      9  S   UNL     1      -1.784  -0.586   6.152  0.00  0.00    +0.061 S 
ATOM     10  O   UNL     1      -0.687  -0.869   7.009  0.00  0.00    -0.153 OA
ATOM     11  O   UNL     1      -2.436   0.677   6.140  0.00  0.00    -0.153 OA
BRANCH   9  12
ATOM     12  C   UNL     1      -3.022  -1.788   6.505  0.00  0.00    +0.105 A 
ATOM     13  C   UNL     1      -4.348  -1.520   6.221  0.00  0.00    +0.028 A 
ATOM     14  C   UNL     1      -5.319  -2.463   6.498  0.00  0.00    +0.002 A 
ATOM     15  C   UNL     1      -4.965  -3.676   7.059  0.00  0.00    +0.000 A 
ATOM     16  C   UNL     1      -3.639  -3.945   7.343  0.00  0.00    +0.002 A 
ATOM     17  C   UNL     1      -2.667  -3.003   7.061  0.00  0.00    +0.028 A 
ENDBRANCH   9  12
ENDBRANCH   6   9
BRANCH   1  19
ATOM     18  C   UNL     1       0.490   1.427  -0.293  0.00  0.00    -0.004 C 
ATOM     19  C   UNL     1      -0.039   0.018  -0.021  0.00  0.00    +0.016 C 
BRANCH  19  20
ATOM     20  N   UNL     1       0.161  -0.819  -1.212  0.00  0.00    +0.388 N 
ATOM     21  C   UNL     1      -0.542  -0.220  -2.352  0.00  0.00    -0.078 C 
ATOM     22  C   UNL     1      -0.271  -1.044  -3.613  0.00  0.00    -0.018 C 
ATOM     23  C   UNL     1      -0.770  -2.476  -3.398  0.00  0.00    +0.008 C 
ATOM     24  C   UNL     1      -0.084  -3.064  -2.162  0.00  0.00    +0.077 C 
ATOM     25  C   UNL     1      -0.363  -2.166  -0.955  0.00  0.00    -0.066 C 
ATOM     26  H   UNL     1       1.147  -0.877  -1.419  0.00  0.00    -0.081 HD
BRANCH  24  27
ATOM     27  C   UNL     1      -0.634  -4.467  -1.893  0.00  0.00    +0.391 C 
ATOM     28  F   UNL     1      -0.383  -5.286  -2.998  0.00  0.00    -0.171 F 
ATOM     29  F   UNL     1      -0.007  -5.004  -0.763  0.00  0.00    -0.171 F 
ATOM     30  F   UNL     1      -2.013  -4.393  -1.670  0.00  0.00    -0.171 F 
ENDBRANCH  24  27
ENDBRANCH  19  20
ENDBRANCH   1  19
TORSDOF 5
