REMARK  Name = ZINC59882792
REMARK  3 active torsions:
REMARK  status: ('A' for Active; 'I' for Inactive)
REMARK    1  A    between atoms: C_1  and  C_2
REMARK    2  A    between atoms: C_2  and  C_3
REMARK    3  A    between atoms: C_10  and  C_12
REMARK                            x       y       z     vdW  Elec       q    Type
REMARK                         _______ _______ _______ _____ _____    ______ ____
ROOT
ATOM      1  C   UNL     1      -1.476  -1.004  -0.082  0.00  0.00    -0.007 C 
ATOM      2  C   UNL     1      -1.170  -2.381   0.512  0.00  0.00    +0.009 C 
ATOM      3  C   UNL     1      -2.474  -3.187   0.589  0.00  0.00    +0.043 C 
ATOM      4  C   UNL     1      -3.530  -2.323   1.213  0.00  0.00    -0.006 A 
ATOM      5  C   UNL     1      -3.481  -0.971   1.386  0.00  0.00    -0.036 A 
ATOM      6  C   UNL     1      -4.579  -0.380   1.992  0.00  0.00    +0.024 A 
ATOM      7  C   UNL     1      -5.615  -1.218   2.361  0.00  0.00    +0.075 A 
ATOM      8  S   UNL     1      -5.001  -2.808   1.838  0.00  0.00    -0.088 S 
ATOM      9  C   UNL     1      -2.266  -0.169   0.927  0.00  0.00    +0.039 C 
ENDROOT
BRANCH   7  10
ATOM     10  C   UNL     1      -6.886  -0.887   3.011  0.00  0.00    +0.253 C 
ATOM     11  O   UNL     1      -6.950   0.058   3.775  0.00  0.00    -0.269 OA
ATOM     12  N   UNL     1      -7.984  -1.629   2.763  0.00  0.00    -0.295 N 
ATOM     13  C   UNL     1      -9.220  -1.314   3.476  0.00  0.00    +0.117 C 
ATOM     14  C   UNL     1      -9.614  -2.497   4.367  0.00  0.00    +0.114 C 
ATOM     15  C   UNL     1     -10.290  -3.543   3.510  0.00  0.00    +0.215 C 
ATOM     16  O   UNL     1     -11.483  -3.730   3.618  0.00  0.00    -0.276 OA
ATOM     17  N   UNL     1      -9.582  -4.263   2.635  0.00  0.00    -0.314 N 
ATOM     18  C   UNL     1      -8.134  -4.057   2.495  0.00  0.00    +0.123 C 
ATOM     19  C   UNL     1      -7.893  -2.713   1.789  0.00  0.00    +0.127 C 
ATOM     20  H   UNL     1     -10.028  -4.928   2.088  0.00  0.00    +0.149 HD
ENDBRANCH   7  10
BRANCH   1  22
ATOM     21  C   UNL     1      -0.468   1.030  -1.127  0.00  0.00    +0.004 C 
ATOM     22  C   UNL     1      -0.164  -0.291  -0.416  0.00  0.00    +0.000 C 
ENDBRANCH   1  22
TORSDOF 2
