REMARK  Name = ZINC14526268
REMARK  7 active torsions:
REMARK  status: ('A' for Active; 'I' for Inactive)
REMARK    1  A    between atoms: C_1  and  C_2
REMARK    2  A    between atoms: C_2  and  C_4
REMARK    3  A    between atoms: C_2  and  N_15
REMARK    4  A    between atoms: C_7  and  N_10
REMARK    5  A    between atoms: N_15  and  C_16
REMARK    6  A    between atoms: C_17  and  C_19
REMARK    7  A    between atoms: N_22  and  C_24
REMARK                            x       y       z     vdW  Elec       q    Type
REMARK                         _______ _______ _______ _____ _____    ______ ____
ROOT
ATOM      1  N   UNL     1      -1.405   3.292   0.971  0.00  0.00    -0.292 N 
ATOM      2  C   UNL     1      -0.722   4.586   0.893  0.00  0.00    +0.133 C 
ATOM      3  C   UNL     1      -2.016   2.920   2.113  0.00  0.00    +0.267 C 
ATOM      4  O   UNL     1      -2.669   1.895   2.147  0.00  0.00    -0.268 OA
ENDROOT
BRANCH   3   5
ATOM      5  C   UNL     1      -1.894   3.758   3.322  0.00  0.00    +0.151 A 
ATOM      6  C   UNL     1      -2.516   3.528   4.571  0.00  0.00    +0.006 A 
ATOM      7  C   UNL     1      -2.118   4.540   5.372  0.00  0.00    +0.049 A 
ATOM      8  N   UNL     1      -1.304   5.338   4.630  0.00  0.00    -0.236 N 
ATOM      9  N   UNL     1      -1.187   4.866   3.441  0.00  0.00    -0.161 NA
ATOM     10  C   UNL     1      -2.727   4.386   6.748  0.00  0.00    +0.056 C 
ATOM     11  C   UNL     1      -3.896   3.390   6.558  0.00  0.00    +0.011 C 
ATOM     12  C   UNL     1      -3.434   2.592   5.319  0.00  0.00    +0.040 C 
BRANCH   8  13
ATOM     13  C   UNL     1      -0.684   6.507   5.094  0.00  0.00    +0.066 A 
ATOM     14  C   UNL     1      -1.339   7.327   6.003  0.00  0.00    +0.030 A 
ATOM     15  C   UNL     1      -0.725   8.475   6.464  0.00  0.00    +0.040 A 
ATOM     16  C   UNL     1       0.539   8.814   6.011  0.00  0.00    +0.124 A 
ATOM     17  C   UNL     1       1.192   8.000   5.100  0.00  0.00    +0.040 A 
ATOM     18  C   UNL     1       0.583   6.848   4.641  0.00  0.00    +0.030 A 
ATOM     19  F   UNL     1       1.137   9.940   6.458  0.00  0.00    -0.205 F 
ENDBRANCH   8  13
ENDBRANCH   3   5
BRANCH   1  21
ATOM     20  C   UNL     1      -1.969   3.159  -1.405  0.00  0.00    +0.033 C 
ATOM     21  C   UNL     1      -1.422   2.402  -0.193  0.00  0.00    +0.103 C 
BRANCH  21  22
ATOM     22  C   UNL     1      -0.022   1.929  -0.485  0.00  0.00    -0.027 A 
ATOM     23  C   UNL     1       1.004   2.848  -0.612  0.00  0.00    +0.007 A 
ATOM     24  C   UNL     1       2.288   2.418  -0.885  0.00  0.00    +0.028 A 
ATOM     25  C   UNL     1       2.548   1.062  -1.032  0.00  0.00    +0.067 A 
ATOM     26  C   UNL     1       1.516   0.142  -0.904  0.00  0.00    +0.028 A 
ATOM     27  C   UNL     1       0.234   0.578  -0.631  0.00  0.00    +0.007 A 
BRANCH  25  28
ATOM     28  N   UNL     1       3.850   0.623  -1.309  0.00  0.00    -0.220 N 
ATOM     29  C   UNL     1       4.946   1.391  -1.466  0.00  0.00    +0.225 A 
ATOM     30  N   UNL     1       5.962   0.603  -1.709  0.00  0.00    -0.222 NA
ATOM     31  C   UNL     1       5.556  -0.667  -1.724  0.00  0.00    +0.245 A 
ATOM     32  N   UNL     1       4.271  -0.706  -1.484  0.00  0.00    -0.154 NA
ENDBRANCH  25  28
ENDBRANCH  21  22
ENDBRANCH   1  21
TORSDOF 5
