REMARK  Name = ZINC13879200
REMARK  7 active torsions:
REMARK  status: ('A' for Active; 'I' for Inactive)
REMARK    1  A    between atoms: C_1  and  O_2
REMARK    2  A    between atoms: O_2  and  C_3
REMARK    3  A    between atoms: C_3  and  C_5
REMARK    4  A    between atoms: C_10  and  N_11
REMARK    5  A    between atoms: C_14  and  N_23
REMARK    6  A    between atoms: N_23  and  S_24
REMARK    7  A    between atoms: S_24  and  C_27
REMARK                            x       y       z     vdW  Elec       q    Type
REMARK                         _______ _______ _______ _____ _____    ______ ____
ROOT
ATOM      1  N   UNL     1       1.835  -1.970  -3.208  0.00  0.00    -0.243 NA
ATOM      2  C   UNL     1       2.505  -2.562  -4.180  0.00  0.00    +0.113 C 
ATOM      3  C   UNL     1       3.175  -1.791  -5.152  0.00  0.00    +0.056 C 
ATOM      4  C   UNL     1       3.871  -2.369  -6.163  0.00  0.00    +0.058 C 
ATOM      5  C   UNL     1       3.961  -3.831  -6.294  0.00  0.00    +0.008 A 
ATOM      6  C   UNL     1       4.681  -4.407  -7.340  0.00  0.00    +0.010 A 
ATOM      7  C   UNL     1       4.755  -5.782  -7.448  0.00  0.00    +0.001 A 
ATOM      8  C   UNL     1       4.120  -6.598  -6.526  0.00  0.00    +0.001 A 
ATOM      9  C   UNL     1       3.402  -6.048  -5.482  0.00  0.00    +0.012 A 
ATOM     10  C   UNL     1       3.316  -4.663  -5.358  0.00  0.00    +0.033 A 
ATOM     11  C   UNL     1       2.562  -4.045  -4.251  0.00  0.00    +0.212 C 
ATOM     12  O   UNL     1       1.997  -4.732  -3.422  0.00  0.00    -0.285 OA
ENDROOT
BRANCH   1  18
ATOM     13  C   UNL     1      -0.034  -2.680  -1.887  0.00  0.00    +0.084 A 
ATOM     14  C   UNL     1      -0.520  -3.444  -0.827  0.00  0.00    +0.017 A 
ATOM     15  C   UNL     1       0.348  -4.206  -0.070  0.00  0.00    +0.001 A 
ATOM     16  C   UNL     1       1.705  -4.221  -0.353  0.00  0.00    +0.002 A 
ATOM     17  C   UNL     1       2.211  -3.474  -1.395  0.00  0.00    +0.028 A 
ATOM     18  C   UNL     1       1.349  -2.698  -2.182  0.00  0.00    +0.079 A 
BRANCH  13  19
ATOM     19  C   UNL     1      -0.956  -1.865  -2.698  0.00  0.00    +0.341 C 
ATOM     20  O   UNL     1      -0.529  -1.204  -3.624  0.00  0.00    -0.245 OA
BRANCH  19  22
ATOM     21  C   UNL     1      -3.108  -1.038  -3.240  0.00  0.00    +0.280 C 
ATOM     22  O   UNL     1      -2.273  -1.851  -2.413  0.00  0.00    -0.464 OA
ENDBRANCH  19  22
ENDBRANCH  13  19
ENDBRANCH   1  18
BRANCH   4  23
ATOM     23  N   UNL     1       4.510  -1.565  -7.090  0.00  0.00    -0.215 N 
ATOM     24  H   UNL     1       5.010  -1.968  -7.817  0.00  0.00    +0.174 HD
BRANCH  23  25
ATOM     25  S   UNL     1       4.420   0.083  -6.960  0.00  0.00    +0.079 S 
ATOM     26  O   UNL     1       5.188   0.618  -8.028  0.00  0.00    -0.149 OA
ATOM     27  O   UNL     1       3.047   0.402  -6.775  0.00  0.00    -0.149 OA
BRANCH  25  28
ATOM     28  C   UNL     1       5.246   0.533  -5.470  0.00  0.00    +0.146 A 
ATOM     29  C   UNL     1       6.551   0.848  -5.280  0.00  0.00    +0.036 A 
ATOM     30  C   UNL     1       6.983   1.175  -4.008  0.00  0.00    +0.010 A 
ATOM     31  C   UNL     1       6.089   1.171  -2.989  0.00  0.00    +0.047 A 
ATOM     32  S   UNL     1       4.582   0.701  -3.822  0.00  0.00    -0.077 S 
ENDBRANCH  25  28
ENDBRANCH  23  25
ENDBRANCH   4  23
TORSDOF 6
