REMARK  Name = ZINC65466498
REMARK  8 active torsions:
REMARK  status: ('A' for Active; 'I' for Inactive)
REMARK    1  A    between atoms: C_1  and  C_2
REMARK    2  A    between atoms: C_2  and  C_3
REMARK    3  A    between atoms: C_3  and  N_4
REMARK    4  A    between atoms: C_5  and  C_7
REMARK    5  A    between atoms: C_10  and  N_14
REMARK    6  A    between atoms: C_19  and  C_25
REMARK    7  A    between atoms: C_21  and  C_23
REMARK    8  A    between atoms: C_21  and  C_24
REMARK                            x       y       z     vdW  Elec       q    Type
REMARK                         _______ _______ _______ _____ _____    ______ ____
ROOT
ATOM      1  C   UNL     1       1.578  -4.131   2.058  0.00  0.00    +0.055 A 
ATOM      2  C   UNL     1       1.334  -4.870   0.896  0.00  0.00    +0.016 A 
ATOM      3  C   UNL     1       1.279  -6.244   0.955  0.00  0.00    +0.024 A 
ATOM      4  C   UNL     1       1.466  -6.899   2.169  0.00  0.00    +0.036 A 
ATOM      5  C   UNL     1       1.708  -6.169   3.327  0.00  0.00    +0.044 A 
ATOM      6  C   UNL     1       1.771  -4.793   3.276  0.00  0.00    +0.055 A 
ATOM      7 CL   UNL     1       2.082  -3.882   4.720  0.00  0.00    -0.083 Cl
ENDROOT
BRANCH   4   8
ATOM      8  N   UNL     1       1.409  -8.291   2.223  0.00  0.00    -0.269 N 
ATOM      9  C   UNL     1       2.122  -8.959   3.152  0.00  0.00    +0.307 C 
ATOM     10  O   UNL     1       2.673  -8.350   4.049  0.00  0.00    -0.252 OA
ATOM     11  N   UNL     1       2.223 -10.301   3.087  0.00  0.00    -0.280 N 
ATOM     12  C   UNL     1       1.698 -11.046   1.932  0.00  0.00    +0.140 C 
ATOM     13  C   UNL     1       0.812 -12.184   2.452  0.00  0.00    +0.133 C 
ATOM     14  O   UNL     1       1.542 -12.944   3.418  0.00  0.00    -0.368 OA
ATOM     15  C   UNL     1       1.921 -12.203   4.580  0.00  0.00    +0.080 C 
ATOM     16  C   UNL     1       2.868 -11.065   4.167  0.00  0.00    +0.143 C 
ATOM     17  C   UNL     1       0.672 -11.618   5.243  0.00  0.00    +0.043 C 
ATOM     18  C   UNL     1       2.637 -13.129   5.565  0.00  0.00    +0.043 C 
ATOM     19  C   UNL     1       0.409 -13.091   1.287  0.00  0.00    +0.039 C 
ATOM     20  H   UNL     1       0.856  -8.779   1.593  0.00  0.00    +0.156 HD
ENDBRANCH   4   8
BRANCH   1  22
ATOM     21  N   UNL     1       1.451  -2.023   0.825  0.00  0.00    -0.311 N 
ATOM     22  C   UNL     1       1.638  -2.659   1.999  0.00  0.00    +0.245 C 
ATOM     23  O   UNL     1       1.855  -2.018   3.010  0.00  0.00    -0.270 OA
ATOM     24  H   UNL     1       1.278  -2.534   0.019  0.00  0.00    +0.149 HD
BRANCH  21  25
ATOM     25  C   UNL     1       1.510  -0.561   0.767  0.00  0.00    +0.104 C 
BRANCH  25  27
ATOM     26  C   UNL     1       1.329   1.430  -0.732  0.00  0.00    +0.005 C 
ATOM     27  C   UNL     1       1.267  -0.098  -0.671  0.00  0.00    +0.015 C 
ENDBRANCH  25  27
ENDBRANCH  21  25
ENDBRANCH   1  22
TORSDOF 4
