REMARK  Name = ZINC43609939
REMARK  6 active torsions:
REMARK  status: ('A' for Active; 'I' for Inactive)
REMARK    1  A    between atoms: C_1  and  C_2
REMARK    2  A    between atoms: C_3  and  C_12
REMARK    3  A    between atoms: C_5  and  C_7
REMARK    4  A    between atoms: C_12  and  N_13
REMARK    5  A    between atoms: C_16  and  C_25
REMARK    6  A    between atoms: C_16  and  O_31
REMARK                            x       y       z     vdW  Elec       q    Type
REMARK                         _______ _______ _______ _____ _____    ______ ____
ROOT
ATOM      1  N   UNL     1      -2.977  -0.245  -1.375  0.00  0.00    +0.386 N 
ATOM      2  C   UNL     1      -2.978  -1.556  -2.036  0.00  0.00    -0.075 C 
ATOM      3  C   UNL     1      -3.396  -1.393  -3.499  0.00  0.00    +0.021 C 
ATOM      4  C   UNL     1      -4.801  -0.788  -3.559  0.00  0.00    +0.091 C 
ATOM      5  C   UNL     1      -4.806   0.543  -2.802  0.00  0.00    +0.012 C 
ATOM      6  C   UNL     1      -4.336   0.309  -1.365  0.00  0.00    -0.062 C 
ATOM      7  C   UNL     1      -4.339   1.639  -0.607  0.00  0.00    -0.015 C 
ATOM      8  C   UNL     1      -3.391   2.621  -1.298  0.00  0.00    -0.002 C 
ATOM      9  C   UNL     1      -3.857   2.854  -2.736  0.00  0.00    +0.000 C 
ATOM     10  C   UNL     1      -3.861   1.526  -3.497  0.00  0.00    +0.005 C 
ATOM     11  H   UNL     1      -2.363   0.381  -1.875  0.00  0.00    -0.081 HD
ENDROOT
BRANCH   4  12
ATOM     12  C   UNL     1      -5.188  -0.552  -4.996  0.00  0.00    -0.016 A 
ATOM     13  C   UNL     1      -6.499  -0.727  -5.397  0.00  0.00    +0.006 A 
ATOM     14  C   UNL     1      -6.854  -0.510  -6.715  0.00  0.00    +0.000 A 
ATOM     15  C   UNL     1      -5.897  -0.119  -7.633  0.00  0.00    +0.000 A 
ATOM     16  C   UNL     1      -4.586   0.057  -7.232  0.00  0.00    +0.000 A 
ATOM     17  C   UNL     1      -4.232  -0.155  -5.913  0.00  0.00    +0.006 A 
ENDBRANCH   4  12
BRANCH   4  18
ATOM     18  O   UNL     1      -5.734  -1.685  -2.953  0.00  0.00    -0.384 OA
ATOM     19  H   UNL     1      -5.779  -2.552  -3.378  0.00  0.00    +0.211 HD
ENDBRANCH   4  18
BRANCH   1  20
ATOM     20  C   UNL     1      -2.501  -0.396   0.006  0.00  0.00    -0.018 C 
BRANCH  20  23
ATOM     21  C   UNL     1       0.016   1.457  -0.006  0.00  0.00    +0.088 C 
ATOM     22  C   UNL     1       0.018  -0.050  -0.010  0.00  0.00    +0.124 A 
ATOM     23  C   UNL     1      -1.063  -0.848  -0.005  0.00  0.00    +0.066 A 
ATOM     24  N   UNL     1      -0.635  -2.121  -0.010  0.00  0.00    -0.216 NA
ATOM     25  C   UNL     1       0.678  -2.122  -0.019  0.00  0.00    +0.231 A 
ATOM     26  O   UNL     1       1.106  -0.848  -0.025  0.00  0.00    -0.440 OA
BRANCH  25  27
ATOM     27  C   UNL     1       1.540  -3.322  -0.027  0.00  0.00    +0.074 A 
ATOM     28  C   UNL     1       3.009  -3.359  -0.031  0.00  0.00    +0.054 A 
ATOM     29  C   UNL     1       3.346  -4.659  -0.038  0.00  0.00    +0.195 A 
ATOM     30  O   UNL     1       2.229  -5.402  -0.038  0.00  0.00    -0.470 OA
ATOM     31  C   UNL     1       1.139  -4.623  -0.027  0.00  0.00    +0.208 A 
ENDBRANCH  25  27
ENDBRANCH  20  23
ENDBRANCH   1  20
TORSDOF 5
