REMARK  Name = ZINC34832063
REMARK  12 active torsions:
REMARK  status: ('A' for Active; 'I' for Inactive)
REMARK    1  A    between atoms: C_1  and  C_2
REMARK    2  A    between atoms: C_2  and  C_3
REMARK    3  A    between atoms: C_3  and  C_5
REMARK    4  A    between atoms: C_3  and  N_6
REMARK    5  A    between atoms: N_6  and  C_7
REMARK    6  A    between atoms: C_7  and  C_8
REMARK    7  A    between atoms: C_9  and  C_28
REMARK    8  A    between atoms: N_11  and  C_21
REMARK    9  A    between atoms: C_12  and  N_13
REMARK   10  A    between atoms: N_16  and  C_19
REMARK   11  A    between atoms: C_19  and  C_20
REMARK   12  A    between atoms: C_29  and  C_31
REMARK                            x       y       z     vdW  Elec       q    Type
REMARK                         _______ _______ _______ _____ _____    ______ ____
ROOT
ATOM      1  C   UNL     1      -4.087  -1.925   1.508  0.00  0.00    +0.032 A 
ATOM      2  C   UNL     1      -3.673  -2.846   0.542  0.00  0.00    +0.067 A 
ATOM      3  N   UNL     1      -3.757  -4.048   1.052  0.00  0.00    -0.170 NA
ATOM      4  N   UNL     1      -4.230  -3.940   2.366  0.00  0.00    -0.218 N 
ATOM      5  C   UNL     1      -4.423  -2.619   2.630  0.00  0.00    +0.130 A 
ATOM      6  C   UNL     1      -3.208  -2.512  -0.852  0.00  0.00    +0.068 C 
ENDROOT
BRANCH   5   7
ATOM      7  N   UNL     1      -4.881  -2.076   3.827  0.00  0.00    -0.318 N 
ATOM      8  C   UNL     1      -6.299  -1.727   4.006  0.00  0.00    +0.088 C 
ATOM      9  C   UNL     1      -6.793  -2.353   5.314  0.00  0.00    -0.060 C 
ATOM     10  N   UNL     1      -5.921  -1.931   6.417  0.00  0.00    +0.382 N 
ATOM     11  C   UNL     1      -4.566  -2.458   6.214  0.00  0.00    -0.060 C 
ATOM     12  C   UNL     1      -3.963  -1.842   4.952  0.00  0.00    +0.088 C 
ATOM     13  H   UNL     1      -5.888  -0.923   6.451  0.00  0.00    -0.082 HD
BRANCH  10  14
ATOM     14  C   UNL     1      -6.458  -2.442   7.686  0.00  0.00    -0.082 C 
ATOM     15  C   UNL     1      -5.623  -1.900   8.848  0.00  0.00    -0.017 C 
ENDBRANCH  10  14
ENDBRANCH   5   7
BRANCH   4  16
ATOM     16  C   UNL     1      -4.458  -5.001   3.252  0.00  0.00    +0.070 A 
ATOM     17  C   UNL     1      -3.974  -4.938   4.553  0.00  0.00    +0.028 A 
ATOM     18  C   UNL     1      -4.201  -5.985   5.425  0.00  0.00    +0.005 A 
ATOM     19  C   UNL     1      -4.909  -7.096   5.005  0.00  0.00    +0.038 A 
ATOM     20  C   UNL     1      -5.393  -7.163   3.710  0.00  0.00    +0.125 A 
ATOM     21  C   UNL     1      -5.174  -6.114   2.834  0.00  0.00    +0.066 A 
ATOM     22  F   UNL     1      -6.084  -8.250   3.302  0.00  0.00    -0.205 F 
ENDBRANCH   4  16
BRANCH   1  23
ATOM     23  C   UNL     1      -4.145  -0.428   1.339  0.00  0.00    +0.148 C 
BRANCH  23  24
ATOM     24  N   UNL     1      -2.785   0.114   1.314  0.00  0.00    -0.294 N 
ATOM     25  C   UNL     1      -2.256   0.659   2.427  0.00  0.00    +0.219 C 
ATOM     26  O   UNL     1      -1.131   1.112   2.405  0.00  0.00    -0.275 OA
BRANCH  25  27
ATOM     27  C   UNL     1      -3.062   0.706   3.699  0.00  0.00    +0.075 C 
ATOM     28  C   UNL     1      -3.833   2.039   3.788  0.00  0.00    +0.013 C 
ATOM     29  C   UNL     1      -3.785   2.407   5.292  0.00  0.00    +0.001 C 
ATOM     30  C   UNL     1      -2.359   1.964   5.706  0.00  0.00    +0.001 C 
ATOM     31  C   UNL     1      -2.125   0.658   4.919  0.00  0.00    +0.013 C 
ENDBRANCH  25  27
BRANCH  24  32
ATOM     32  C   UNL     1      -1.999   0.063   0.078  0.00  0.00    +0.073 C 
ATOM     33  C   UNL     1      -0.728  -0.755   0.316  0.00  0.00    +0.028 C 
BRANCH  32  35
ATOM     34  C   UNL     1      -2.887   2.275  -0.670  0.00  0.00    +0.005 C 
ATOM     35  C   UNL     1      -1.619   1.484  -0.343  0.00  0.00    +0.019 C 
ENDBRANCH  32  35
ENDBRANCH  24  32
ENDBRANCH  23  24
ENDBRANCH   1  23
TORSDOF 8
