REMARK  Name = ZINC43136338
REMARK  5 active torsions:
REMARK  status: ('A' for Active; 'I' for Inactive)
REMARK    1  A    between atoms: C_1  and  C_2
REMARK    2  A    between atoms: C_6  and  N_9
REMARK    3  A    between atoms: C_7  and  C_8
REMARK    4  A    between atoms: N_12  and  C_13
REMARK    5  A    between atoms: N_12  and  C_14
REMARK                            x       y       z     vdW  Elec       q    Type
REMARK                         _______ _______ _______ _____ _____    ______ ____
ROOT
ATOM      1  N   UNL     1       0.051  -2.797   2.393  0.00  0.00    -0.269 N 
ATOM      2  C   UNL     1      -0.032  -4.143   2.386  0.00  0.00    +0.306 C 
ATOM      3  O   UNL     1      -0.029  -4.746   1.330  0.00  0.00    -0.252 OA
ATOM      4  N   UNL     1      -0.119  -4.819   3.548  0.00  0.00    -0.284 N 
ATOM      5  C   UNL     1      -0.123  -4.091   4.820  0.00  0.00    +0.134 C 
ATOM      6  H   UNL     1       0.131  -2.321   3.234  0.00  0.00    +0.156 HD
ENDROOT
BRANCH   1  12
ATOM      7  C   UNL     1       1.201   1.236  -0.173  0.00  0.00    +0.044 C 
ATOM      8  C   UNL     1       0.573  -0.131  -0.085  0.00  0.00    -0.046 A 
ATOM      9  C   UNL     1      -0.033  -0.686  -1.198  0.00  0.00    +0.004 A 
ATOM     10  C   UNL     1      -0.610  -1.940  -1.121  0.00  0.00    +0.002 A 
ATOM     11  C   UNL     1      -0.584  -2.642   0.068  0.00  0.00    +0.023 A 
ATOM     12  C   UNL     1       0.023  -2.088   1.187  0.00  0.00    +0.038 A 
ATOM     13  C   UNL     1       0.607  -0.831   1.105  0.00  0.00    -0.026 A 
ATOM     14  C   UNL     1       1.273  -0.228   2.315  0.00  0.00    +0.046 C 
ENDBRANCH   1  12
BRANCH   4  15
ATOM     15  C   UNL     1      -0.210  -6.281   3.541  0.00  0.00    +0.100 C 
ATOM     16  C   UNL     1      -1.504  -6.724   4.243  0.00  0.00    +0.047 C 
ATOM     17  C   UNL     1      -1.457  -8.246   4.524  0.00  0.00    +0.168 C 
ATOM     18  S   UNL     1       0.346  -8.571   4.684  0.00  0.00    -0.029 S 
ATOM     19  O   UNL     1       0.750  -9.457   3.649  0.00  0.00    -0.174 OA
ATOM     20  O   UNL     1       0.640  -8.896   6.036  0.00  0.00    -0.174 OA
ATOM     21  C   UNL     1       0.994  -6.886   4.317  0.00  0.00    +0.188 C 
ENDBRANCH   4  15
TORSDOF 2
