REMARK  Name = ZINC35828088
REMARK  5 active torsions:
REMARK  status: ('A' for Active; 'I' for Inactive)
REMARK    1  A    between atoms: C_1  and  N_2
REMARK    2  A    between atoms: C_4  and  C_27
REMARK    3  A    between atoms: C_6  and  C_18
REMARK    4  A    between atoms: C_18  and  C_20
REMARK    5  A    between atoms: C_31  and  N_33
REMARK                            x       y       z     vdW  Elec       q    Type
REMARK                         _______ _______ _______ _____ _____    ______ ____
ROOT
ATOM      1  C   UNL     1       0.058   1.528   0.159  0.00  0.00    +0.106 C 
ATOM      2  N   UNL     1       0.027   0.060   0.118  0.00  0.00    -0.287 NA
ATOM      3  C   UNL     1       0.696  -0.453  -1.108  0.00  0.00    +0.094 C 
ATOM      4  C   UNL     1       1.056  -1.914  -0.734  0.00  0.00    +0.046 C 
ATOM      5  C   UNL     1       1.449  -1.802   0.759  0.00  0.00    +0.103 C 
ATOM      6  C   UNL     1       0.774  -0.515   1.248  0.00  0.00    +0.136 C 
ATOM      7  C   UNL     1       1.790   0.459   1.781  0.00  0.00    +0.004 A 
ATOM      8  C   UNL     1       2.875   1.094   1.220  0.00  0.00    +0.008 A 
ATOM      9  C   UNL     1       3.642   1.957   1.982  0.00  0.00    +0.000 A 
ATOM     10  C   UNL     1       3.316   2.179   3.308  0.00  0.00    +0.002 A 
ATOM     11  C   UNL     1       2.230   1.544   3.874  0.00  0.00    +0.023 A 
ATOM     12  C   UNL     1       1.452   0.675   3.113  0.00  0.00    +0.039 A 
ATOM     13  N   UNL     1       0.321  -0.071   3.451  0.00  0.00    -0.283 N 
ATOM     14  C   UNL     1      -0.139  -0.796   2.414  0.00  0.00    +0.243 C 
ATOM     15  O   UNL     1      -1.103  -1.532   2.417  0.00  0.00    -0.273 OA
ATOM     16  H   UNL     1      -0.085  -0.069   4.332  0.00  0.00    +0.155 HD
ENDROOT
BRANCH   4  17
ATOM     17  C   UNL     1       2.218  -2.404  -1.559  0.00  0.00    -0.040 A 
ATOM     18  C   UNL     1       3.428  -1.738  -1.514  0.00  0.00    +0.004 A 
ATOM     19  C   UNL     1       4.493  -2.188  -2.271  0.00  0.00    +0.002 A 
ATOM     20  C   UNL     1       4.348  -3.304  -3.073  0.00  0.00    +0.033 A 
ATOM     21  C   UNL     1       3.139  -3.971  -3.118  0.00  0.00    +0.126 A 
ATOM     22  C   UNL     1       2.074  -3.523  -2.357  0.00  0.00    +0.036 A 
BRANCH  21  23
ATOM     23  N   UNL     1       2.983  -5.166  -3.978  0.00  0.00    +0.056 N 
ATOM     24  O   UNL     1       3.915  -5.559  -4.640  0.00  0.00    -0.126 OA
ATOM     25  O   UNL     1       1.925  -5.749  -4.017  0.00  0.00    -0.126 OA
ENDBRANCH  21  23
ENDBRANCH   4  17
BRANCH   5  26
ATOM     26  C   UNL     1       0.933  -2.992   1.527  0.00  0.00    +0.169 C 
ATOM     27  O   UNL     1      -0.045  -3.591   1.132  0.00  0.00    -0.292 OA
BRANCH  26  28
ATOM     28  C   UNL     1       1.614  -3.425   2.756  0.00  0.00    +0.018 A 
ATOM     29  C   UNL     1       2.739  -2.732   3.217  0.00  0.00    +0.014 A 
ATOM     30  C   UNL     1       3.373  -3.144   4.369  0.00  0.00    +0.039 A 
ATOM     31  C   UNL     1       2.899  -4.243   5.070  0.00  0.00    +0.123 A 
ATOM     32  C   UNL     1       1.785  -4.935   4.618  0.00  0.00    +0.039 A 
ATOM     33  C   UNL     1       1.138  -4.530   3.471  0.00  0.00    +0.014 A 
ATOM     34  F   UNL     1       3.526  -4.643   6.198  0.00  0.00    -0.205 F 
ENDBRANCH  26  28
ENDBRANCH   5  26
TORSDOF 4
