REMARK  Name = ZINC22386810
REMARK  3 active torsions:
REMARK  status: ('A' for Active; 'I' for Inactive)
REMARK    1  A    between atoms: C_1  and  C_2
REMARK    2  A    between atoms: C_7  and  N_12
REMARK    3  A    between atoms: C_9  and  C_11
REMARK                            x       y       z     vdW  Elec       q    Type
REMARK                         _______ _______ _______ _____ _____    ______ ____
ROOT
ATOM      1  N   UNL     1      -2.854  -0.114   0.028  0.00  0.00    -0.324 N 
ATOM      2  C   UNL     1      -2.617   1.243   0.034  0.00  0.00    +0.150 C 
ATOM      3  N   UNL     1      -3.605   2.080   0.048  0.00  0.00    -0.113 NA
ATOM      4  S   UNL     1      -2.913   3.604   0.050  0.00  0.00    +0.101 S 
ATOM      5  O   UNL     1      -3.190   4.204   1.308  0.00  0.00    -0.146 OA
ATOM      6  O   UNL     1      -3.215   4.218  -1.195  0.00  0.00    -0.146 OA
ATOM      7  C   UNL     1      -1.198   3.159   0.030  0.00  0.00    +0.123 A 
ATOM      8  C   UNL     1      -1.239   1.757   0.018  0.00  0.00    +0.043 A 
ATOM      9  C   UNL     1      -0.013   1.076   0.008  0.00  0.00    +0.013 A 
ATOM     10  C   UNL     1       1.172   1.777   0.000  0.00  0.00    +0.001 A 
ATOM     11  C   UNL     1       1.181   3.160   0.008  0.00  0.00    +0.002 A 
ATOM     12  C   UNL     1      -0.023   3.851   0.023  0.00  0.00    +0.030 A 
ATOM     13  H   UNL     1      -2.010  -0.820   0.015  0.00  0.00    +0.148 HD
ENDROOT
BRANCH   1  19
ATOM     14  C   UNL     1      -3.401  -4.360   0.400  0.00  0.00    +0.008 C 
ATOM     15  C   UNL     1      -3.377  -2.954  -0.202  0.00  0.00    -0.009 C 
ATOM     16  C   UNL     1      -3.914  -3.002  -1.634  0.00  0.00    +0.003 C 
ATOM     17  C   UNL     1      -3.890  -1.595  -2.235  0.00  0.00    +0.002 C 
ATOM     18  C   UNL     1      -4.767  -0.666  -1.393  0.00  0.00    +0.022 C 
ATOM     19  C   UNL     1      -4.230  -0.617   0.039  0.00  0.00    +0.075 C 
ATOM     20  C   UNL     1      -4.254  -2.024   0.640  0.00  0.00    +0.009 C 
ATOM     21  C   UNL     1      -3.717  -1.976   2.072  0.00  0.00    +0.009 C 
ENDBRANCH   1  19
TORSDOF 1
