REMARK  Name = ZINC57342104
REMARK  8 active torsions:
REMARK  status: ('A' for Active; 'I' for Inactive)
REMARK    1  A    between atoms: C_1  and  C_2
REMARK    2  A    between atoms: C_2  and  O_3
REMARK    3  A    between atoms: O_3  and  C_4
REMARK    4  A    between atoms: C_4  and  C_6
REMARK    5  A    between atoms: C_7  and  C_26
REMARK    6  A    between atoms: N_21  and  C_23
REMARK    7  A    between atoms: C_23  and  C_24
REMARK    8  A    between atoms: C_23  and  C_25
REMARK                            x       y       z     vdW  Elec       q    Type
REMARK                         _______ _______ _______ _____ _____    ______ ____
ROOT
ATOM      1  C   UNL     1       1.451  -2.345  -2.520  0.00  0.00    +0.108 A 
ATOM      2  C   UNL     1       2.774  -2.647  -2.648  0.00  0.00    +0.117 A 
ATOM      3  O   UNL     1       3.008  -3.123  -3.876  0.00  0.00    -0.458 OA
ATOM      4  C   UNL     1       1.879  -3.161  -4.610  0.00  0.00    +0.144 A 
ATOM      5  C   UNL     1       0.836  -2.688  -3.819  0.00  0.00    +0.043 A 
ATOM      6  C   UNL     1      -0.479  -2.614  -4.312  0.00  0.00    +0.021 A 
ATOM      7  C   UNL     1      -0.759  -3.006  -5.583  0.00  0.00    +0.135 A 
ATOM      8  C   UNL     1       0.275  -3.499  -6.416  0.00  0.00    +0.028 A 
ATOM      9  C   UNL     1       1.602  -3.572  -5.932  0.00  0.00    +0.029 A 
ATOM     10  C   UNL     1       2.617  -4.062  -6.768  0.00  0.00    +0.012 A 
ATOM     11  C   UNL     1       2.315  -4.451  -8.038  0.00  0.00    +0.001 A 
ATOM     12  C   UNL     1       1.012  -4.368  -8.520  0.00  0.00    +0.001 A 
ATOM     13  C   UNL     1       0.000  -3.912  -7.729  0.00  0.00    +0.012 A 
ATOM     14  O   UNL     1      -2.022  -2.932  -6.082  0.00  0.00    -0.476 OA
ATOM     15  C   UNL     1      -3.090  -2.783  -5.144  0.00  0.00    +0.319 C 
ATOM     16  N   UNL     1      -2.737  -1.704  -4.206  0.00  0.00    -0.264 NA
ATOM     17  C   UNL     1      -1.569  -2.096  -3.406  0.00  0.00    +0.127 C 
ATOM     18  C   UNL     1       3.813  -2.470  -1.572  0.00  0.00    +0.087 C 
ENDROOT
BRANCH  16  19
ATOM     19  C   UNL     1      -3.876  -1.362  -3.344  0.00  0.00    +0.054 C 
ATOM     20  C   UNL     1      -5.040  -0.871  -4.207  0.00  0.00    +0.024 C 
ATOM     21  C   UNL     1      -4.310  -2.601  -2.558  0.00  0.00    +0.024 C 
ENDBRANCH  16  19
BRANCH   1  22
ATOM     22  C   UNL     1       0.776  -1.799  -1.335  0.00  0.00    +0.343 C 
ATOM     23  O   UNL     1       0.312  -2.551  -0.499  0.00  0.00    -0.245 OA
BRANCH  22  24
ATOM     24  O   UNL     1       0.671  -0.465  -1.174  0.00  0.00    -0.461 OA
BRANCH  24  26
ATOM     25  C   UNL     1      -0.019   1.526   0.010  0.00  0.00    +0.048 C 
ATOM     26  C   UNL     1       0.002  -0.004   0.002  0.00  0.00    +0.229 C 
ENDBRANCH  24  26
ENDBRANCH  22  24
ENDBRANCH   1  22
TORSDOF 4
