REMARK  Name = ZINC65409853
REMARK  2 active torsions:
REMARK  status: ('A' for Active; 'I' for Inactive)
REMARK    1  A    between atoms: C_6  and  C_7
REMARK    2  A    between atoms: C_12  and  C_21
REMARK                            x       y       z     vdW  Elec       q    Type
REMARK                         _______ _______ _______ _____ _____    ______ ____
ROOT
ATOM      1  C   UNL     1      -1.293  -0.775   0.011  0.00  0.00    +0.042 C 
ATOM      2  C   UNL     1      -1.375  -1.648  -1.244  0.00  0.00    +0.062 C 
ATOM      3  C   UNL     1      -2.671  -2.418  -1.244  0.00  0.00    +0.042 C 
ATOM      4  N   UNL     1      -3.557  -2.385  -2.163  0.00  0.00    -0.264 NA
ATOM      5  C   UNL     1      -4.706  -3.228  -1.818  0.00  0.00    +0.239 C 
ATOM      6  N   UNL     1      -4.240  -4.129  -0.739  0.00  0.00    -0.274 NA
ATOM      7  C   UNL     1      -3.110  -3.373  -0.152  0.00  0.00    +0.187 C 
ATOM      8  C   UNL     1      -3.611  -2.566   1.024  0.00  0.00    +0.236 C 
ATOM      9  O   UNL     1      -4.778  -2.611   1.351  0.00  0.00    -0.274 OA
ATOM     10  N   UNL     1      -2.737  -1.798   1.701  0.00  0.00    -0.313 N 
ATOM     11  C   UNL     1      -1.350  -1.661   1.257  0.00  0.00    +0.112 C 
ATOM     12  H   UNL     1      -4.967  -4.280  -0.055  0.00  0.00    +0.125 HD
ATOM     13  H   UNL     1      -3.033  -1.328   2.496  0.00  0.00    +0.149 HD
ENDROOT
BRANCH   1  19
ATOM     14  C   UNL     1      -0.017   1.378   0.010  0.00  0.00    +0.005 A 
ATOM     15  C   UNL     1       1.171   2.086   0.002  0.00  0.00    +0.020 A 
ATOM     16  C   UNL     1       2.378   1.410  -0.013  0.00  0.00    +0.041 A 
ATOM     17  C   UNL     1       2.396   0.027  -0.021  0.00  0.00    +0.020 A 
ATOM     18  C   UNL     1       1.208  -0.679  -0.013  0.00  0.00    +0.005 A 
ATOM     19  C   UNL     1       0.002  -0.004   0.002  0.00  0.00    -0.042 A 
ATOM     20 CL   UNL     1       3.870   2.298  -0.023  0.00  0.00    -0.084 Cl
ENDBRANCH   1  19
BRANCH   5  21
ATOM     21  C   UNL     1      -5.140  -4.031  -3.017  0.00  0.00    +0.146 A 
ATOM     22  N   UNL     1      -5.680  -5.219  -2.982  0.00  0.00    -0.237 NA
ATOM     23  C   UNL     1      -5.936  -5.626  -4.234  0.00  0.00    +0.130 A 
ATOM     24  C   UNL     1      -5.539  -4.653  -5.077  0.00  0.00    +0.104 A 
ATOM     25  N   UNL     1      -5.039  -3.640  -4.305  0.00  0.00    -0.345 N 
ATOM     26  H   UNL     1      -4.678  -2.798  -4.624  0.00  0.00    +0.167 HD
ENDBRANCH   5  21
TORSDOF 2
