REMARK  Name = ZINC09972443
REMARK  7 active torsions:
REMARK  status: ('A' for Active; 'I' for Inactive)
REMARK    1  A    between atoms: C_1  and  C_2
REMARK    2  A    between atoms: C_2  and  C_3
REMARK    3  A    between atoms: C_3  and  C_4
REMARK    4  A    between atoms: C_4  and  C_33
REMARK    5  A    between atoms: C_9  and  C_11
REMARK    6  A    between atoms: C_16  and  O_17
REMARK    7  A    between atoms: N_20  and  C_23
REMARK                            x       y       z     vdW  Elec       q    Type
REMARK                         _______ _______ _______ _____ _____    ______ ____
ROOT
ATOM      1  C   UNL     1      -4.231  -2.338  -1.188  0.00  0.00    +0.048 C 
ATOM      2  C   UNL     1      -2.859  -2.139  -0.589  0.00  0.00    +0.086 C 
ATOM      3  C   UNL     1      -3.315  -1.554   0.807  0.00  0.00    +0.077 C 
ATOM      4  C   UNL     1      -4.327  -2.560   1.220  0.00  0.00    -0.023 C 
ATOM      5  C   UNL     1      -2.010  -1.161   1.338  0.00  0.00    +0.229 C 
ATOM      6  O   UNL     1      -1.632  -1.218   2.488  0.00  0.00    -0.275 OA
ATOM      7  N   UNL     1      -1.309  -0.712   0.247  0.00  0.00    -0.209 N 
ATOM      8  C   UNL     1      -1.891  -1.075  -0.939  0.00  0.00    +0.229 C 
ATOM      9  O   UNL     1      -1.663  -0.622  -2.040  0.00  0.00    -0.275 OA
ATOM     10  N   UNL     1      -4.974  -2.972  -0.058  0.00  0.00    +0.396 N 
ATOM     11  H   UNL     1      -4.941  -3.994  -0.151  0.00  0.00    -0.083 HD
ATOM     12  H   UNL     1      -5.953  -2.660  -0.068  0.00  0.00    -0.083 HD
ENDROOT
BRANCH   7  13
ATOM     13  C   UNL     1      -0.126   0.030   0.336  0.00  0.00    +0.052 A 
ATOM     14  C   UNL     1      -0.171   1.407   0.383  0.00  0.00    +0.024 A 
ATOM     15  C   UNL     1       0.999   2.155   0.472  0.00  0.00    +0.002 A 
ATOM     16  C   UNL     1       2.218   1.550   0.515  0.00  0.00    +0.008 A 
ATOM     17  C   UNL     1       2.307   0.148   0.471  0.00  0.00    -0.016 A 
ATOM     18  C   UNL     1       1.123  -0.624   0.380  0.00  0.00    +0.004 A 
ATOM     19  C   UNL     1       1.214  -2.024   0.335  0.00  0.00    +0.010 A 
ATOM     20  C   UNL     1       2.436  -2.622   0.380  0.00  0.00    +0.001 A 
ATOM     21  C   UNL     1       3.602  -1.863   0.469  0.00  0.00    +0.001 A 
ATOM     22  C   UNL     1       3.552  -0.504   0.514  0.00  0.00    +0.008 A 
ENDBRANCH   7  13
BRANCH   4  23
ATOM     23  C   UNL     1      -3.660  -3.739   1.881  0.00  0.00    -0.019 A 
ATOM     24  C   UNL     1      -3.290  -4.836   1.127  0.00  0.00    +0.005 A 
ATOM     25  C   UNL     1      -2.674  -5.916   1.731  0.00  0.00    +0.000 A 
ATOM     26  C   UNL     1      -2.437  -5.906   3.093  0.00  0.00    +0.004 A 
ATOM     27  C   UNL     1      -2.810  -4.814   3.853  0.00  0.00    +0.045 A 
ATOM     28  C   UNL     1      -3.423  -3.726   3.247  0.00  0.00    +0.118 A 
BRANCH  28  29
ATOM     29  O   UNL     1      -3.791  -2.651   3.992  0.00  0.00    -0.507 OA
ATOM     30  H   UNL     1      -4.688  -2.708   4.348  0.00  0.00    +0.292 HD
ENDBRANCH  28  29
ENDBRANCH   4  23
BRANCH   1  31
ATOM     31  C   UNL     1      -4.165  -3.252  -2.384  0.00  0.00    +0.346 C 
ATOM     32  O   UNL     1      -3.137  -3.355  -3.010  0.00  0.00    -0.248 OA
ATOM     33  O   UNL     1      -5.249  -3.953  -2.753  0.00  0.00    -0.248 OA
ENDBRANCH   1  31
BRANCH   1  34
ATOM     34  C   UNL     1      -4.858  -0.995  -1.567  0.00  0.00    -0.001 C 
BRANCH  34  36
ATOM     35  C   UNL     1      -6.912   0.120  -2.453  0.00  0.00    +0.004 C 
ATOM     36  C   UNL     1      -6.284  -1.223  -2.074  0.00  0.00    -0.004 C 
ENDBRANCH  34  36
ENDBRANCH   1  34
TORSDOF 6
