REMARK  Name = ZINC36967003
REMARK  5 active torsions:
REMARK  status: ('A' for Active; 'I' for Inactive)
REMARK    1  A    between atoms: C_1  and  C_2
REMARK    2  A    between atoms: C_2  and  C_4
REMARK    3  A    between atoms: C_2  and  N_12
REMARK    4  A    between atoms: N_12  and  C_13
REMARK    5  A    between atoms: C_18  and  N_19
REMARK                            x       y       z     vdW  Elec       q    Type
REMARK                         _______ _______ _______ _____ _____    ______ ____
ROOT
ATOM      1  N   UNL     1       0.539  -1.181  -1.046  0.00  0.00    -0.335 N 
ATOM      2  H   UNL     1      -0.016  -1.447  -1.796  0.00  0.00    +0.147 HD
ENDROOT
BRANCH   1   3
ATOM      3  C   UNL     1       1.932  -1.175  -1.175  0.00  0.00    +0.058 A 
ATOM      4  C   UNL     1       2.732  -0.940  -0.065  0.00  0.00    +0.028 A 
ATOM      5  C   UNL     1       4.107  -0.934  -0.195  0.00  0.00    +0.040 A 
ATOM      6  C   UNL     1       4.688  -1.162  -1.431  0.00  0.00    +0.126 A 
ATOM      7  C   UNL     1       3.892  -1.395  -2.540  0.00  0.00    +0.073 A 
ATOM      8  C   UNL     1       2.516  -1.408  -2.413  0.00  0.00    +0.150 A 
ATOM      9  F   UNL     1       6.033  -1.156  -1.556  0.00  0.00    -0.205 F 
BRANCH   8  10
ATOM     10  N   UNL     1       1.666  -1.664  -3.597  0.00  0.00    +0.058 N 
ATOM     11  O   UNL     1       2.008  -2.478  -4.423  0.00  0.00    -0.126 OA
ATOM     12  O   UNL     1       0.629  -1.060  -3.739  0.00  0.00    -0.126 OA
ENDBRANCH   8  10
ENDBRANCH   1   3
BRANCH   1  14
ATOM     13  C   UNL     1      -0.225   0.735   0.267  0.00  0.00    +0.033 C 
ATOM     14  C   UNL     1      -0.080  -0.787   0.222  0.00  0.00    +0.099 C 
BRANCH  14  15
ATOM     15  C   UNL     1      -1.441  -1.425   0.335  0.00  0.00    -0.008 A 
ATOM     16  C   UNL     1      -2.165  -1.716  -0.806  0.00  0.00    +0.027 A 
ATOM     17  C   UNL     1      -3.414  -2.301  -0.702  0.00  0.00    +0.041 A 
ATOM     18  C   UNL     1      -3.939  -2.594   0.544  0.00  0.00    +0.021 A 
ATOM     19  C   UNL     1      -3.215  -2.303   1.685  0.00  0.00    +0.022 A 
ATOM     20  C   UNL     1      -1.963  -1.723   1.581  0.00  0.00    +0.046 A 
ATOM     21 CL   UNL     1      -1.051  -1.364   3.013  0.00  0.00    -0.083 Cl
ATOM     22 CL   UNL     1      -4.324  -2.666  -2.135  0.00  0.00    -0.084 Cl
ENDBRANCH  14  15
ENDBRANCH   1  14
TORSDOF 4
