REMARK  Name = ZINC00684061
REMARK  5 active torsions:
REMARK  status: ('A' for Active; 'I' for Inactive)
REMARK    1  A    between atoms: C_1  and  C_2
REMARK    2  A    between atoms: C_5  and  C_8
REMARK    3  A    between atoms: C_8  and  S_9
REMARK    4  A    between atoms: S_9  and  C_10
REMARK    5  A    between atoms: C_23  and  C_26
REMARK                            x       y       z     vdW  Elec       q    Type
REMARK                         _______ _______ _______ _____ _____    ______ ____
ROOT
ATOM      1  C   UNL     1      -0.079   9.223  -2.082  0.00  0.00    +0.213 A 
ATOM      2  N   UNL     1      -0.460   7.962  -1.897  0.00  0.00    -0.184 NA
ATOM      3  C   UNL     1       0.431   7.069  -1.501  0.00  0.00    +0.248 A 
ATOM      4  C   UNL     1       1.762   7.489  -1.281  0.00  0.00    +0.156 A 
ATOM      5  N   UNL     1       2.077   8.759  -1.486  0.00  0.00    -0.141 NA
ATOM      6  N   UNL     1       1.178   9.596  -1.875  0.00  0.00    -0.122 NA
ATOM      7  C   UNL     1       2.772   6.509  -0.829  0.00  0.00    +0.028 A 
ATOM      8  C   UNL     1       4.024   6.427  -1.425  0.00  0.00    +0.012 A 
ATOM      9  C   UNL     1       4.951   5.519  -0.951  0.00  0.00    +0.001 A 
ATOM     10  C   UNL     1       4.640   4.690   0.112  0.00  0.00    +0.002 A 
ATOM     11  C   UNL     1       3.394   4.756   0.710  0.00  0.00    +0.024 A 
ATOM     12  C   UNL     1       2.454   5.656   0.244  0.00  0.00    +0.039 A 
ATOM     13  N   UNL     1       1.180   5.739   0.815  0.00  0.00    -0.305 N 
ATOM     14  C   UNL     1       0.029   5.302   0.032  0.00  0.00    +0.295 C 
ATOM     15  O   UNL     1       0.093   5.772  -1.310  0.00  0.00    -0.449 OA
ATOM     16  H   UNL     1       1.064   6.082   1.715  0.00  0.00    +0.150 HD
ENDROOT
BRANCH  14  17
ATOM     17  C   UNL     1      -0.015   3.796   0.023  0.00  0.00    +0.029 A 
ATOM     18  C   UNL     1      -0.376   3.110  -1.127  0.00  0.00    +0.012 A 
ATOM     19  C   UNL     1      -0.398   1.725  -1.090  0.00  0.00    +0.020 A 
ATOM     20  C   UNL     1      -0.073   1.077   0.087  0.00  0.00    +0.111 A 
ATOM     21  N   UNL     1       0.266   1.762   1.162  0.00  0.00    -0.263 NA
ATOM     22  C   UNL     1       0.303   3.080   1.161  0.00  0.00    +0.119 A 
ENDBRANCH  14  17
BRANCH   1  23
ATOM     23  S   UNL     1      -1.261  10.417  -2.611  0.00  0.00    -0.080 S 
BRANCH  23  24
ATOM     24  C   UNL     1      -0.210  11.888  -2.689  0.00  0.00    +0.112 C 
BRANCH  24  29
ATOM     25  C   UNL     1      -3.362  16.422  -4.391  0.00  0.00    +0.044 C 
ATOM     26  C   UNL     1      -2.539  15.240  -3.947  0.00  0.00    -0.050 A 
ATOM     27  C   UNL     1      -2.424  14.945  -2.601  0.00  0.00    +0.003 A 
ATOM     28  C   UNL     1      -1.670  13.860  -2.194  0.00  0.00    +0.005 A 
ATOM     29  C   UNL     1      -1.032  13.071  -3.132  0.00  0.00    -0.037 A 
ATOM     30  C   UNL     1      -1.143  13.369  -4.478  0.00  0.00    +0.005 A 
ATOM     31  C   UNL     1      -1.900  14.452  -4.885  0.00  0.00    +0.003 A 
ENDBRANCH  24  29
ENDBRANCH  23  24
ENDBRANCH   1  23
TORSDOF 4
