REMARK  Name = ZINC43735964
REMARK  7 active torsions:
REMARK  status: ('A' for Active; 'I' for Inactive)
REMARK    1  A    between atoms: C_1  and  C_2
REMARK    2  A    between atoms: C_2  and  C_3
REMARK    3  A    between atoms: C_3  and  C_4
REMARK    4  A    between atoms: C_22  and  C_36
REMARK    5  A    between atoms: C_25  and  O_35
REMARK    6  A    between atoms: C_28  and  C_34
REMARK    7  A    between atoms: C_29  and  C_31
REMARK                            x       y       z     vdW  Elec       q    Type
REMARK                         _______ _______ _______ _____ _____    ______ ____
ROOT
ATOM      1  C   UNL     1       0.456  -1.595  -1.303  0.00  0.00    +0.252 C 
ATOM      2  O   UNL     1      -0.871  -2.177  -1.458  0.00  0.00    -0.345 OA
ATOM      3  C   UNL     1      -0.820  -2.821  -2.690  0.00  0.00    +0.165 C 
ATOM      4  C   UNL     1      -1.563  -4.043  -3.147  0.00  0.00    +0.039 C 
ATOM      5  C   UNL     1      -0.581  -4.727  -4.139  0.00  0.00    +0.004 C 
ATOM      6  C   UNL     1      -1.212  -4.936  -5.483  0.00  0.00    -0.000 C 
ATOM      7  C   UNL     1      -0.531  -6.087  -6.236  0.00  0.00    +0.008 C 
ATOM      8  C   UNL     1      -1.483  -6.544  -7.343  0.00  0.00    +0.032 C 
ATOM      9  C   UNL     1      -1.958  -5.365  -8.141  0.00  0.00    -0.056 C 
ATOM     10  C   UNL     1      -2.583  -5.597  -9.319  0.00  0.00    +0.051 C 
ATOM     11  C   UNL     1      -3.067  -4.377 -10.020  0.00  0.00    +0.179 C 
ATOM     12  O   UNL     1      -2.965  -4.229 -11.224  0.00  0.00    -0.288 OA
ATOM     13  C   UNL     1      -3.688  -3.352  -9.136  0.00  0.00    +0.047 C 
ATOM     14  C   UNL     1      -3.049  -3.146  -7.964  0.00  0.00    -0.012 C 
ATOM     15  C   UNL     1      -1.798  -3.944  -7.720  0.00  0.00    +0.013 C 
ATOM     16  C   UNL     1      -1.176  -3.707  -6.373  0.00  0.00    +0.035 C 
ATOM     17  C   UNL     1       0.273  -3.228  -6.503  0.00  0.00    +0.120 C 
ATOM     18  C   UNL     1       0.766  -2.792  -5.130  0.00  0.00    +0.042 C 
ATOM     19  C   UNL     1       0.712  -3.897  -4.126  0.00  0.00    +0.016 C 
ATOM     20  C   UNL     1       0.676  -3.323  -2.707  0.00  0.00    +0.204 C 
ATOM     21  O   UNL     1       1.293  -2.089  -2.392  0.00  0.00    -0.330 OA
ATOM     22  C   UNL     1       1.930  -4.802  -4.321  0.00  0.00    +0.015 C 
ATOM     23  C   UNL     1      -0.778  -3.362  -8.700  0.00  0.00    +0.020 C 
ENDROOT
BRANCH  20  24
ATOM     24  C   UNL     1       0.938  -4.375  -1.659  0.00  0.00    +0.390 C 
ATOM     25  O   UNL     1       0.302  -5.415  -1.667  0.00  0.00    -0.243 OA
ATOM     26  O   UNL     1       1.786  -4.185  -0.804  0.00  0.00    -0.243 OA
ENDBRANCH  20  24
BRANCH  17  27
ATOM     27  O   UNL     1       1.088  -4.294  -6.993  0.00  0.00    -0.391 OA
ATOM     28  H   UNL     1       2.020  -4.060  -7.099  0.00  0.00    +0.210 HD
ENDBRANCH  17  27
BRANCH   1  29
ATOM     29  C   UNL     1       0.364  -0.069  -1.372  0.00  0.00    +0.061 C 
BRANCH  29  31
ATOM     30  C   UNL     1      -0.504   1.976  -0.228  0.00  0.00    +0.004 C 
ATOM     31  C   UNL     1      -0.411   0.450  -0.159  0.00  0.00    +0.002 C 
ENDBRANCH  29  31
ENDBRANCH   1  29
TORSDOF 4
