REMARK  Name = ZINC67537963
REMARK  9 active torsions:
REMARK  status: ('A' for Active; 'I' for Inactive)
REMARK    1  A    between atoms: C_1  and  C_2
REMARK    2  A    between atoms: C_9  and  C_11
REMARK    3  A    between atoms: C_11  and  C_13
REMARK    4  A    between atoms: C_11  and  N_14
REMARK    5  A    between atoms: N_17  and  C_18
REMARK    6  A    between atoms: C_21  and  N_24
REMARK    7  A    between atoms: C_25  and  C_27
REMARK    8  A    between atoms: C_27  and  C_28
REMARK    9  A    between atoms: C_27  and  C_29
REMARK                            x       y       z     vdW  Elec       q    Type
REMARK                         _______ _______ _______ _____ _____    ______ ____
ROOT
ATOM      1  N   UNL     1       2.579   0.967   4.038  0.00  0.00    -0.288 N 
ATOM      2  C   UNL     1       2.939   0.683   5.305  0.00  0.00    +0.304 C 
ATOM      3  O   UNL     1       3.068  -0.473   5.656  0.00  0.00    -0.252 OA
ATOM      4  N   UNL     1       3.155   1.682   6.184  0.00  0.00    -0.269 N 
ATOM      5  H   UNL     1       2.475   1.890   3.758  0.00  0.00    +0.151 HD
ATOM      6  H   UNL     1       2.979   2.601   5.927  0.00  0.00    +0.156 HD
ENDROOT
BRANCH   4   7
ATOM      7  C   UNL     1       3.635   1.393   7.468  0.00  0.00    +0.035 A 
ATOM      8  C   UNL     1       3.229   2.164   8.550  0.00  0.00    +0.025 A 
ATOM      9  C   UNL     1       3.703   1.880   9.816  0.00  0.00    +0.025 A 
ATOM     10  C   UNL     1       4.584   0.823  10.007  0.00  0.00    +0.034 A 
ATOM     11  C   UNL     1       4.989   0.053   8.925  0.00  0.00    +0.025 A 
ATOM     12  C   UNL     1       4.511   0.334   7.660  0.00  0.00    +0.025 A 
BRANCH  10  13
ATOM     13  N   UNL     1       5.064   0.535  11.291  0.00  0.00    -0.285 N 
ATOM     14  C   UNL     1       4.276   0.735  12.366  0.00  0.00    +0.220 C 
ATOM     15  O   UNL     1       3.122   1.077  12.216  0.00  0.00    -0.275 OA
ATOM     16  H   UNL     1       5.964   0.192  11.406  0.00  0.00    +0.155 HD
BRANCH  14  17
ATOM     17  C   UNL     1       4.829   0.534  13.753  0.00  0.00    +0.069 C 
ATOM     18  C   UNL     1       3.736   0.824  14.784  0.00  0.00    +0.017 C 
ATOM     19  C   UNL     1       5.304  -0.912  13.907  0.00  0.00    +0.017 C 
ENDBRANCH  14  17
ENDBRANCH  10  13
ENDBRANCH   4   7
BRANCH   1  20
ATOM     20  C   UNL     1       2.343  -0.118   3.083  0.00  0.00    +0.157 C 
ATOM     21  C   UNL     1       3.672  -0.542   2.455  0.00  0.00    +0.038 C 
BRANCH  20  29
ATOM     22  C   UNL     1       0.076   1.440  -0.067  0.00  0.00    +0.028 C 
ATOM     23  C   UNL     1      -0.020  -0.082   0.062  0.00  0.00    +0.073 C 
ATOM     24  C   UNL     1       0.485  -0.739  -1.226  0.00  0.00    +0.022 C 
ATOM     25  C   UNL     1       0.517  -2.258  -1.040  0.00  0.00    +0.003 C 
ATOM     26  C   UNL     1       1.481  -2.614   0.094  0.00  0.00    +0.019 C 
ATOM     27  C   UNL     1       0.988  -1.978   1.397  0.00  0.00    +0.108 C 
ATOM     28  N   UNL     1       0.812  -0.534   1.185  0.00  0.00    -0.297 N 
ATOM     29  C   UNL     1       1.406   0.357   2.002  0.00  0.00    +0.236 C 
ATOM     30  O   UNL     1       1.187   1.543   1.869  0.00  0.00    -0.274 OA
ENDBRANCH  20  29
ENDBRANCH   1  20
TORSDOF 5
