REMARK  Name = ZINC02633674
REMARK  3 active torsions:
REMARK  status: ('A' for Active; 'I' for Inactive)
REMARK    1  A    between atoms: C_6  and  O_7
REMARK    2  A    between atoms: O_7  and  C_8
REMARK    3  A    between atoms: C_8  and  C_9
REMARK                            x       y       z     vdW  Elec       q    Type
REMARK                         _______ _______ _______ _____ _____    ______ ____
ROOT
ATOM      1  C   UNL     1      -0.959   2.258   6.145  0.00  0.00    +0.046 A 
ATOM      2  C   UNL     1      -0.411   2.513   7.369  0.00  0.00    +0.015 A 
ATOM      3  C   UNL     1      -1.235   2.588   8.497  0.00  0.00    +0.021 A 
ATOM      4  C   UNL     1      -2.625   2.407   8.367  0.00  0.00    +0.143 A 
ATOM      5  C   UNL     1      -3.165   2.155   7.116  0.00  0.00    +0.092 A 
ATOM      6  C   UNL     1      -2.334   2.083   6.010  0.00  0.00    +0.125 A 
ATOM      7  O   UNL     1      -3.414   2.481   9.460  0.00  0.00    -0.422 OA
ATOM      8  C   UNL     1      -2.906   2.723  10.677  0.00  0.00    +0.341 A 
ATOM      9  O   UNL     1      -3.659   2.780  11.633  0.00  0.00    -0.245 OA
ATOM     10  C   UNL     1      -1.520   2.914  10.882  0.00  0.00    +0.041 A 
ATOM     11  C   UNL     1      -0.674   2.853   9.824  0.00  0.00    -0.027 A 
ATOM     12  C   UNL     1       0.750   3.086  10.275  0.00  0.00    +0.036 C 
ATOM     13  C   UNL     1       0.725   2.871  11.804  0.00  0.00    +0.010 C 
ATOM     14  C   UNL     1      -0.744   3.195  12.151  0.00  0.00    +0.043 C 
ENDROOT
BRANCH   6  15
ATOM     15  O   UNL     1      -2.864   1.836   4.785  0.00  0.00    -0.487 OA
BRANCH  15  16
ATOM     16  C   UNL     1      -1.954   1.775   3.684  0.00  0.00    +0.268 C 
BRANCH  16  17
ATOM     17  C   UNL     1      -2.718   1.493   2.416  0.00  0.00    +0.033 A 
ATOM     18  C   UNL     1      -4.090   1.339   2.456  0.00  0.00    +0.030 A 
ATOM     19  C   UNL     1      -4.792   1.081   1.292  0.00  0.00    +0.042 A 
ATOM     20  C   UNL     1      -4.120   0.976   0.087  0.00  0.00    +0.029 A 
ATOM     21  C   UNL     1      -2.747   1.129   0.043  0.00  0.00    +0.022 A 
ATOM     22  C   UNL     1      -2.043   1.389   1.208  0.00  0.00    +0.135 A 
ATOM     23  O   UNL     1      -0.689   1.550   1.180  0.00  0.00    -0.465 OA
ATOM     24  C   UNL     1      -0.013   1.086   0.008  0.00  0.00    +0.394 C 
ATOM     25  O   UNL     1      -0.712   1.564  -1.147  0.00  0.00    -0.339 OA
ATOM     26  C   UNL     1      -2.025   1.010  -1.276  0.00  0.00    +0.202 C 
ATOM     27 CL   UNL     1      -6.516   0.889   1.343  0.00  0.00    -0.084 Cl
ENDBRANCH  16  17
ENDBRANCH  15  16
ENDBRANCH   6  15
TORSDOF 3
