REMARK  Name = ZINC05777133
REMARK  3 active torsions:
REMARK  status: ('A' for Active; 'I' for Inactive)
REMARK    1  A    between atoms: C_8  and  C_10
REMARK    2  A    between atoms: N_12  and  N_13
REMARK    3  A    between atoms: C_14  and  C_15
REMARK                            x       y       z     vdW  Elec       q    Type
REMARK                         _______ _______ _______ _____ _____    ______ ____
ROOT
ATOM      1  N   UNL     1      -2.395  -0.153   0.023  0.00  0.00    -0.187 NA
ATOM      2  C   UNL     1      -1.254  -0.773   0.009  0.00  0.00    +0.145 C 
ENDROOT
BRANCH   2   3
ATOM      3  C   UNL     1       0.002  -0.004   0.002  0.00  0.00    +0.077 A 
ATOM      4  C   UNL     1       1.208  -0.640  -0.013  0.00  0.00    +0.209 A 
ATOM      5  O   UNL     1       2.367   0.021  -0.021  0.00  0.00    -0.462 OA
ATOM      6  C   UNL     1       2.454   1.365  -0.015  0.00  0.00    +0.138 A 
ATOM      7  C   UNL     1       3.696   1.992  -0.024  0.00  0.00    +0.048 A 
ATOM      8  C   UNL     1       3.774   3.368  -0.017  0.00  0.00    +0.023 A 
ATOM      9  C   UNL     1       2.623   4.144  -0.002  0.00  0.00    +0.042 A 
ATOM     10  C   UNL     1       1.382   3.543   0.007  0.00  0.00    +0.035 A 
ATOM     11  C   UNL     1       1.291   2.152   0.001  0.00  0.00    +0.066 A 
ATOM     12  C   UNL     1      -0.018   1.470   0.010  0.00  0.00    +0.201 A 
ATOM     13  O   UNL     1      -1.064   2.095   0.019  0.00  0.00    -0.286 OA
ATOM     14 CL   UNL     1       2.746   5.875   0.006  0.00  0.00    -0.084 Cl
ENDBRANCH   2   3
BRANCH   1  17
ATOM     15  C   UNL     1      -4.774  -0.242   0.044  0.00  0.00    +0.299 C 
ATOM     16  O   UNL     1      -4.806   0.975   0.051  0.00  0.00    -0.265 OA
ATOM     17  N   UNL     1      -3.590  -0.885   0.030  0.00  0.00    -0.200 N 
ATOM     18  H   UNL     1      -3.565  -1.855   0.025  0.00  0.00    +0.178 HD
BRANCH  15  26
ATOM     19  C   UNL     1     -10.173  -2.952   0.078  0.00  0.00    +0.001 A 
ATOM     20  C   UNL     1      -9.385  -4.095   0.065  0.00  0.00    +0.004 A 
ATOM     21  C   UNL     1      -8.010  -4.003   0.053  0.00  0.00    +0.047 A 
ATOM     22  C   UNL     1      -7.400  -2.754   0.055  0.00  0.00    +0.136 A 
ATOM     23  C   UNL     1      -8.203  -1.599   0.068  0.00  0.00    +0.021 A 
ATOM     24  C   UNL     1      -9.596  -1.714   0.080  0.00  0.00    +0.011 A 
ATOM     25  C   UNL     1      -7.274  -0.470   0.066  0.00  0.00    +0.063 A 
ATOM     26  C   UNL     1      -6.027  -1.009   0.052  0.00  0.00    +0.192 A 
ATOM     27  O   UNL     1      -6.113  -2.355   0.039  0.00  0.00    -0.450 OA
ENDBRANCH  15  26
ENDBRANCH   1  17
TORSDOF 3
