REMARK  Name = ZINC43746890
REMARK  6 active torsions:
REMARK  status: ('A' for Active; 'I' for Inactive)
REMARK    1  A    between atoms: C_4  and  C_7
REMARK    2  A    between atoms: C_7  and  O_8
REMARK    3  A    between atoms: O_8  and  C_9
REMARK    4  A    between atoms: C_18  and  C_19
REMARK    5  A    between atoms: C_19  and  C_21
REMARK    6  A    between atoms: C_19  and  N_24
REMARK                            x       y       z     vdW  Elec       q    Type
REMARK                         _______ _______ _______ _____ _____    ______ ____
ROOT
ATOM      1  C   UNL     1      10.020  -4.233   1.452  0.00  0.00    +0.080 C 
ENDROOT
BRANCH   1   2
ATOM      2  N   UNL     1      10.691  -5.282   2.231  0.00  0.00    +0.392 N 
ATOM      3  C   UNL     1      11.767  -5.870   1.428  0.00  0.00    -0.072 C 
ATOM      4  C   UNL     1      12.490  -6.966   2.197  0.00  0.00    -0.007 C 
ATOM      5  C   UNL     1      11.504  -8.042   2.662  0.00  0.00    +0.011 C 
ATOM      6  C   UNL     1      10.424  -7.344   3.498  0.00  0.00    +0.020 C 
ATOM      7  C   UNL     1       9.716  -6.319   2.596  0.00  0.00    -0.068 C 
ATOM      8  C   UNL     1      11.085  -6.590   4.630  0.00  0.00    +0.023 A 
ATOM      9  C   UNL     1      10.369  -6.420   5.772  0.00  0.00    +0.022 A 
ATOM     10  C   UNL     1      10.895  -5.677   6.836  0.00  0.00    +0.007 A 
ATOM     11  C   UNL     1      12.126  -5.107   6.697  0.00  0.00    +0.070 A 
ATOM     12  C   UNL     1      12.837  -5.301   5.504  0.00  0.00    +0.251 A 
ATOM     13  O   UNL     1      13.912  -4.745   5.344  0.00  0.00    -0.268 OA
ATOM     14  N   UNL     1      12.341  -6.098   4.526  0.00  0.00    -0.312 N 
ATOM     15  C   UNL     1      13.226  -6.415   3.407  0.00  0.00    +0.126 C 
ATOM     16  H   UNL     1      11.082  -4.878   3.069  0.00  0.00    -0.080 HD
ENDBRANCH   1   2
BRANCH   1  26
ATOM     17  C   UNL     1       5.319  -1.605   1.467  0.00  0.00    +0.123 A 
ATOM     18  C   UNL     1       6.046  -2.006   0.348  0.00  0.00    +0.046 A 
ATOM     19  C   UNL     1       7.231  -2.669   0.494  0.00  0.00    +0.014 A 
ATOM     20  C   UNL     1       7.719  -2.948   1.772  0.00  0.00    +0.002 A 
ATOM     21  C   UNL     1       6.991  -2.546   2.906  0.00  0.00    +0.050 A 
ATOM     22  C   UNL     1       5.788  -1.866   2.740  0.00  0.00    +0.071 A 
ATOM     23  N   UNL     1       7.705  -2.949   4.012  0.00  0.00    -0.360 N 
ATOM     24  H   UNL     1       7.436  -2.803   4.933  0.00  0.00    +0.165 HD
ATOM     25  C   UNL     1       8.851  -3.588   3.619  0.00  0.00    +0.086 A 
ATOM     26  C   UNL     1       8.919  -3.620   2.279  0.00  0.00    -0.025 A 
BRANCH  17  27
ATOM     27  O   UNL     1       4.141  -0.946   1.304  0.00  0.00    -0.487 OA
BRANCH  27  28
ATOM     28  C   UNL     1       3.711  -0.707  -0.038  0.00  0.00    +0.264 C 
BRANCH  28  32
ATOM     29  C   UNL     1      -0.017   1.378   0.010  0.00  0.00    +0.000 A 
ATOM     30  C   UNL     1       1.171   2.086   0.002  0.00  0.00    +0.000 A 
ATOM     31  C   UNL     1       2.377   1.411  -0.013  0.00  0.00    +0.007 A 
ATOM     32  C   UNL     1       2.396   0.029  -0.020  0.00  0.00    -0.010 A 
ATOM     33  C   UNL     1       1.208  -0.679  -0.012  0.00  0.00    +0.007 A 
ATOM     34  C   UNL     1       0.002  -0.004   0.002  0.00  0.00    +0.000 A 
ENDBRANCH  28  32
ENDBRANCH  27  28
ENDBRANCH  17  27
ENDBRANCH   1  26
BRANCH   1  35
ATOM     35  C   UNL     1      11.018  -3.168   1.077  0.00  0.00    +0.347 C 
ATOM     36  O   UNL     1      12.131  -3.175   1.573  0.00  0.00    -0.248 OA
ATOM     37  O   UNL     1      10.712  -2.300   0.277  0.00  0.00    -0.248 OA
ENDBRANCH   1  35
TORSDOF 6
