REMARK  Name = ZINC65034728
REMARK  6 active torsions:
REMARK  status: ('A' for Active; 'I' for Inactive)
REMARK    1  A    between atoms: C_1  and  C_2
REMARK    2  A    between atoms: N_10  and  C_13
REMARK    3  A    between atoms: N_16  and  S_19
REMARK    4  A    between atoms: S_19  and  C_22
REMARK    5  A    between atoms: C_25  and  C_29
REMARK    6  A    between atoms: C_26  and  C_28
REMARK                            x       y       z     vdW  Elec       q    Type
REMARK                         _______ _______ _______ _____ _____    ______ ____
ROOT
ATOM      1  C   UNL     1       0.087  -2.754   4.898  0.00  0.00    +0.094 C 
ATOM      2  C   UNL     1      -1.162  -2.359   5.690  0.00  0.00    +0.042 C 
ATOM      3  C   UNL     1      -1.153  -3.079   7.042  0.00  0.00    +0.111 C 
ATOM      4  N   UNL     1       0.113  -2.784   7.726  0.00  0.00    -0.176 NA
ATOM      5  C   UNL     1       1.375  -3.041   7.019  0.00  0.00    +0.111 C 
ATOM      6  C   UNL     1       1.338  -2.322   5.667  0.00  0.00    +0.042 C 
ENDROOT
BRANCH   1  16
ATOM      7  C   UNL     1      -0.018   1.503   0.010  0.00  0.00    +0.046 C 
ATOM      8  C   UNL     1       0.002  -0.004   0.002  0.00  0.00    -0.024 A 
ATOM      9  C   UNL     1       0.006  -0.689  -1.192  0.00  0.00    +0.005 A 
ATOM     10  C   UNL     1       0.025  -2.078  -1.216  0.00  0.00    +0.001 A 
ATOM     11  C   UNL     1       0.040  -2.798  -0.042  0.00  0.00    +0.015 A 
ATOM     12  C   UNL     1       0.037  -2.124   1.177  0.00  0.00    +0.065 A 
ATOM     13  C   UNL     1       0.023  -0.712   1.205  0.00  0.00    +0.081 A 
ATOM     14  N   UNL     1       0.025  -0.077   2.404  0.00  0.00    -0.237 NA
ATOM     15  C   UNL     1       0.045  -0.736   3.523  0.00  0.00    +0.202 A 
ATOM     16  N   UNL     1       0.065  -2.093   3.591  0.00  0.00    -0.296 N 
ATOM     17  C   UNL     1       0.053  -2.840   2.462  0.00  0.00    +0.262 A 
ATOM     18  O   UNL     1       0.069  -4.056   2.508  0.00  0.00    -0.267 OA
ENDBRANCH   1  16
BRANCH   4  19
ATOM     19  S   UNL     1       0.118  -2.173   9.265  0.00  0.00    +0.061 S 
ATOM     20  O   UNL     1       1.356  -1.493   9.428  0.00  0.00    -0.153 OA
ATOM     21  O   UNL     1      -1.135  -1.530   9.451  0.00  0.00    -0.153 OA
BRANCH  19  22
ATOM     22  C   UNL     1       0.149  -3.545  10.370  0.00  0.00    +0.106 A 
ATOM     23  C   UNL     1      -1.036  -4.104  10.811  0.00  0.00    +0.029 A 
ATOM     24  C   UNL     1      -1.013  -5.181  11.677  0.00  0.00    +0.005 A 
ATOM     25  C   UNL     1       0.196  -5.698  12.104  0.00  0.00    -0.047 A 
ATOM     26  C   UNL     1       1.381  -5.140  11.664  0.00  0.00    -0.046 A 
ATOM     27  C   UNL     1       1.357  -4.066  10.793  0.00  0.00    +0.032 A 
ATOM     28  C   UNL     1       2.699  -5.703  12.129  0.00  0.00    +0.044 C 
ATOM     29  C   UNL     1       0.222  -6.871  13.050  0.00  0.00    +0.044 C 
ENDBRANCH  19  22
ENDBRANCH   4  19
TORSDOF 3
