REMARK  Name = ZINC30498867
REMARK  11 active torsions:
REMARK  status: ('A' for Active; 'I' for Inactive)
REMARK    1  A    between atoms: C_1  and  C_2
REMARK    2  A    between atoms: C_2  and  C_3
REMARK    3  A    between atoms: N_5  and  C_6
REMARK    4  A    between atoms: C_9  and  C_12
REMARK    5  A    between atoms: C_12  and  C_14
REMARK    6  A    between atoms: C_12  and  N_15
REMARK    7  A    between atoms: N_15  and  C_16
REMARK    8  A    between atoms: C_16  and  C_18
REMARK    9  A    between atoms: C_16  and  C_19
REMARK   10  A    between atoms: N_21  and  C_22
REMARK   11  A    between atoms: C_27  and  C_28
REMARK                            x       y       z     vdW  Elec       q    Type
REMARK                         _______ _______ _______ _____ _____    ______ ____
ROOT
ATOM      1  N   UNL     1       2.194  -0.473   0.600  0.00  0.00    +0.391 N 
ATOM      2  H   UNL     1       2.587  -0.602   1.619  0.00  0.00    -0.084 HD
ATOM      3  H   UNL     1       2.840   0.222   0.043  0.00  0.00    -0.084 HD
ENDROOT
BRANCH   1   4
ATOM      4  C   UNL     1       2.169  -1.772  -0.084  0.00  0.00    -0.043 C 
ATOM      5  C   UNL     1       2.238  -1.554  -1.597  0.00  0.00    -0.009 C 
BRANCH   4   9
ATOM      6  C   UNL     1       5.520  -4.109   1.172  0.00  0.00    +0.033 A 
ATOM      7  C   UNL     1       4.281  -4.709   0.994  0.00  0.00    +0.023 A 
ATOM      8  C   UNL     1       3.200  -3.952   0.588  0.00  0.00    +0.004 A 
ATOM      9  C   UNL     1       3.350  -2.596   0.359  0.00  0.00    -0.062 A 
ATOM     10  C   UNL     1       4.584  -1.996   0.531  0.00  0.00    +0.004 A 
ATOM     11  C   UNL     1       5.668  -2.747   0.942  0.00  0.00    +0.023 A 
BRANCH   6  14
ATOM     12  C   UNL     1       6.743  -6.149   1.167  0.00  0.00    +0.217 C 
ATOM     13  O   UNL     1       5.962  -6.603   0.358  0.00  0.00    -0.275 OA
ATOM     14  N   UNL     1       6.617  -4.873   1.583  0.00  0.00    -0.286 N 
ATOM     15  H   UNL     1       7.377  -4.434   2.245  0.00  0.00    +0.155 HD
BRANCH  12  17
ATOM     16  C   UNL     1       7.772  -8.403   1.076  0.00  0.00    +0.013 C 
ATOM     17  C   UNL     1       7.855  -7.011   1.706  0.00  0.00    +0.093 C 
ENDBRANCH  12  17
ENDBRANCH   6  14
ENDBRANCH   4   9
ENDBRANCH   1   4
BRANCH   1  18
ATOM     18  C   UNL     1       0.845   0.103   0.685  0.00  0.00    +0.014 C 
ATOM     19  C   UNL     1       0.128  -0.456   1.915  0.00  0.00    -0.004 C 
BRANCH  18  20
ATOM     20  C   UNL     1       0.946   1.603   0.801  0.00  0.00    +0.203 C 
ATOM     21  O   UNL     1       2.034   2.138   0.812  0.00  0.00    -0.277 OA
ATOM     22  N   UNL     1      -0.174   2.348   0.887  0.00  0.00    -0.286 N 
ATOM     23  H   UNL     1      -1.160   1.873   0.784  0.00  0.00    +0.155 HD
BRANCH  22  24
ATOM     24  C   UNL     1      -0.081   3.722   1.107  0.00  0.00    +0.051 A 
ATOM     25  C   UNL     1       0.936   4.234   1.900  0.00  0.00    +0.024 A 
ATOM     26  C   UNL     1       1.030   5.595   2.112  0.00  0.00    +0.002 A 
ATOM     27  C   UNL     1       0.106   6.458   1.545  0.00  0.00    +0.001 A 
ATOM     28  C   UNL     1      -0.914   5.967   0.759  0.00  0.00    +0.021 A 
ATOM     29  C   UNL     1      -1.018   4.593   0.531  0.00  0.00    +0.073 A 
BRANCH  29  30
ATOM     30  C   UNL     1      -2.076   4.076  -0.284  0.00  0.00    +0.101 C 
ATOM     31  N   UNL     1      -2.915   3.666  -0.931  0.00  0.00    -0.191 NA
ENDBRANCH  29  30
ENDBRANCH  22  24
ENDBRANCH  18  20
ENDBRANCH   1  18
TORSDOF 8
