REMARK  Name = ZINC08871609
REMARK  3 active torsions:
REMARK  status: ('A' for Active; 'I' for Inactive)
REMARK    1  A    between atoms: C_4  and  N_22
REMARK    2  A    between atoms: C_5  and  N_7
REMARK    3  A    between atoms: C_11  and  C_12
REMARK                            x       y       z     vdW  Elec       q    Type
REMARK                         _______ _______ _______ _____ _____    ______ ____
ROOT
ATOM      1  N   UNL     1      -0.098   0.142   0.795  0.00  0.00    -0.221 N 
ATOM      2  C   UNL     1      -0.076   1.420   0.457  0.00  0.00    +0.263 C 
ATOM      3  O   UNL     1      -1.099   2.046   0.253  0.00  0.00    -0.269 OA
ATOM      4  C   UNL     1       1.256   2.048   0.333  0.00  0.00    +0.077 C 
ATOM      5  C   UNL     1       1.584   3.323   0.004  0.00  0.00    +0.028 C 
ATOM      6  S   UNL     1       2.317   0.666   0.733  0.00  0.00    -0.061 S 
ATOM      7  C   UNL     1       1.039  -0.549   1.014  0.00  0.00    +0.125 C 
ATOM      8  S   UNL     1       1.215  -2.194   1.454  0.00  0.00    -0.027 S 
ENDROOT
BRANCH   5   9
ATOM      9  C   UNL     1       2.980   3.772   0.104  0.00  0.00    -0.024 A 
ATOM     10  C   UNL     1       3.941   2.952   0.707  0.00  0.00    +0.009 A 
ATOM     11  C   UNL     1       5.250   3.377   0.791  0.00  0.00    +0.016 A 
ATOM     12  C   UNL     1       5.612   4.618   0.293  0.00  0.00    +0.018 A 
ATOM     13  C   UNL     1       4.665   5.438  -0.299  0.00  0.00    +0.016 A 
ATOM     14  C   UNL     1       3.354   5.024  -0.397  0.00  0.00    +0.009 A 
ATOM     15 BR   UNL     1       7.408   5.195   0.421  0.00  0.00    -0.050 Br
ENDBRANCH   5   9
BRANCH   1  20
ATOM     16  C   UNL     1      -3.123  -1.782  -0.031  0.00  0.00    +0.002 A 
ATOM     17  C   UNL     1      -3.766  -1.796   1.193  0.00  0.00    +0.002 A 
ATOM     18  C   UNL     1      -3.196  -1.169   2.285  0.00  0.00    +0.034 A 
ATOM     19  C   UNL     1      -1.978  -0.529   2.157  0.00  0.00    +0.148 A 
ATOM     20  C   UNL     1      -1.331  -0.509   0.929  0.00  0.00    +0.073 A 
ATOM     21  C   UNL     1      -1.907  -1.140  -0.166  0.00  0.00    +0.026 A 
BRANCH  19  22
ATOM     22  N   UNL     1      -1.365   0.138   3.328  0.00  0.00    +0.058 N 
ATOM     23  O   UNL     1      -1.933   0.119   4.405  0.00  0.00    -0.126 OA
ATOM     24  O   UNL     1      -0.293   0.705   3.214  0.00  0.00    -0.126 OA
ENDBRANCH  19  22
ENDBRANCH   1  20
TORSDOF 3
