REMARK  Name = ZINC01444263
REMARK  1 active torsions:
REMARK  status: ('A' for Active; 'I' for Inactive)
REMARK    1  A    between atoms: C_9  and  C_14
REMARK                            x       y       z     vdW  Elec       q    Type
REMARK                         _______ _______ _______ _____ _____    ______ ____
ROOT
ATOM      1  C   UNL     1      -1.367   1.308   0.487  0.00  0.00    +0.001 A 
ATOM      2  C   UNL     1      -1.538   2.617   0.064  0.00  0.00    +0.004 A 
ATOM      3  C   UNL     1      -0.469   3.345  -0.415  0.00  0.00    +0.047 A 
ATOM      4  C   UNL     1       0.795   2.770  -0.473  0.00  0.00    +0.136 A 
ATOM      5  C   UNL     1       0.966   1.448  -0.039  0.00  0.00    +0.028 A 
ATOM      6  C   UNL     1      -0.119   0.723   0.442  0.00  0.00    +0.012 A 
ATOM      7  C   UNL     1       2.398   1.147  -0.229  0.00  0.00    +0.028 A 
ATOM      8  C   UNL     1       3.186   0.030   0.004  0.00  0.00    +0.020 A 
ATOM      9  C   UNL     1       4.551   0.077  -0.295  0.00  0.00    -0.023 A 
ATOM     10  C   UNL     1       5.106   1.251  -0.826  0.00  0.00    +0.011 A 
ATOM     11  C   UNL     1       4.326   2.346  -1.053  0.00  0.00    +0.047 A 
ATOM     12  C   UNL     1       2.965   2.317  -0.761  0.00  0.00    +0.136 A 
ATOM     13  O   UNL     1       1.991   3.244  -0.888  0.00  0.00    -0.455 OA
ENDROOT
BRANCH   9  14
ATOM     14  C   UNL     1       5.400  -1.097  -0.053  0.00  0.00    +0.028 C 
ATOM     15  C   UNL     1       4.904  -2.166   0.620  0.00  0.00    +0.080 C 
ATOM     16  C   UNL     1       5.496  -3.502   0.832  0.00  0.00    +0.258 C 
ATOM     17  O   UNL     1       6.587  -3.797   0.380  0.00  0.00    -0.269 OA
ATOM     18  N   UNL     1       4.781  -4.361   1.538  0.00  0.00    -0.243 N 
ATOM     19  C   UNL     1       3.572  -4.030   2.037  0.00  0.00    +0.283 C 
ATOM     20  O   UNL     1       2.814  -4.715   2.697  0.00  0.00    -0.262 OA
ATOM     21  S   UNL     1       3.358  -2.340   1.501  0.00  0.00    -0.026 S 
ATOM     22  H   UNL     1       5.133  -5.250   1.700  0.00  0.00    +0.159 HD
ENDBRANCH   9  14
TORSDOF 1
