REMARK  Name = ZINC37641145
REMARK  4 active torsions:
REMARK  status: ('A' for Active; 'I' for Inactive)
REMARK    1  A    between atoms: C_1  and  C_2
REMARK    2  A    between atoms: C_3  and  C_25
REMARK    3  A    between atoms: N_11  and  C_16
REMARK    4  A    between atoms: C_16  and  C_17
REMARK                            x       y       z     vdW  Elec       q    Type
REMARK                         _______ _______ _______ _____ _____    ______ ____
ROOT
ATOM      1  C   UNL     1      -0.018   1.503   0.010  0.00  0.00    +0.039 C 
ATOM      2  C   UNL     1       0.002  -0.004   0.002  0.00  0.00    -0.064 C 
ATOM      3  C   UNL     1      -1.051  -0.800   0.003  0.00  0.00    -0.042 C 
ATOM      4  C   UNL     1      -0.654  -2.236  -0.007  0.00  0.00    +0.003 A 
ATOM      5  C   UNL     1       0.704  -2.285  -0.014  0.00  0.00    +0.004 A 
ATOM      6  S   UNL     1       1.104  -4.011  -0.025  0.00  0.00    -0.074 S 
ATOM      7  C   UNL     1      -0.542  -4.670  -0.021  0.00  0.00    +0.095 A 
ATOM      8  C   UNL     1      -1.353  -3.540  -0.011  0.00  0.00    +0.078 A 
ATOM      9  C   UNL     1      -2.808  -3.794  -0.005  0.00  0.00    +0.266 A 
ATOM     10  O   UNL     1      -3.597  -2.867   0.003  0.00  0.00    -0.267 OA
ATOM     11  N   UNL     1      -3.251  -5.065  -0.009  0.00  0.00    -0.256 N 
ATOM     12  C   UNL     1      -2.407  -6.110  -0.018  0.00  0.00    +0.330 A 
ATOM     13  O   UNL     1      -2.857  -7.239  -0.021  0.00  0.00    -0.246 OA
ATOM     14  N   UNL     1      -1.071  -5.931  -0.025  0.00  0.00    -0.301 N 
ATOM     15  H   UNL     1      -0.481  -6.701  -0.032  0.00  0.00    +0.171 HD
ATOM     16  C   UNL     1       1.233  -0.882  -0.015  0.00  0.00    +0.073 C 
ATOM     17  C   UNL     1      -2.478  -0.316   0.012  0.00  0.00    +0.044 C 
ENDROOT
BRANCH  11  18
ATOM     18  C   UNL     1      -4.694  -5.316  -0.004  0.00  0.00    +0.165 C 
BRANCH  18  19
ATOM     19  C   UNL     1      -5.196  -5.394  -1.423  0.00  0.00    -0.027 A 
ATOM     20  C   UNL     1      -5.625  -4.250  -2.068  0.00  0.00    +0.007 A 
ATOM     21  C   UNL     1      -6.085  -4.322  -3.369  0.00  0.00    +0.020 A 
ATOM     22  C   UNL     1      -6.116  -5.539  -4.026  0.00  0.00    +0.041 A 
ATOM     23  C   UNL     1      -5.686  -6.684  -3.379  0.00  0.00    +0.020 A 
ATOM     24  C   UNL     1      -5.221  -6.610  -2.080  0.00  0.00    +0.007 A 
ATOM     25 CL   UNL     1      -6.694  -5.630  -5.660  0.00  0.00    -0.084 Cl
ENDBRANCH  18  19
ENDBRANCH  11  18
TORSDOF 2
