REMARK  Name = ZINC42039090
REMARK  3 active torsions:
REMARK  status: ('A' for Active; 'I' for Inactive)
REMARK    1  A    between atoms: C_1  and  C_2
REMARK    2  A    between atoms: C_5  and  C_12
REMARK    3  A    between atoms: N_6  and  C_7
REMARK                            x       y       z     vdW  Elec       q    Type
REMARK                         _______ _______ _______ _____ _____    ______ ____
ROOT
ATOM      1  C   UNL     1      -0.900   1.345   0.127  0.00  0.00    +0.088 C 
ATOM      2  C   UNL     1      -0.383  -0.069   0.062  0.00  0.00    +0.131 A 
ATOM      3  N   UNL     1      -0.162  -0.762  -1.023  0.00  0.00    -0.134 NA
ATOM      4  N   UNL     1       0.277  -1.931  -0.718  0.00  0.00    -0.129 NA
ATOM      5  C   UNL     1       0.361  -2.046   0.589  0.00  0.00    +0.167 A 
ATOM      6  N   UNL     1      -0.054  -0.856   1.123  0.00  0.00    -0.308 N 
ENDROOT
BRANCH   5   7
ATOM      7  C   UNL     1       0.822  -3.234   1.340  0.00  0.00    +0.051 C 
ATOM      8  C   UNL     1       0.138  -4.359   1.272  0.00  0.00    -0.043 C 
ATOM      9  C   UNL     1       0.734  -5.548   2.027  0.00  0.00    +0.079 C 
ATOM     10  S   UNL     1       2.161  -4.787   2.883  0.00  0.00    -0.098 S 
ATOM     11  C   UNL     1       2.052  -3.157   2.159  0.00  0.00    +0.099 C 
ATOM     12  N   UNL     1       2.859  -2.145   2.317  0.00  0.00    -0.292 NA
ATOM     13  C   UNL     1      -0.327  -5.998   3.033  0.00  0.00    +0.019 C 
ATOM     14  C   UNL     1      -1.608  -6.333   2.261  0.00  0.00    +0.002 C 
ATOM     15  C   UNL     1      -2.179  -5.097   1.573  0.00  0.00    +0.004 C 
ATOM     16  C   UNL     1      -1.187  -4.547   0.538  0.00  0.00    +0.032 C 
ATOM     17  H   UNL     1       2.724  -1.333   1.803  0.00  0.00    +0.187 HD
ENDBRANCH   5   7
BRANCH   6  18
ATOM     18  C   UNL     1      -0.131  -0.503   2.542  0.00  0.00    +0.090 C 
ATOM     19  C   UNL     1       0.903   0.594   2.871  0.00  0.00    +0.025 C 
ATOM     20  C   UNL     1       0.099   1.914   2.777  0.00  0.00    +0.002 C 
ATOM     21  C   UNL     1      -1.274   1.522   3.377  0.00  0.00    +0.002 C 
ATOM     22  C   UNL     1      -1.515   0.087   2.864  0.00  0.00    +0.025 C 
ENDBRANCH   6  18
TORSDOF 2
