REMARK  Name = ZINC59321111
REMARK  5 active torsions:
REMARK  status: ('A' for Active; 'I' for Inactive)
REMARK    1  A    between atoms: C_1  and  C_2
REMARK    2  A    between atoms: C_8  and  C_23
REMARK    3  A    between atoms: C_8  and  C_24
REMARK    4  A    between atoms: C_10  and  N_12
REMARK    5  A    between atoms: C_19  and  C_22
REMARK                            x       y       z     vdW  Elec       q    Type
REMARK                         _______ _______ _______ _____ _____    ______ ____
ROOT
ATOM      1  C   UNL     1      -0.022   1.507   0.002  0.00  0.00    +0.086 C 
ATOM      2  C   UNL     1      -0.000   0.000  -0.004  0.00  0.00    +0.103 A 
ATOM      3  C   UNL     1      -1.082  -0.803  -0.002  0.00  0.00    +0.050 A 
ATOM      4  C   UNL     1      -0.602  -2.125  -0.010  0.00  0.00    +0.014 A 
ATOM      5  C   UNL     1       0.745  -2.059  -0.016  0.00  0.00    +0.111 A 
ATOM      6  O   UNL     1       1.103  -0.770  -0.019  0.00  0.00    -0.464 OA
ATOM      7  C   UNL     1       1.647  -3.270  -0.022  0.00  0.00    +0.081 C 
ATOM      8  C   UNL     1       0.821  -4.492   0.397  0.00  0.00    -0.026 C 
ATOM      9  C   UNL     1      -0.464  -4.550  -0.433  0.00  0.00    +0.034 C 
ATOM     10  C   UNL     1      -1.395  -3.406  -0.013  0.00  0.00    +0.109 C 
ATOM     11  C   UNL     1       0.465  -4.382   1.881  0.00  0.00    +0.011 C 
ATOM     12  C   UNL     1       1.638  -5.764   0.162  0.00  0.00    +0.011 C 
ENDROOT
BRANCH  10  13
ATOM     13  N   UNL     1      -2.504  -3.297  -0.964  0.00  0.00    -0.292 N 
ATOM     14  C   UNL     1      -3.667  -2.732  -0.582  0.00  0.00    +0.303 C 
ATOM     15  O   UNL     1      -3.829  -2.398   0.575  0.00  0.00    -0.253 OA
ATOM     16  N   UNL     1      -4.650  -2.539  -1.484  0.00  0.00    -0.285 N 
ATOM     17  C   UNL     1      -5.876  -1.821  -1.111  0.00  0.00    +0.109 C 
ATOM     18  C   UNL     1      -6.099  -0.676  -2.105  0.00  0.00    +0.019 C 
ATOM     19  C   UNL     1      -6.107  -1.237  -3.529  0.00  0.00    +0.006 C 
ATOM     20  C   UNL     1      -4.754  -1.884  -3.832  0.00  0.00    +0.003 C 
ATOM     21  C   UNL     1      -4.513  -3.036  -2.859  0.00  0.00    +0.112 C 
ATOM     22  C   UNL     1      -4.751  -2.414  -5.267  0.00  0.00    +0.009 C 
ATOM     23  H   UNL     1      -2.402  -3.632  -1.869  0.00  0.00    +0.151 HD
ENDBRANCH  10  13
TORSDOF 1
