REMARK  Name = ZINC10165923
REMARK  8 active torsions:
REMARK  status: ('A' for Active; 'I' for Inactive)
REMARK    1  A    between atoms: C_1  and  C_2
REMARK    2  A    between atoms: C_3  and  C_30
REMARK    3  A    between atoms: C_5  and  N_10
REMARK    4  A    between atoms: C_6  and  C_7
REMARK    5  A    between atoms: C_11  and  C_13
REMARK    6  A    between atoms: C_16  and  S_19
REMARK    7  A    between atoms: S_19  and  N_22
REMARK    8  A    between atoms: C_26  and  C_29
REMARK                            x       y       z     vdW  Elec       q    Type
REMARK                         _______ _______ _______ _____ _____    ______ ____
ROOT
ATOM      1  N   UNL     1       1.551  -1.965  -0.023  0.00  0.00    -0.275 N 
ATOM      2  C   UNL     1       2.836  -2.371  -0.037  0.00  0.00    +0.249 C 
ATOM      3  O   UNL     1       3.733  -1.550  -0.042  0.00  0.00    -0.270 OA
ATOM      4  H   UNL     1       0.836  -2.620  -0.019  0.00  0.00    +0.156 HD
ENDROOT
BRANCH   1   9
ATOM      5  C   UNL     1      -1.314   2.207   0.020  0.00  0.00    +0.045 C 
ATOM      6  C   UNL     1      -0.018   1.439   0.010  0.00  0.00    -0.027 A 
ATOM      7  C   UNL     1       1.171   2.070   0.002  0.00  0.00    -0.008 A 
ATOM      8  S   UNL     1       2.345   0.731  -0.016  0.00  0.00    -0.078 S 
ATOM      9  C   UNL     1       1.252  -0.612  -0.013  0.00  0.00    +0.085 A 
ATOM     10  C   UNL     1       0.002  -0.004   0.002  0.00  0.00    +0.068 A 
ATOM     11  C   UNL     1       1.443   3.552   0.007  0.00  0.00    +0.052 C 
BRANCH  10  12
ATOM     12  C   UNL     1      -1.236  -0.790   0.010  0.00  0.00    +0.244 C 
ATOM     13  O   UNL     1      -1.760  -1.111  -1.041  0.00  0.00    -0.270 OA
ATOM     14  N   UNL     1      -1.793  -1.158   1.181  0.00  0.00    -0.325 N 
ATOM     15  H   UNL     1      -1.375  -0.902   2.018  0.00  0.00    +0.145 HD
ATOM     16  H   UNL     1      -2.611  -1.678   1.186  0.00  0.00    +0.145 HD
ENDBRANCH  10  12
ENDBRANCH   1   9
BRANCH   2  17
ATOM     17  C   UNL     1       3.155  -3.814  -0.048  0.00  0.00    +0.037 A 
ATOM     18  C   UNL     1       2.128  -4.759  -0.037  0.00  0.00    +0.015 A 
ATOM     19  C   UNL     1       2.432  -6.105  -0.052  0.00  0.00    +0.029 A 
ATOM     20  C   UNL     1       3.753  -6.518  -0.067  0.00  0.00    +0.106 A 
ATOM     21  C   UNL     1       4.776  -5.587  -0.072  0.00  0.00    +0.029 A 
ATOM     22  C   UNL     1       4.485  -4.238  -0.063  0.00  0.00    +0.015 A 
BRANCH  20  23
ATOM     23  S   UNL     1       4.133  -8.239  -0.079  0.00  0.00    +0.061 S 
ATOM     24  O   UNL     1       2.999  -8.901  -0.622  0.00  0.00    -0.153 OA
ATOM     25  O   UNL     1       5.431  -8.364  -0.644  0.00  0.00    -0.153 OA
BRANCH  23  26
ATOM     26  N   UNL     1       4.255  -8.725   1.499  0.00  0.00    -0.176 NA
ATOM     27  C   UNL     1       5.545  -8.677   2.200  0.00  0.00    +0.109 C 
ATOM     28  C   UNL     1       5.366  -7.879   3.500  0.00  0.00    +0.017 C 
ATOM     29  C   UNL     1       4.229  -8.496   4.318  0.00  0.00    +0.006 C 
ATOM     30  C   UNL     1       2.925  -8.418   3.522  0.00  0.00    +0.002 C 
ATOM     31  C   UNL     1       3.075  -9.217   2.224  0.00  0.00    +0.112 C 
ATOM     32  C   UNL     1       1.782  -9.005   4.354  0.00  0.00    +0.009 C 
ENDBRANCH  23  26
ENDBRANCH  20  23
ENDBRANCH   2  17
TORSDOF 5
