REMARK  Name = ZINC04263348
REMARK  6 active torsions:
REMARK  status: ('A' for Active; 'I' for Inactive)
REMARK    1  A    between atoms: C_1  and  C_2
REMARK    2  A    between atoms: C_2  and  O_3
REMARK    3  A    between atoms: O_3  and  C_4
REMARK    4  A    between atoms: C_4  and  C_6
REMARK    5  A    between atoms: C_7  and  C_28
REMARK    6  A    between atoms: C_19  and  C_21
REMARK                            x       y       z     vdW  Elec       q    Type
REMARK                         _______ _______ _______ _____ _____    ______ ____
ROOT
ATOM      1  C   UNL     1      -1.418   5.979  -0.325  0.00  0.00    +0.065 C 
ATOM      2  C   UNL     1      -2.516   5.205  -0.311  0.00  0.00    +0.017 C 
ATOM      3  N   UNL     1      -2.442   3.885   0.040  0.00  0.00    -0.304 N 
ATOM      4  C   UNL     1      -1.233   3.232   0.032  0.00  0.00    +0.113 A 
ATOM      5  C   UNL     1      -0.067   3.937   0.029  0.00  0.00    +0.067 A 
ATOM      6  C   UNL     1       1.153   3.238   0.011  0.00  0.00    +0.260 A 
ATOM      7  O   UNL     1       2.210   3.847   0.003  0.00  0.00    -0.267 OA
ATOM      8  N   UNL     1       1.147   1.890   0.001  0.00  0.00    -0.275 N 
ATOM      9  H   UNL     1       2.013   1.391  -0.011  0.00  0.00    +0.173 HD
ATOM     10  C   UNL     1      -0.014   1.212   0.009  0.00  0.00    +0.328 A 
ATOM     11  O   UNL     1       0.002  -0.004   0.002  0.00  0.00    -0.247 OA
ATOM     12  N   UNL     1      -1.194   1.859   0.018  0.00  0.00    -0.295 N 
ATOM     13  H   UNL     1      -2.048   1.337   0.014  0.00  0.00    +0.172 HD
ATOM     14  C   UNL     1      -0.068   5.440   0.049  0.00  0.00    +0.097 C 
ATOM     15  C   UNL     1      -3.849   5.800  -0.687  0.00  0.00    +0.061 C 
ATOM     16  H   UNL     1      -3.247   3.408   0.296  0.00  0.00    +0.153 HD
ENDROOT
BRANCH  14  17
ATOM     17  C   UNL     1       0.289   5.917   1.433  0.00  0.00    -0.017 A 
ATOM     18  C   UNL     1      -0.500   5.564   2.512  0.00  0.00    +0.006 A 
ATOM     19  C   UNL     1      -0.173   6.002   3.781  0.00  0.00    +0.000 A 
ATOM     20  C   UNL     1       0.945   6.793   3.973  0.00  0.00    +0.001 A 
ATOM     21  C   UNL     1       1.735   7.146   2.896  0.00  0.00    +0.020 A 
ATOM     22  C   UNL     1       1.410   6.704   1.626  0.00  0.00    +0.045 A 
ATOM     23 CL   UNL     1       2.406   7.142   0.273  0.00  0.00    -0.083 Cl
ENDBRANCH  14  17
BRANCH   1  24
ATOM     24  C   UNL     1      -1.537   7.337  -0.702  0.00  0.00    +0.338 C 
ATOM     25  O   UNL     1      -2.624   7.790  -1.008  0.00  0.00    -0.245 OA
BRANCH  24  26
ATOM     26  O   UNL     1      -0.445   8.130  -0.723  0.00  0.00    -0.462 OA
BRANCH  26  28
ATOM     27  C   UNL     1       0.701  10.227  -1.077  0.00  0.00    +0.048 C 
ATOM     28  C   UNL     1      -0.639   9.490  -1.114  0.00  0.00    +0.229 C 
ENDBRANCH  26  28
ENDBRANCH  24  26
ENDBRANCH   1  24
TORSDOF 4
