REMARK  Name = ZINC22936634
REMARK  6 active torsions:
REMARK  status: ('A' for Active; 'I' for Inactive)
REMARK    1  A    between atoms: C_1  and  C_2
REMARK    2  A    between atoms: C_2  and  N_3
REMARK    3  A    between atoms: N_6  and  C_9
REMARK    4  A    between atoms: C_9  and  C_10
REMARK    5  A    between atoms: C_11  and  O_31
REMARK    6  A    between atoms: C_18  and  C_19
REMARK                            x       y       z     vdW  Elec       q    Type
REMARK                         _______ _______ _______ _____ _____    ______ ____
ROOT
ATOM      1  C   UNL     1      -4.799  -4.141  -1.214  0.00  0.00    +0.051 A 
ATOM      2  C   UNL     1      -4.770  -4.750  -2.458  0.00  0.00    +0.125 A 
ATOM      3  C   UNL     1      -4.720  -6.137  -2.567  0.00  0.00    +0.046 A 
ATOM      4  C   UNL     1      -4.700  -6.913  -1.442  0.00  0.00    +0.019 A 
ATOM      5  C   UNL     1      -4.729  -6.314  -0.183  0.00  0.00    +0.068 A 
ATOM      6  C   UNL     1      -4.773  -4.915  -0.060  0.00  0.00    +0.147 A 
ATOM      7  O   UNL     1      -4.787  -4.574   1.246  0.00  0.00    -0.451 OA
ATOM      8  C   UNL     1      -4.749  -5.661   2.051  0.00  0.00    +0.179 C 
ATOM      9  C   UNL     1      -4.751  -5.654   3.413  0.00  0.00    +0.096 C 
ATOM     10  C   UNL     1      -4.718  -6.850   1.190  0.00  0.00    +0.232 C 
ATOM     11  O   UNL     1      -4.679  -8.020   1.534  0.00  0.00    -0.283 OA
ENDROOT
BRANCH   9  12
ATOM     12  C   UNL     1      -4.795  -4.425   4.115  0.00  0.00    +0.133 A 
ATOM     13  C   UNL     1      -4.796  -4.292   5.472  0.00  0.00    +0.058 A 
ATOM     14  C   UNL     1      -4.846  -2.903   5.748  0.00  0.00    +0.022 A 
ATOM     15  C   UNL     1      -4.871  -2.151   6.928  0.00  0.00    +0.027 A 
ATOM     16  C   UNL     1      -4.923  -0.787   6.862  0.00  0.00    +0.019 A 
ATOM     17  C   UNL     1      -4.951  -0.141   5.633  0.00  0.00    +0.019 A 
ATOM     18  C   UNL     1      -4.927  -0.864   4.458  0.00  0.00    +0.048 A 
ATOM     19  C   UNL     1      -4.874  -2.251   4.500  0.00  0.00    +0.136 A 
ATOM     20  O   UNL     1      -4.837  -3.202   3.544  0.00  0.00    -0.455 OA
ATOM     21 BR   UNL     1      -4.957   0.229   8.457  0.00  0.00    -0.050 Br
ENDBRANCH   9  12
BRANCH   2  22
ATOM     22  O   UNL     1      -4.791  -3.987  -3.581  0.00  0.00    -0.506 OA
ATOM     23  H   UNL     1      -3.914  -3.735  -3.901  0.00  0.00    +0.292 HD
ENDBRANCH   2  22
BRANCH   1  24
ATOM     24  C   UNL     1      -4.853  -2.639  -1.111  0.00  0.00    +0.126 C 
BRANCH  24  28
ATOM     25  N   UNL     1      -1.376  -0.512   0.012  0.00  0.00    +0.381 N 
ATOM     26  C   UNL     1      -2.050  -0.124  -1.234  0.00  0.00    -0.063 C 
ATOM     27  C   UNL     1      -3.492  -0.638  -1.215  0.00  0.00    +0.066 C 
ATOM     28  N   UNL     1      -3.486  -2.101  -1.076  0.00  0.00    -0.301 NA
ATOM     29  C   UNL     1      -2.792  -2.506   0.155  0.00  0.00    +0.066 C 
ATOM     30  C   UNL     1      -1.357  -1.977   0.125  0.00  0.00    -0.063 C 
ATOM     31  H   UNL     1      -1.873  -0.121   0.799  0.00  0.00    -0.082 HD
BRANCH  25  33
ATOM     32  C   UNL     1      -0.019   1.526   0.010  0.00  0.00    -0.017 C 
ATOM     33  C   UNL     1       0.002  -0.004   0.002  0.00  0.00    -0.082 C 
ENDBRANCH  25  33
ENDBRANCH  24  28
ENDBRANCH   1  24
TORSDOF 5
