REMARK  Name = ZINC20609274
REMARK  9 active torsions:
REMARK  status: ('A' for Active; 'I' for Inactive)
REMARK    1  A    between atoms: C_1  and  C_2
REMARK    2  A    between atoms: C_2  and  O_3
REMARK    3  A    between atoms: O_3  and  C_4
REMARK    4  A    between atoms: C_4  and  C_6
REMARK    5  A    between atoms: C_7  and  N_31
REMARK    6  A    between atoms: N_8  and  C_28
REMARK    7  A    between atoms: C_19  and  C_23
REMARK    8  A    between atoms: C_19  and  C_24
REMARK    9  A    between atoms: C_28  and  C_29
REMARK                            x       y       z     vdW  Elec       q    Type
REMARK                         _______ _______ _______ _____ _____    ______ ____
ROOT
ATOM      1  C   UNL     1       3.650   3.059   0.344  0.00  0.00    +0.098 C 
ATOM      2  C   UNL     1       3.503   1.696   0.406  0.00  0.00    +0.101 C 
ATOM      3  N   UNL     1       2.313   1.105   0.073  0.00  0.00    -0.276 N 
ATOM      4  C   UNL     1       1.141   1.864   0.022  0.00  0.00    +0.041 A 
ATOM      5  C   UNL     1      -0.094   1.227   0.051  0.00  0.00    +0.024 A 
ATOM      6  C   UNL     1      -1.256   1.970   0.001  0.00  0.00    +0.002 A 
ATOM      7  C   UNL     1      -1.190   3.350  -0.068  0.00  0.00    +0.000 A 
ATOM      8  C   UNL     1       0.036   3.986  -0.099  0.00  0.00    +0.007 A 
ATOM      9  C   UNL     1       1.206   3.248  -0.055  0.00  0.00    +0.000 A 
ATOM     10  C   UNL     1       2.531   3.953  -0.092  0.00  0.00    +0.160 C 
ATOM     11  C   UNL     1       2.797   4.517  -1.459  0.00  0.00    +0.059 C 
ATOM     12  C   UNL     1       2.884   5.864  -1.310  0.00  0.00    +0.118 C 
ATOM     13  C   UNL     1       3.163   6.772  -2.491  0.00  0.00    +0.081 C 
ATOM     14  C   UNL     1       3.948   5.970  -3.536  0.00  0.00    -0.021 C 
ATOM     15  C   UNL     1       3.177   4.707  -3.923  0.00  0.00    +0.086 C 
ATOM     16  C   UNL     1       2.940   3.858  -2.692  0.00  0.00    +0.165 C 
ATOM     17  O   UNL     1       2.877   2.648  -2.767  0.00  0.00    -0.292 OA
ATOM     18  C   UNL     1       5.307   5.576  -2.956  0.00  0.00    +0.012 C 
ATOM     19  C   UNL     1       4.159   6.835  -4.780  0.00  0.00    +0.012 C 
ATOM     20  O   UNL     1       2.701   6.232  -0.038  0.00  0.00    -0.429 OA
ATOM     21  C   UNL     1       2.482   5.191   0.784  0.00  0.00    +0.332 C 
ATOM     22  O   UNL     1       2.287   5.232   1.976  0.00  0.00    -0.249 OA
ENDROOT
BRANCH   2  23
ATOM     23  N   UNL     1       4.559   0.918   0.804  0.00  0.00    -0.346 N 
ATOM     24  H   UNL     1       4.448  -0.175   0.855  0.00  0.00    +0.143 HD
ATOM     25  H   UNL     1       5.517   1.386   1.072  0.00  0.00    +0.143 HD
ENDBRANCH   2  23
BRANCH   1  26
ATOM     26  C   UNL     1       4.879   3.629   0.699  0.00  0.00    +0.340 C 
ATOM     27  O   UNL     1       5.018   4.143   1.795  0.00  0.00    -0.245 OA
BRANCH  26  28
ATOM     28  O   UNL     1       5.910   3.608  -0.173  0.00  0.00    -0.462 OA
BRANCH  28  30
ATOM     29  C   UNL     1       8.178   4.089  -0.857  0.00  0.00    +0.048 C 
ATOM     30  C   UNL     1       7.135   4.208   0.256  0.00  0.00    +0.229 C 
ENDBRANCH  28  30
ENDBRANCH  26  28
ENDBRANCH   1  26
BRANCH   3  31
ATOM     31  C   UNL     1       2.269  -0.328  -0.228  0.00  0.00    +0.200 C 
BRANCH  31  32
ATOM     32  C   UNL     1       2.492  -0.533  -1.669  0.00  0.00    -0.086 C 
ATOM     33  C   UNL     1       2.669  -0.697  -2.818  0.00  0.00    +0.005 C 
ENDBRANCH  31  32
ENDBRANCH   3  31
TORSDOF 6
