REMARK  Name = ZINC49250781
REMARK  6 active torsions:
REMARK  status: ('A' for Active; 'I' for Inactive)
REMARK    1  A    between atoms: C_1  and  C_2
REMARK    2  A    between atoms: C_4  and  C_10
REMARK    3  A    between atoms: C_5  and  O_9
REMARK    4  A    between atoms: N_12  and  C_13
REMARK    5  A    between atoms: N_12  and  O_14
REMARK    6  A    between atoms: O_14  and  C_15
REMARK                            x       y       z     vdW  Elec       q    Type
REMARK                         _______ _______ _______ _____ _____    ______ ____
ROOT
ATOM      1  C   UNL     1      -0.112   1.515  -0.014  0.00  0.00    +0.044 C 
ATOM      2  C   UNL     1      -0.061   0.009  -0.014  0.00  0.00    -0.048 A 
ATOM      3  C   UNL     1      -0.041  -0.677  -1.209  0.00  0.00    +0.020 A 
ATOM      4  C   UNL     1       0.006  -2.073  -1.211  0.00  0.00    +0.082 A 
ATOM      5  C   UNL     1       0.034  -2.767   0.006  0.00  0.00    +0.143 A 
ATOM      6  C   UNL     1       0.013  -2.061   1.201  0.00  0.00    +0.060 A 
ATOM      7  C   UNL     1      -0.028  -0.680   1.188  0.00  0.00    +0.022 A 
ATOM      8 BR   UNL     1       0.049  -2.989   2.848  0.00  0.00    -0.046 Br
ENDROOT
BRANCH   4   9
ATOM      9  C   UNL     1       0.027  -2.813  -2.487  0.00  0.00    +0.273 C 
ATOM     10  O   UNL     1      -0.390  -3.954  -2.535  0.00  0.00    -0.268 OA
ATOM     11  N   UNL     1       0.508  -2.223  -3.600  0.00  0.00    -0.180 N 
ATOM     12  C   UNL     1       0.412  -2.909  -4.891  0.00  0.00    +0.167 C 
BRANCH  11  13
ATOM     13  O   UNL     1       1.105  -0.942  -3.521  0.00  0.00    -0.280 OA
ATOM     14  C   UNL     1       2.528  -0.971  -3.394  0.00  0.00    +0.227 C 
ENDBRANCH  11  13
ENDBRANCH   4   9
BRANCH   5  15
ATOM     15  O   UNL     1       0.079  -4.123   0.017  0.00  0.00    -0.505 OA
ATOM     16  H   UNL     1       0.976  -4.486   0.017  0.00  0.00    +0.292 HD
ENDBRANCH   5  15
TORSDOF 3
