REMARK  Name = ZINC39425591
REMARK  7 active torsions:
REMARK  status: ('A' for Active; 'I' for Inactive)
REMARK    1  A    between atoms: C_4  and  C_7
REMARK    2  A    between atoms: C_7  and  N_8
REMARK    3  A    between atoms: C_14  and  N_18
REMARK    4  A    between atoms: C_15  and  C_16
REMARK    5  A    between atoms: C_19  and  C_21
REMARK    6  A    between atoms: C_21  and  S_22
REMARK    7  A    between atoms: S_22  and  C_23
REMARK                            x       y       z     vdW  Elec       q    Type
REMARK                         _______ _______ _______ _____ _____    ______ ____
ROOT
ATOM      1  N   UNL     1       4.153  -0.953   1.342  0.00  0.00    -0.293 NA
ATOM      2  C   UNL     1       5.533  -1.457   1.371  0.00  0.00    +0.090 C 
ATOM      3  C   UNL     1       6.103  -1.350   2.788  0.00  0.00    +0.052 C 
ATOM      4  C   UNL     1       5.114  -1.999   3.746  0.00  0.00    -0.015 A 
ATOM      5  C   UNL     1       3.835  -2.222   3.362  0.00  0.00    +0.010 A 
ATOM      6  S   UNL     1       3.073  -2.977   4.766  0.00  0.00    -0.076 S 
ATOM      7  C   UNL     1       4.379  -3.002   5.822  0.00  0.00    +0.090 A 
ATOM      8  C   UNL     1       5.412  -2.427   5.098  0.00  0.00    +0.084 A 
ATOM      9  C   UNL     1       3.239  -1.884   2.031  0.00  0.00    +0.127 C 
ENDROOT
BRANCH   7  10
ATOM     10  N   UNL     1       4.415  -3.485   7.123  0.00  0.00    -0.278 N 
ATOM     11  C   UNL     1       3.306  -4.016   7.675  0.00  0.00    +0.228 C 
ATOM     12  O   UNL     1       2.276  -4.071   7.036  0.00  0.00    -0.275 OA
ATOM     13  H   UNL     1       5.238  -3.442   7.634  0.00  0.00    +0.155 HD
BRANCH  11  14
ATOM     14  C   UNL     1       3.345  -4.541   9.087  0.00  0.00    +0.172 C 
BRANCH  14  15
ATOM     15  S   UNL     1       1.710  -5.185   9.538  0.00  0.00    -0.088 S 
BRANCH  15  16
ATOM     16  C   UNL     1       1.918  -5.754  11.193  0.00  0.00    +0.160 A 
ATOM     17  N   UNL     1       2.993  -5.727  11.958  0.00  0.00    -0.133 NA
ATOM     18  N   UNL     1       2.935  -6.230  13.237  0.00  0.00    -0.125 NA
ATOM     19  C   UNL     1       1.806  -6.737  13.693  0.00  0.00    +0.180 A 
ATOM     20  S   UNL     1       0.727  -6.513  12.287  0.00  0.00    -0.025 S 
ATOM     21  N   UNL     1       1.529  -7.292  14.936  0.00  0.00    -0.336 N 
ATOM     22  H   UNL     1       2.224  -7.343  15.611  0.00  0.00    +0.144 HD
ATOM     23  H   UNL     1       0.640  -7.629  15.130  0.00  0.00    +0.144 HD
ENDBRANCH  15  16
ENDBRANCH  14  15
ENDBRANCH  11  14
ENDBRANCH   7  10
BRANCH   8  24
ATOM     24  C   UNL     1       6.718  -2.265   5.662  0.00  0.00    +0.102 C 
ATOM     25  N   UNL     1       7.754  -2.135   6.109  0.00  0.00    -0.191 NA
ENDBRANCH   8  24
BRANCH   1  26
ATOM     26  C   UNL     1       3.711  -0.707  -0.038  0.00  0.00    +0.120 C 
BRANCH  26  30
ATOM     27  C   UNL     1      -0.017   1.378   0.010  0.00  0.00    +0.000 A 
ATOM     28  C   UNL     1       1.171   2.086   0.002  0.00  0.00    +0.000 A 
ATOM     29  C   UNL     1       2.377   1.411  -0.013  0.00  0.00    +0.005 A 
ATOM     30  C   UNL     1       2.396   0.029  -0.020  0.00  0.00    -0.033 A 
ATOM     31  C   UNL     1       1.208  -0.679  -0.012  0.00  0.00    +0.005 A 
ATOM     32  C   UNL     1       0.002  -0.004   0.002  0.00  0.00    +0.000 A 
ENDBRANCH  26  30
ENDBRANCH   1  26
TORSDOF 7
