REMARK  Name = ZINC64867658
REMARK  5 active torsions:
REMARK  status: ('A' for Active; 'I' for Inactive)
REMARK    1  A    between atoms: C_1  and  C_2
REMARK    2  A    between atoms: C_2  and  C_3
REMARK    3  A    between atoms: N_13  and  C_14
REMARK    4  A    between atoms: C_14  and  C_15
REMARK    5  A    between atoms: C_17  and  C_20
REMARK                            x       y       z     vdW  Elec       q    Type
REMARK                         _______ _______ _______ _____ _____    ______ ____
ROOT
ATOM      1  C   UNL     1      -1.412  -0.526   0.013  0.00  0.00    +0.113 A 
ATOM      2  N   UNL     1      -2.385   0.334   0.021  0.00  0.00    -0.234 NA
ATOM      3  C   UNL     1      -3.683  -0.062   0.031  0.00  0.00    +0.078 A 
ATOM      4  C   UNL     1      -4.730   0.862   0.040  0.00  0.00    +0.028 A 
ATOM      5  C   UNL     1      -6.032   0.415   0.050  0.00  0.00    +0.002 A 
ATOM      6  C   UNL     1      -6.319  -0.944   0.051  0.00  0.00    +0.001 A 
ATOM      7  C   UNL     1      -5.303  -1.874   0.042  0.00  0.00    +0.015 A 
ATOM      8  C   UNL     1      -3.978  -1.443   0.032  0.00  0.00    +0.065 A 
ATOM      9  C   UNL     1      -2.852  -2.390   0.022  0.00  0.00    +0.262 A 
ATOM     10  O   UNL     1      -3.038  -3.593   0.022  0.00  0.00    -0.267 OA
ATOM     11  N   UNL     1      -1.602  -1.871   0.007  0.00  0.00    -0.289 N 
ENDROOT
BRANCH   1  13
ATOM     12  C   UNL     1      -0.019   1.526   0.010  0.00  0.00    +0.012 C 
ATOM     13  C   UNL     1       0.002  -0.004   0.002  0.00  0.00    +0.071 C 
ENDBRANCH   1  13
BRANCH  11  14
ATOM     14  C   UNL     1      -0.444  -2.768  -0.009  0.00  0.00    +0.206 C 
BRANCH  14  15
ATOM     15  C   UNL     1      -0.033  -3.083   1.406  0.00  0.00    +0.192 A 
ATOM     16  N   UNL     1       0.840  -2.383   2.133  0.00  0.00    -0.190 NA
ATOM     17  C   UNL     1       0.972  -2.925   3.322  0.00  0.00    +0.260 A 
ATOM     18  O   UNL     1       0.170  -4.003   3.379  0.00  0.00    -0.333 OA
ATOM     19  N   UNL     1      -0.477  -4.080   2.118  0.00  0.00    -0.059 NA
BRANCH  17  20
ATOM     20  C   UNL     1       1.848  -2.437   4.408  0.00  0.00    +0.053 A 
ATOM     21  C   UNL     1       2.630  -1.296   4.218  0.00  0.00    +0.014 A 
ATOM     22  C   UNL     1       3.445  -0.845   5.235  0.00  0.00    +0.001 A 
ATOM     23  C   UNL     1       3.490  -1.521   6.442  0.00  0.00    +0.001 A 
ATOM     24  C   UNL     1       2.718  -2.652   6.638  0.00  0.00    +0.016 A 
ATOM     25  C   UNL     1       1.893  -3.111   5.630  0.00  0.00    +0.030 A 
ATOM     26 BR   UNL     1       0.834  -4.654   5.901  0.00  0.00    -0.050 Br
ENDBRANCH  17  20
ENDBRANCH  14  15
ENDBRANCH  11  14
TORSDOF 4
