REMARK  Name = ZINC09471753
REMARK  12 active torsions:
REMARK  status: ('A' for Active; 'I' for Inactive)
REMARK    1  A    between atoms: C_1  and  C_2
REMARK    2  A    between atoms: C_2  and  C_3
REMARK    3  A    between atoms: C_8  and  S_9
REMARK    4  A    between atoms: S_9  and  C_10
REMARK    5  A    between atoms: C_10  and  C_11
REMARK    6  A    between atoms: N_13  and  C_14
REMARK    7  A    between atoms: C_15  and  C_23
REMARK    8  A    between atoms: C_23  and  O_25
REMARK    9  A    between atoms: O_25  and  C_26
REMARK   10  A    between atoms: C_26  and  C_27
REMARK   11  A    between atoms: N_30  and  C_35
REMARK   12  A    between atoms: N_33  and  C_34
REMARK                            x       y       z     vdW  Elec       q    Type
REMARK                         _______ _______ _______ _____ _____    ______ ____
ROOT
ATOM      1  C   UNL     1      -1.536   2.478   2.471  0.00  0.00    +0.170 C 
ENDROOT
BRANCH   1   2
ATOM      2  C   UNL     1      -2.621   3.383   2.997  0.00  0.00    +0.228 C 
ATOM      3  O   UNL     1      -3.364   3.952   2.226  0.00  0.00    -0.275 OA
ATOM      4  N   UNL     1      -2.766   3.559   4.326  0.00  0.00    -0.279 N 
ATOM      5  H   UNL     1      -2.173   3.103   4.943  0.00  0.00    +0.155 HD
BRANCH   4   6
ATOM      6  C   UNL     1      -3.764   4.390   4.810  0.00  0.00    +0.086 A 
ATOM      7  C   UNL     1      -4.072   4.691   6.130  0.00  0.00    +0.091 A 
ATOM      8  C   UNL     1      -5.176   5.606   6.370  0.00  0.00    -0.021 A 
ATOM      9  C   UNL     1      -5.797   6.061   5.261  0.00  0.00    -0.004 A 
ATOM     10  S   UNL     1      -4.935   5.301   3.914  0.00  0.00    -0.077 S 
ATOM     11  C   UNL     1      -6.961   7.002   5.200  0.00  0.00    +0.043 C 
ATOM     12  C   UNL     1      -7.589   7.086   6.598  0.00  0.00    +0.005 C 
ATOM     13  C   UNL     1      -6.476   7.306   7.627  0.00  0.00    +0.005 C 
ATOM     14  C   UNL     1      -5.631   6.038   7.759  0.00  0.00    +0.037 C 
BRANCH   7  15
ATOM     15  C   UNL     1      -3.311   4.111   7.239  0.00  0.00    +0.342 C 
ATOM     16  O   UNL     1      -2.329   4.686   7.669  0.00  0.00    -0.245 OA
BRANCH  15  17
ATOM     17  O   UNL     1      -3.698   2.939   7.783  0.00  0.00    -0.461 OA
BRANCH  17  18
ATOM     18  C   UNL     1      -2.896   2.424   8.878  0.00  0.00    +0.229 C 
ATOM     19  C   UNL     1      -3.485   1.097   9.361  0.00  0.00    +0.048 C 
ENDBRANCH  17  18
ENDBRANCH  15  17
ENDBRANCH   7  15
ENDBRANCH   4   6
ENDBRANCH   1   2
BRANCH   1  20
ATOM     20  S   UNL     1      -1.599   2.450   0.663  0.00  0.00    -0.115 S 
BRANCH  20  26
ATOM     21  C   UNL     1       1.066   1.933   0.178  0.00  0.00    -0.015 A 
ATOM     22  C   UNL     1       2.117   1.083  -0.091  0.00  0.00    +0.117 A 
ATOM     23  N   UNL     1       1.942  -0.221  -0.215  0.00  0.00    -0.237 NA
ATOM     24  C   UNL     1       0.750  -0.779  -0.087  0.00  0.00    +0.151 A 
ATOM     25  C   UNL     1      -0.375   0.018   0.188  0.00  0.00    +0.096 A 
ATOM     26  C   UNL     1      -0.220   1.407   0.325  0.00  0.00    +0.029 A 
ATOM     27  C   UNL     1      -1.683  -0.635   0.324  0.00  0.00    +0.267 A 
ATOM     28  O   UNL     1      -2.683   0.015   0.562  0.00  0.00    -0.267 OA
ATOM     29  N   UNL     1      -1.745  -1.976   0.178  0.00  0.00    -0.263 N 
ATOM     30  C   UNL     1      -0.643  -2.697  -0.084  0.00  0.00    +0.333 A 
ATOM     31  O   UNL     1      -0.752  -3.902  -0.206  0.00  0.00    -0.246 OA
ATOM     32  N   UNL     1       0.575  -2.146  -0.217  0.00  0.00    -0.281 N 
ATOM     33  C   UNL     1       1.729  -3.000  -0.504  0.00  0.00    +0.155 C 
ATOM     34  C   UNL     1      -3.036  -2.656   0.309  0.00  0.00    +0.157 C 
BRANCH  21  36
ATOM     35  C   UNL     1       1.047   4.097  -1.034  0.00  0.00    +0.009 C 
ATOM     36  C   UNL     1       1.302   3.416   0.312  0.00  0.00    +0.034 C 
ENDBRANCH  21  36
ENDBRANCH  20  26
ENDBRANCH   1  20
TORSDOF 8
