REMARK  Name = ZINC67544685
REMARK  6 active torsions:
REMARK  status: ('A' for Active; 'I' for Inactive)
REMARK    1  A    between atoms: C_1  and  N_2
REMARK    2  A    between atoms: N_2  and  C_3
REMARK    3  A    between atoms: N_2  and  S_6
REMARK    4  A    between atoms: C_3  and  C_4
REMARK    5  A    between atoms: S_6  and  C_9
REMARK    6  A    between atoms: C_12  and  N_15
REMARK                            x       y       z     vdW  Elec       q    Type
REMARK                         _______ _______ _______ _____ _____    ______ ____
ROOT
ATOM      1  C   UNL     1       1.748  -0.929  -1.780  0.00  0.00    +0.106 A 
ATOM      2  C   UNL     1       2.494   0.098  -2.328  0.00  0.00    +0.030 A 
ATOM      3  C   UNL     1       3.787  -0.137  -2.754  0.00  0.00    +0.025 A 
ATOM      4  C   UNL     1       4.337  -1.406  -2.631  0.00  0.00    +0.035 A 
ATOM      5  C   UNL     1       3.584  -2.435  -2.080  0.00  0.00    +0.025 A 
ATOM      6  C   UNL     1       2.294  -2.192  -1.651  0.00  0.00    +0.030 A 
ENDROOT
BRANCH   4   7
ATOM      7  N   UNL     1       5.646  -1.648  -3.062  0.00  0.00    -0.269 N 
ATOM      8  C   UNL     1       6.351  -2.670  -2.537  0.00  0.00    +0.307 C 
ATOM      9  O   UNL     1       5.802  -3.478  -1.813  0.00  0.00    -0.252 OA
ATOM     10  N   UNL     1       7.664  -2.796  -2.814  0.00  0.00    -0.282 N 
ATOM     11  C   UNL     1       8.358  -1.726  -3.533  0.00  0.00    +0.132 C 
ATOM     12  C   UNL     1       9.416  -1.099  -2.620  0.00  0.00    +0.185 C 
ATOM     13  S   UNL     1      10.567  -2.397  -2.078  0.00  0.00    -0.028 S 
ATOM     14  O   UNL     1      11.388  -1.870  -1.045  0.00  0.00    -0.174 OA
ATOM     15  O   UNL     1      11.179  -2.966  -3.227  0.00  0.00    -0.174 OA
ATOM     16  C   UNL     1       9.442  -3.625  -1.352  0.00  0.00    +0.185 C 
ATOM     17  C   UNL     1       8.382  -3.997  -2.386  0.00  0.00    +0.132 C 
ATOM     18  H   UNL     1       6.046  -1.080  -3.739  0.00  0.00    +0.156 HD
ENDBRANCH   4   7
BRANCH   1  19
ATOM     19  S   UNL     1       0.099  -0.624  -1.237  0.00  0.00    +0.061 S 
ATOM     20  O   UNL     1      -0.573  -1.876  -1.258  0.00  0.00    -0.153 OA
ATOM     21  O   UNL     1      -0.367   0.502  -1.967  0.00  0.00    -0.153 OA
BRANCH  19  23
ATOM     22  C   UNL     1       0.326   1.259   0.690  0.00  0.00    +0.132 C 
ATOM     23  N   UNL     1       0.184  -0.159   0.350  0.00  0.00    -0.176 NA
BRANCH  23  24
ATOM     24  C   UNL     1       0.117  -1.164   1.413  0.00  0.00    +0.135 C 
BRANCH  24  25
ATOM     25  C   UNL     1      -1.305  -1.287   1.899  0.00  0.00    -0.018 C 
ATOM     26  C   UNL     1      -1.897  -2.456   1.902  0.00  0.00    +0.005 C 
ENDBRANCH  24  25
ENDBRANCH  23  24
ENDBRANCH  19  23
ENDBRANCH   1  19
TORSDOF 5
