REMARK  Name = ZINC62375072
REMARK  6 active torsions:
REMARK  status: ('A' for Active; 'I' for Inactive)
REMARK    1  A    between atoms: C_1  and  C_2
REMARK    2  A    between atoms: C_2  and  C_3
REMARK    3  A    between atoms: C_2  and  C_4
REMARK    4  A    between atoms: C_4  and  C_5
REMARK    5  A    between atoms: C_16  and  N_19
REMARK    6  A    between atoms: C_20  and  C_22
REMARK                            x       y       z     vdW  Elec       q    Type
REMARK                         _______ _______ _______ _____ _____    ______ ____
ROOT
ATOM      1  C   UNL     1      -2.130  -0.141  -1.264  0.00  0.00    +0.104 A 
ATOM      2  N   UNL     1      -2.209  -0.778  -2.415  0.00  0.00    -0.145 NA
ATOM      3  N   UNL     1      -2.850  -0.250  -3.368  0.00  0.00    -0.126 NA
ATOM      4  C   UNL     1      -3.442   0.921  -3.244  0.00  0.00    +0.189 A 
ATOM      5  S   UNL     1      -3.079   1.325  -1.648  0.00  0.00    -0.035 S 
ATOM      6  N   UNL     1      -4.178   1.635  -4.183  0.00  0.00    -0.247 N 
ATOM      7  C   UNL     1      -4.362   1.132  -5.420  0.00  0.00    +0.308 C 
ATOM      8  O   UNL     1      -3.808   0.099  -5.744  0.00  0.00    -0.252 OA
ATOM      9  N   UNL     1      -5.160   1.773  -6.297  0.00  0.00    -0.285 N 
ATOM     10  C   UNL     1      -5.743   3.079  -5.962  0.00  0.00    +0.111 C 
ATOM     11  C   UNL     1      -7.261   3.007  -6.159  0.00  0.00    +0.041 C 
ATOM     12  C   UNL     1      -7.564   2.529  -7.581  0.00  0.00    +0.076 C 
ATOM     13  C   UNL     1      -6.983   1.128  -7.785  0.00  0.00    +0.041 C 
ATOM     14  C   UNL     1      -5.458   1.181  -7.608  0.00  0.00    +0.111 C 
ATOM     15  H   UNL     1      -4.560   2.496  -3.949  0.00  0.00    +0.158 HD
ENDROOT
BRANCH  12  16
ATOM     16  N   UNL     1      -9.015   2.490  -7.784  0.00  0.00    -0.312 N 
ATOM     17  C   UNL     1      -9.524   2.599  -9.026  0.00  0.00    +0.216 C 
ATOM     18  O   UNL     1      -8.783   2.728  -9.977  0.00  0.00    -0.276 OA
ATOM     19  H   UNL     1      -9.608   2.387  -7.023  0.00  0.00    +0.149 HD
BRANCH  17  20
ATOM     20  C   UNL     1     -11.017   2.559  -9.235  0.00  0.00    +0.075 C 
ATOM     21  C   UNL     1     -11.670   3.709  -8.466  0.00  0.00    +0.013 C 
ATOM     22  C   UNL     1     -13.184   3.669  -8.677  0.00  0.00    +0.001 C 
ATOM     23  C   UNL     1     -13.495   3.811 -10.169  0.00  0.00    +0.000 C 
ATOM     24  C   UNL     1     -12.842   2.661 -10.938  0.00  0.00    +0.001 C 
ATOM     25  C   UNL     1     -11.327   2.701 -10.726  0.00  0.00    +0.013 C 
ENDBRANCH  17  20
ENDBRANCH  12  16
BRANCH   1  26
ATOM     26  C   UNL     1      -1.440  -0.538   0.015  0.00  0.00    +0.068 C 
BRANCH  26  28
ATOM     27  C   UNL     1      -0.024   1.520   0.015  0.00  0.00    +0.007 C 
ATOM     28  C   UNL     1      -0.004  -0.010   0.006  0.00  0.00    -0.011 C 
ATOM     29  C   UNL     1       0.734  -0.517   1.246  0.00  0.00    +0.007 C 
ENDBRANCH  26  28
ENDBRANCH   1  26
TORSDOF 4
