REMARK  Name = ZINC27384884
REMARK  5 active torsions:
REMARK  status: ('A' for Active; 'I' for Inactive)
REMARK    1  A    between atoms: C_4  and  C_7
REMARK    2  A    between atoms: N_9  and  C_10
REMARK    3  A    between atoms: C_13  and  O_16
REMARK    4  A    between atoms: O_16  and  C_17
REMARK    5  A    between atoms: C_17  and  C_19
REMARK                            x       y       z     vdW  Elec       q    Type
REMARK                         _______ _______ _______ _____ _____    ______ ____
ROOT
ATOM      1  C   UNL     1       4.965  -2.663   0.030  0.00  0.00    +0.034 A 
ATOM      2  C   UNL     1       6.123  -1.902   0.121  0.00  0.00    +0.027 A 
ATOM      3  C   UNL     1       7.353  -2.525   0.194  0.00  0.00    +0.048 A 
ATOM      4  C   UNL     1       7.432  -3.910   0.176  0.00  0.00    +0.132 A 
ATOM      5  C   UNL     1       6.274  -4.671   0.085  0.00  0.00    +0.048 A 
ATOM      6  C   UNL     1       5.043  -4.049   0.018  0.00  0.00    +0.027 A 
ENDROOT
BRANCH   1   9
ATOM      7  C   UNL     1       2.644  -2.588   0.550  0.00  0.00    +0.248 C 
ATOM      8  O   UNL     1       2.740  -3.678   1.080  0.00  0.00    -0.270 OA
ATOM      9  N   UNL     1       3.717  -2.032  -0.045  0.00  0.00    -0.281 N 
ATOM     10  H   UNL     1       3.625  -1.194  -0.525  0.00  0.00    +0.155 HD
BRANCH   7  14
ATOM     11  C   UNL     1      -1.074  -0.534   0.576  0.00  0.00    +0.000 A 
ATOM     12  C   UNL     1      -0.968  -1.774   1.180  0.00  0.00    +0.001 A 
ATOM     13  C   UNL     1       0.236  -2.447   1.175  0.00  0.00    +0.013 A 
ATOM     14  C   UNL     1       1.350  -1.873   0.559  0.00  0.00    +0.037 A 
ATOM     15  C   UNL     1       1.237  -0.622  -0.048  0.00  0.00    +0.013 A 
ATOM     16  C   UNL     1       0.026   0.040  -0.036  0.00  0.00    +0.001 A 
ENDBRANCH   7  14
ENDBRANCH   1   9
BRANCH   4  17
ATOM     17  O   UNL     1       8.643  -4.523   0.248  0.00  0.00    -0.420 OA
BRANCH  17  18
ATOM     18  C   UNL     1       9.266  -4.555   1.442  0.00  0.00    +0.380 C 
ATOM     19  O   UNL     1       8.789  -3.968   2.391  0.00  0.00    -0.241 OA
BRANCH  18  20
ATOM     20  C   UNL     1      10.534  -5.305   1.595  0.00  0.00    +0.216 A 
ATOM     21  C   UNL     1      11.134  -5.323   2.811  0.00  0.00    +0.105 A 
ATOM     22  C   UNL     1      12.403  -6.058   2.950  0.00  0.00    +0.193 A 
ATOM     23  O   UNL     1      12.886  -6.311   4.040  0.00  0.00    -0.287 OA
ATOM     24  C   UNL     1      13.054  -6.471   1.691  0.00  0.00    +0.064 A 
ATOM     25  C   UNL     1      14.366  -6.940   1.668  0.00  0.00    +0.015 A 
ATOM     26  C   UNL     1      14.932  -7.306   0.478  0.00  0.00    +0.001 A 
ATOM     27  C   UNL     1      14.209  -7.210  -0.702  0.00  0.00    +0.004 A 
ATOM     28  C   UNL     1      12.909  -6.751  -0.698  0.00  0.00    +0.047 A 
ATOM     29  C   UNL     1      12.311  -6.377   0.501  0.00  0.00    +0.140 A 
ATOM     30  O   UNL     1      11.036  -5.942   0.529  0.00  0.00    -0.448 OA
ENDBRANCH  18  20
ENDBRANCH  17  18
ENDBRANCH   4  17
TORSDOF 5
