REMARK  Name = ZINC12495484
REMARK  7 active torsions:
REMARK  status: ('A' for Active; 'I' for Inactive)
REMARK    1  A    between atoms: C_1  and  C_2
REMARK    2  A    between atoms: C_2  and  C_3
REMARK    3  A    between atoms: C_3  and  C_23
REMARK    4  A    between atoms: C_8  and  C_10
REMARK    5  A    between atoms: N_19  and  C_22
REMARK    6  A    between atoms: C_23  and  O_25
REMARK    7  A    between atoms: O_25  and  C_26
REMARK                            x       y       z     vdW  Elec       q    Type
REMARK                         _______ _______ _______ _____ _____    ______ ____
ROOT
ATOM      1  C   UNL     1      -0.018   1.495   0.010  0.00  0.00    +0.043 C 
ATOM      2  C   UNL     1       1.414   1.889  -0.001  0.00  0.00    +0.086 C 
ATOM      3  C   UNL     1       2.051   0.738   0.874  0.00  0.00    +0.077 C 
ATOM      4  C   UNL     1       1.433  -0.436   0.154  0.00  0.00    -0.027 C 
ATOM      5  C   UNL     1       3.460   1.183   0.784  0.00  0.00    +0.224 C 
ATOM      6  O   UNL     1       4.449   0.484   0.718  0.00  0.00    -0.275 OA
ATOM      7  N   UNL     1       3.408   2.552   0.791  0.00  0.00    -0.245 N 
ATOM      8  C   UNL     1       2.149   3.033   0.532  0.00  0.00    +0.225 C 
ATOM      9  O   UNL     1       1.738   4.160   0.707  0.00  0.00    -0.275 OA
ATOM     10  C   UNL     1       4.569   3.408   1.048  0.00  0.00    +0.141 C 
ATOM     11  N   UNL     1       0.013   0.004   0.003  0.00  0.00    +0.395 N 
ATOM     12  H   UNL     1      -0.366  -0.346  -0.884  0.00  0.00    -0.083 HD
ATOM     13  H   UNL     1      -0.548  -0.358   0.783  0.00  0.00    -0.083 HD
ENDROOT
BRANCH   4  14
ATOM     14  C   UNL     1       1.528  -1.690   0.986  0.00  0.00    -0.061 A 
ATOM     15  C   UNL     1       0.703  -1.856   2.083  0.00  0.00    +0.003 A 
ATOM     16  C   UNL     1       0.786  -3.008   2.842  0.00  0.00    +0.020 A 
ATOM     17  C   UNL     1       1.702  -3.990   2.511  0.00  0.00    +0.041 A 
ATOM     18  C   UNL     1       2.531  -3.821   1.416  0.00  0.00    +0.020 A 
ATOM     19  C   UNL     1       2.444  -2.671   0.654  0.00  0.00    +0.003 A 
ATOM     20 CL   UNL     1       1.812  -5.434   3.468  0.00  0.00    -0.084 Cl
ENDBRANCH   4  14
BRANCH   1  22
ATOM     21  C   UNL     1      -2.178   1.538  -1.246  0.00  0.00    +0.003 C 
ATOM     22  C   UNL     1      -0.728   2.026  -1.237  0.00  0.00    -0.004 C 
ENDBRANCH   1  22
BRANCH   1  23
ATOM     23  C   UNL     1      -0.693   2.005   1.258  0.00  0.00    +0.297 C 
ATOM     24  O   UNL     1      -0.288   3.007   1.797  0.00  0.00    -0.252 OA
BRANCH  23  25
ATOM     25  O   UNL     1      -1.745   1.346   1.769  0.00  0.00    -0.469 OA
ATOM     26  C   UNL     1      -2.345   1.894   2.972  0.00  0.00    +0.280 C 
ENDBRANCH  23  25
ENDBRANCH   1  23
TORSDOF 4
