REMARK  Name = ZINC40144167
REMARK  6 active torsions:
REMARK  status: ('A' for Active; 'I' for Inactive)
REMARK    1  A    between atoms: C_1  and  C_2
REMARK    2  A    between atoms: C_4  and  C_31
REMARK    3  A    between atoms: C_6  and  C_8
REMARK    4  A    between atoms: C_14  and  C_17
REMARK    5  A    between atoms: N_19  and  N_20
REMARK    6  A    between atoms: C_21  and  C_23
REMARK                            x       y       z     vdW  Elec       q    Type
REMARK                         _______ _______ _______ _____ _____    ______ ____
ROOT
ATOM      1  C   UNL     1       0.052  -2.845   2.458  0.00  0.00    +0.247 C 
ATOM      2  O   UNL     1      -0.039  -4.058   2.450  0.00  0.00    -0.270 OA
ATOM      3  N   UNL     1       0.150  -2.185   3.628  0.00  0.00    -0.297 N 
ATOM      4  C   UNL     1       0.127  -0.716   3.664  0.00  0.00    +0.108 C 
ATOM      5  C   UNL     1      -0.963  -0.264   4.641  0.00  0.00    +0.020 C 
ATOM      6  C   UNL     1      -0.725  -0.922   6.003  0.00  0.00    +0.016 C 
ATOM      7  C   UNL     1      -0.808  -2.443   5.858  0.00  0.00    +0.094 C 
ATOM      8  C   UNL     1       0.277  -2.920   4.894  0.00  0.00    +0.120 C 
ENDROOT
BRANCH   1  14
ATOM      9  C   UNL     1       1.847   0.852  -0.372  0.00  0.00    +0.044 C 
ATOM     10  C   UNL     1       0.916  -0.317  -0.182  0.00  0.00    -0.049 A 
ATOM     11  C   UNL     1       0.059  -0.690  -1.203  0.00  0.00    +0.006 A 
ATOM     12  C   UNL     1      -0.799  -1.763  -1.036  0.00  0.00    -0.049 A 
ATOM     13  C   UNL     1      -0.807  -2.467   0.150  0.00  0.00    +0.016 A 
ATOM     14  C   UNL     1       0.055  -2.096   1.183  0.00  0.00    +0.037 A 
ATOM     15  C   UNL     1       0.922  -1.016   1.007  0.00  0.00    +0.016 A 
ATOM     16  C   UNL     1      -1.729  -2.162  -2.153  0.00  0.00    +0.044 C 
ENDBRANCH   1  14
BRANCH   7  17
ATOM     17  C   UNL     1      -0.607  -3.088   7.205  0.00  0.00    +0.234 C 
ATOM     18  O   UNL     1      -0.416  -2.400   8.185  0.00  0.00    -0.274 OA
ATOM     19  N   UNL     1      -0.639  -4.431   7.320  0.00  0.00    -0.234 N 
ATOM     20  H   UNL     1      -0.791  -4.981   6.537  0.00  0.00    +0.173 HD
BRANCH  19  21
ATOM     21  N   UNL     1      -0.452  -5.031   8.572  0.00  0.00    -0.230 N 
ATOM     22  C   UNL     1      -0.484  -6.373   8.688  0.00  0.00    +0.267 C 
ATOM     23  O   UNL     1      -0.675  -7.064   7.705  0.00  0.00    -0.268 OA
ATOM     24  H   UNL     1      -0.299  -4.480   9.356  0.00  0.00    +0.173 HD
BRANCH  22  25
ATOM     25  C   UNL     1      -0.288  -7.001   9.998  0.00  0.00    +0.076 A 
ATOM     26  C   UNL     1      -0.279  -8.340  10.328  0.00  0.00    +0.024 A 
ATOM     27  C   UNL     1      -0.068  -8.657  11.672  0.00  0.00    -0.036 A 
ATOM     28  C   UNL     1       0.105  -7.614  12.524  0.00  0.00    -0.006 A 
ATOM     29  S   UNL     1       0.006  -6.234  11.579  0.00  0.00    -0.088 S 
ATOM     30  C   UNL     1       0.316  -8.079  13.941  0.00  0.00    +0.043 C 
ATOM     31  C   UNL     1      -0.176  -9.542  13.949  0.00  0.00    +0.010 C 
ATOM     32  C   UNL     1       0.026  -9.955  12.479  0.00  0.00    +0.036 C 
ENDBRANCH  22  25
ENDBRANCH  19  21
ENDBRANCH   7  17
TORSDOF 4
