REMARK  Name = ZINC08394331
REMARK  3 active torsions:
REMARK  status: ('A' for Active; 'I' for Inactive)
REMARK    1  A    between atoms: C_1  and  C_2
REMARK    2  A    between atoms: C_2  and  C_20
REMARK    3  A    between atoms: N_13  and  C_14
REMARK                            x       y       z     vdW  Elec       q    Type
REMARK                         _______ _______ _______ _____ _____    ______ ____
ROOT
ATOM      1  C   UNL     1       3.899   1.770  -1.510  0.00  0.00    +0.050 C 
ATOM      2  C   UNL     1       2.557   1.163  -1.094  0.00  0.00    +0.141 C 
ATOM      3  C   UNL     1       1.978   1.969   0.065  0.00  0.00    +0.142 C 
ATOM      4  N   UNL     1       0.566   1.657   0.267  0.00  0.00    -0.340 N 
ATOM      5  C   UNL     1       0.160   0.328   0.216  0.00  0.00    +0.039 A 
ATOM      6  C   UNL     1      -0.238  -0.346   1.360  0.00  0.00    +0.024 A 
ATOM      7  C   UNL     1      -0.615  -1.672   1.280  0.00  0.00    +0.002 A 
ATOM      8  C   UNL     1      -0.596  -2.337   0.064  0.00  0.00    +0.001 A 
ATOM      9  C   UNL     1      -0.210  -1.681  -1.086  0.00  0.00    +0.015 A 
ATOM     10  C   UNL     1       0.162  -0.339  -1.022  0.00  0.00    +0.058 A 
ATOM     11  C   UNL     1       0.530   0.411  -2.234  0.00  0.00    +0.254 C 
ATOM     12  O   UNL     1      -0.167   0.344  -3.228  0.00  0.00    -0.270 OA
ATOM     13  N   UNL     1       1.647   1.177  -2.240  0.00  0.00    -0.247 N 
ATOM     14  H   UNL     1      -0.078   2.364   0.431  0.00  0.00    +0.146 HD
ENDROOT
BRANCH  13  15
ATOM     15  C   UNL     1       1.933   1.983  -3.346  0.00  0.00    +0.038 A 
ATOM     16  C   UNL     1       2.601   1.451  -4.441  0.00  0.00    +0.023 A 
ATOM     17  C   UNL     1       2.876   2.249  -5.535  0.00  0.00    +0.002 A 
ATOM     18  C   UNL     1       2.497   3.579  -5.535  0.00  0.00    +0.000 A 
ATOM     19  C   UNL     1       1.837   4.113  -4.444  0.00  0.00    +0.002 A 
ATOM     20  C   UNL     1       1.553   3.319  -3.350  0.00  0.00    +0.023 A 
ENDBRANCH  13  15
BRANCH   2  21
ATOM     21  C   UNL     1       2.769  -0.227  -0.660  0.00  0.00    +0.090 C 
ATOM     22  N   UNL     1       2.932  -1.300  -0.325  0.00  0.00    -0.194 NA
ENDBRANCH   2  21
TORSDOF 2
