REMARK  Name = ZINC65056712
REMARK  8 active torsions:
REMARK  status: ('A' for Active; 'I' for Inactive)
REMARK    1  A    between atoms: C_1  and  C_2
REMARK    2  A    between atoms: C_6  and  C_11
REMARK    3  A    between atoms: C_11  and  C_12
REMARK    4  A    between atoms: C_12  and  C_13
REMARK    5  A    between atoms: N_15  and  C_16
REMARK    6  A    between atoms: C_16  and  C_17
REMARK    7  A    between atoms: C_26  and  C_33
REMARK    8  A    between atoms: C_29  and  C_32
REMARK                            x       y       z     vdW  Elec       q    Type
REMARK                         _______ _______ _______ _____ _____    ______ ____
ROOT
ATOM      1  C   UNL     1       0.535   1.492  -0.087  0.00  0.00    +0.070 C 
ATOM      2  C   UNL     1       0.457  -0.013  -0.078  0.00  0.00    +0.093 A 
ATOM      3  C   UNL     1       0.116  -0.868  -1.211  0.00  0.00    +0.103 A 
ATOM      4  C   UNL     1      -0.225  -0.643  -2.556  0.00  0.00    +0.138 A 
ATOM      5  N   UNL     1      -0.482  -1.696  -3.326  0.00  0.00    -0.216 NA
ATOM      6  C   UNL     1      -0.421  -2.923  -2.844  0.00  0.00    +0.135 A 
ATOM      7  N   UNL     1      -0.107  -3.179  -1.591  0.00  0.00    -0.195 NA
ATOM      8  C   UNL     1       0.168  -2.193  -0.743  0.00  0.00    +0.263 A 
ATOM      9  O   UNL     1       0.510  -2.139   0.554  0.00  0.00    -0.334 OA
ATOM     10  N   UNL     1       0.688  -0.789   0.938  0.00  0.00    -0.080 NA
ATOM     11  N   UNL     1      -0.290   0.639  -3.064  0.00  0.00    -0.314 N 
ATOM     12  C   UNL     1       0.918   1.309  -3.563  0.00  0.00    +0.109 C 
ATOM     13  C   UNL     1       0.657   1.797  -4.991  0.00  0.00    +0.004 C 
ATOM     14  C   UNL     1      -0.598   2.672  -5.006  0.00  0.00    +0.009 C 
ATOM     15  C   UNL     1      -1.803   1.846  -4.550  0.00  0.00    +0.004 C 
ATOM     16  C   UNL     1      -1.571   1.356  -3.122  0.00  0.00    +0.109 C 
ATOM     17  C   UNL     1      -1.977   0.642  -5.478  0.00  0.00    +0.009 C 
ATOM     18  C   UNL     1       1.856   2.614  -5.479  0.00  0.00    +0.009 C 
ENDROOT
BRANCH   6  19
ATOM     19  C   UNL     1      -0.723  -4.078  -3.764  0.00  0.00    +0.085 C 
BRANCH  19  20
ATOM     20  C   UNL     1       0.569  -4.542  -4.440  0.00  0.00    +0.103 C 
BRANCH  20  21
ATOM     21  C   UNL     1       0.267  -5.697  -5.361  0.00  0.00    +0.214 C 
ATOM     22  O   UNL     1      -0.870  -6.108  -5.465  0.00  0.00    -0.276 OA
ATOM     23  N   UNL     1       1.259  -6.273  -6.067  0.00  0.00    -0.311 N 
ATOM     24  H   UNL     1       2.168  -5.944  -5.984  0.00  0.00    +0.149 HD
BRANCH  23  25
ATOM     25  C   UNL     1       0.966  -7.395  -6.962  0.00  0.00    +0.139 C 
BRANCH  25  26
ATOM     26  C   UNL     1       2.238  -7.853  -7.628  0.00  0.00    -0.030 A 
ATOM     27  C   UNL     1       2.629  -7.291  -8.829  0.00  0.00    +0.008 A 
ATOM     28  C   UNL     1       3.796  -7.710  -9.441  0.00  0.00    +0.038 A 
ATOM     29  C   UNL     1       4.573  -8.692  -8.850  0.00  0.00    +0.123 A 
ATOM     30  C   UNL     1       4.180  -9.253  -7.647  0.00  0.00    +0.038 A 
ATOM     31  C   UNL     1       3.015  -8.830  -7.034  0.00  0.00    +0.008 A 
ATOM     32  F   UNL     1       5.713  -9.102  -9.447  0.00  0.00    -0.205 F 
ENDBRANCH  25  26
ENDBRANCH  23  25
ENDBRANCH  20  21
ENDBRANCH  19  20
ENDBRANCH   6  19
TORSDOF 5
