REMARK  Name = ZINC12497344
REMARK  10 active torsions:
REMARK  status: ('A' for Active; 'I' for Inactive)
REMARK    1  A    between atoms: C_1  and  C_2
REMARK    2  A    between atoms: C_2  and  C_3
REMARK    3  A    between atoms: C_3  and  C_4
REMARK    4  A    between atoms: C_4  and  C_30
REMARK    5  A    between atoms: C_9  and  C_11
REMARK    6  A    between atoms: C_14  and  C_17
REMARK    7  A    between atoms: N_20  and  C_23
REMARK    8  A    between atoms: C_26  and  C_29
REMARK    9  A    between atoms: C_30  and  O_32
REMARK   10  A    between atoms: O_32  and  C_33
REMARK                            x       y       z     vdW  Elec       q    Type
REMARK                         _______ _______ _______ _____ _____    ______ ____
ROOT
ATOM      1  C   UNL     1      -1.466   3.603   2.534  0.00  0.00    +0.044 C 
ATOM      2  C   UNL     1      -1.498   5.073   2.564  0.00  0.00    +0.086 C 
ATOM      3  C   UNL     1      -1.583   5.389   4.112  0.00  0.00    +0.077 C 
ATOM      4  C   UNL     1      -0.430   4.467   4.530  0.00  0.00    -0.027 C 
ATOM      5  C   UNL     1      -1.355   6.870   3.978  0.00  0.00    +0.229 C 
ATOM      6  O   UNL     1      -0.743   7.589   4.738  0.00  0.00    -0.275 OA
ATOM      7  N   UNL     1      -1.982   7.236   2.820  0.00  0.00    -0.210 N 
ATOM      8  C   UNL     1      -2.278   6.165   2.023  0.00  0.00    +0.229 C 
ATOM      9  O   UNL     1      -3.029   6.139   1.071  0.00  0.00    -0.275 OA
ATOM     10  N   UNL     1      -0.694   3.236   3.758  0.00  0.00    +0.395 N 
ATOM     11  H   UNL     1       0.195   2.799   3.489  0.00  0.00    -0.083 HD
ATOM     12  H   UNL     1      -1.240   2.580   4.328  0.00  0.00    -0.083 HD
ENDROOT
BRANCH   4  13
ATOM     13  C   UNL     1      -0.463   4.210   6.014  0.00  0.00    -0.061 A 
ATOM     14  C   UNL     1      -1.338   3.276   6.535  0.00  0.00    +0.002 A 
ATOM     15  C   UNL     1      -1.365   3.037   7.897  0.00  0.00    +0.003 A 
ATOM     16  C   UNL     1      -0.522   3.739   8.738  0.00  0.00    -0.050 A 
ATOM     17  C   UNL     1       0.350   4.677   8.218  0.00  0.00    +0.003 A 
ATOM     18  C   UNL     1       0.379   4.913   6.856  0.00  0.00    +0.002 A 
ATOM     19  C   UNL     1      -0.555   3.482  10.223  0.00  0.00    +0.044 C 
ENDBRANCH   4  13
BRANCH   7  20
ATOM     20  C   UNL     1      -2.297   8.563   2.494  0.00  0.00    +0.044 A 
ATOM     21  C   UNL     1      -2.930   8.852   1.292  0.00  0.00    +0.024 A 
ATOM     22  C   UNL     1      -3.244  10.159   0.976  0.00  0.00    +0.005 A 
ATOM     23  C   UNL     1      -2.919  11.181   1.849  0.00  0.00    -0.050 A 
ATOM     24  C   UNL     1      -2.283  10.896   3.044  0.00  0.00    +0.005 A 
ATOM     25  C   UNL     1      -1.971   9.590   3.369  0.00  0.00    +0.024 A 
ATOM     26  C   UNL     1      -3.257  12.606   1.499  0.00  0.00    +0.044 C 
ENDBRANCH   7  20
BRANCH   1  27
ATOM     27  C   UNL     1      -2.864   3.043   2.597  0.00  0.00    +0.297 C 
ATOM     28  O   UNL     1      -3.794   3.695   2.187  0.00  0.00    -0.252 OA
BRANCH  27  29
ATOM     29  O   UNL     1      -3.074   1.820   3.110  0.00  0.00    -0.469 OA
ATOM     30  C   UNL     1      -4.446   1.345   3.139  0.00  0.00    +0.280 C 
ENDBRANCH  27  29
ENDBRANCH   1  27
BRANCH   1  31
ATOM     31  C   UNL     1      -0.750   3.109   1.275  0.00  0.00    -0.001 C 
BRANCH  31  33
ATOM     32  C   UNL     1      -0.013   1.086   0.008  0.00  0.00    +0.004 C 
ATOM     33  C   UNL     1      -0.729   1.579   1.267  0.00  0.00    -0.004 C 
ENDBRANCH  31  33
ENDBRANCH   1  31
TORSDOF 6
