REMARK  Name = ZINC09782909
REMARK  10 active torsions:
REMARK  status: ('A' for Active; 'I' for Inactive)
REMARK    1  A    between atoms: C_1  and  N_2
REMARK    2  A    between atoms: N_2  and  C_25
REMARK    3  A    between atoms: C_3  and  C_5
REMARK    4  A    between atoms: C_5  and  N_63
REMARK    5  A    between atoms: C_10  and  O_23
REMARK    6  A    between atoms: C_11  and  O_21
REMARK    7  A    between atoms: C_14  and  C_16
REMARK    8  A    between atoms: O_21  and  C_22
REMARK    9  A    between atoms: O_23  and  C_24
REMARK   10  A    between atoms: C_25  and  C_31
REMARK                            x       y       z     vdW  Elec       q    Type
REMARK                         _______ _______ _______ _____ _____    ______ ____
ROOT
ATOM      1  C   UNL     1       2.924   6.584   1.127  0.00  0.00    -0.072 C 
ATOM      2  C   UNL     1       2.773   7.480  -0.103  0.00  0.00    +0.017 C 
ATOM      3  C   UNL     1       2.829   6.646  -1.357  0.00  0.00    -0.043 A 
ATOM      4  C   UNL     1       3.063   7.287  -2.566  0.00  0.00    +0.053 A 
ATOM      5  C   UNL     1       3.117   6.564  -3.742  0.00  0.00    +0.162 A 
ATOM      6  C   UNL     1       2.937   5.184  -3.711  0.00  0.00    +0.162 A 
ATOM      7  C   UNL     1       2.706   4.549  -2.504  0.00  0.00    +0.052 A 
ATOM      8  C   UNL     1       2.653   5.279  -1.325  0.00  0.00    -0.049 A 
ATOM      9  C   UNL     1       2.402   4.540  -0.037  0.00  0.00    +0.001 C 
ATOM     10  N   UNL     1       1.952   5.479   1.003  0.00  0.00    +0.393 N 
ATOM     11  H   UNL     1       1.038   5.864   0.735  0.00  0.00    -0.080 HD
ENDROOT
BRANCH   9  12
ATOM     12  C   UNL     1       1.328   3.506  -0.258  0.00  0.00    -0.019 A 
ATOM     13  C   UNL     1       1.457   2.174  -0.476  0.00  0.00    +0.010 A 
ATOM     14  C   UNL     1       0.319   1.411  -0.654  0.00  0.00    +0.008 A 
ATOM     15  C   UNL     1      -0.893   2.017  -0.610  0.00  0.00    +0.045 A 
ATOM     16  S   UNL     1      -0.444   3.717  -0.300  0.00  0.00    -0.103 S 
ENDBRANCH   9  12
BRANCH   6  17
ATOM     17  O   UNL     1       2.987   4.463  -4.863  0.00  0.00    -0.491 OA
ATOM     18  C   UNL     1       2.792   3.051  -4.754  0.00  0.00    +0.277 C 
ENDBRANCH   6  17
BRANCH   5  19
ATOM     19  O   UNL     1       3.346   7.197  -4.923  0.00  0.00    -0.491 OA
ATOM     20  C   UNL     1       3.522   8.614  -4.877  0.00  0.00    +0.277 C 
ENDBRANCH   5  19
BRANCH  10  21
ATOM     21  C   UNL     1       1.815   4.775   2.298  0.00  0.00    +0.020 C 
BRANCH  21  24
ATOM     22  C   UNL     1       2.102   3.558   4.841  0.00  0.00    +0.133 C 
ATOM     23  N   UNL     1       3.278   3.701   3.979  0.00  0.00    -0.288 N 
ATOM     24  C   UNL     1       3.158   4.278   2.766  0.00  0.00    +0.200 C 
ATOM     25  O   UNL     1       4.132   4.396   2.053  0.00  0.00    -0.278 OA
BRANCH  23  26
ATOM     26  C   UNL     1       4.583   3.218   4.434  0.00  0.00    +0.123 C 
ATOM     27  C   UNL     1       5.099   2.152   3.466  0.00  0.00    +0.041 C 
ATOM     28  C   UNL     1       6.462   1.647   3.942  0.00  0.00    +0.003 C 
ATOM     29  C   UNL     1       6.322   1.040   5.339  0.00  0.00    +0.000 C 
ATOM     30  C   UNL     1       5.807   2.107   6.308  0.00  0.00    +0.003 C 
ATOM     31  C   UNL     1       4.443   2.612   5.832  0.00  0.00    +0.041 C 
BRANCH  26  32
ATOM     32  C   UNL     1       5.534   4.341   4.479  0.00  0.00    +0.089 C 
ATOM     33  N   UNL     1       6.268   5.207   4.514  0.00  0.00    -0.194 NA
ENDBRANCH  26  32
ENDBRANCH  23  26
ENDBRANCH  21  24
ENDBRANCH  10  21
TORSDOF 7
