REMARK  Name = ZINC09130474
REMARK  9 active torsions:
REMARK  status: ('A' for Active; 'I' for Inactive)
REMARK    1  A    between atoms: C_1  and  C_2
REMARK    2  A    between atoms: C_2  and  C_3
REMARK    3  A    between atoms: C_2  and  N_4
REMARK    4  A    between atoms: C_5  and  C_7
REMARK    5  A    between atoms: C_7  and  C_9
REMARK    6  A    between atoms: C_7  and  N_15
REMARK    7  A    between atoms: C_16  and  C_18
REMARK    8  A    between atoms: C_20  and  C_33
REMARK    9  A    between atoms: C_20  and  C_34
REMARK                            x       y       z     vdW  Elec       q    Type
REMARK                         _______ _______ _______ _____ _____    ______ ____
ROOT
ATOM      1  N   UNL     1      -2.408   4.215   0.498  0.00  0.00    -0.299 N 
ATOM      2  C   UNL     1      -1.348   3.398   0.656  0.00  0.00    +0.236 C 
ATOM      3  O   UNL     1      -0.360   3.793   1.238  0.00  0.00    -0.274 OA
ATOM      4  H   UNL     1      -3.199   3.899   0.033  0.00  0.00    +0.150 HD
ENDROOT
BRANCH   2   5
ATOM      5  C   UNL     1      -1.390   1.994   0.110  0.00  0.00    +0.179 C 
ATOM      6  C   UNL     1      -2.294   1.131   1.024  0.00  0.00    +0.040 C 
ATOM      7  S   UNL     1      -1.204  -0.322   1.358  0.00  0.00    -0.125 S 
ATOM      8  C   UNL     1       0.002  -0.004   0.002  0.00  0.00    +0.167 C 
ATOM      9  N   UNL     1      -0.018   1.486   0.010  0.00  0.00    -0.269 N 
ATOM     10  C   UNL     1       1.269   1.890   0.000  0.00  0.00    +0.249 C 
ATOM     11  O   UNL     1       1.643   3.015  -0.267  0.00  0.00    -0.270 OA
ATOM     12  C   UNL     1       2.156   0.768   0.361  0.00  0.00    +0.043 A 
ATOM     13  C   UNL     1       1.388  -0.399   0.416  0.00  0.00    -0.005 A 
ATOM     14  C   UNL     1       1.965  -1.589   0.796  0.00  0.00    +0.007 A 
ATOM     15  C   UNL     1       3.314  -1.639   1.103  0.00  0.00    +0.000 A 
ATOM     16  C   UNL     1       4.087  -0.494   1.030  0.00  0.00    +0.001 A 
ATOM     17  C   UNL     1       3.518   0.707   0.662  0.00  0.00    +0.013 A 
ATOM     18  C   UNL     1      -3.567   0.705   0.291  0.00  0.00    +0.025 C 
ATOM     19  C   UNL     1      -2.631   1.873   2.319  0.00  0.00    +0.025 C 
ENDBRANCH   2   5
BRANCH   1  20
ATOM     20  C   UNL     1      -2.367   5.580   1.029  0.00  0.00    +0.190 C 
BRANCH  20  21
ATOM     21  C   UNL     1      -3.316   6.452   0.247  0.00  0.00    -0.018 A 
ATOM     22  C   UNL     1      -4.545   5.957  -0.145  0.00  0.00    +0.006 A 
ATOM     23  C   UNL     1      -5.418   6.758  -0.858  0.00  0.00    +0.000 A 
ATOM     24  C   UNL     1      -5.056   8.051  -1.187  0.00  0.00    +0.000 A 
ATOM     25  C   UNL     1      -3.824   8.544  -0.800  0.00  0.00    +0.000 A 
ATOM     26  C   UNL     1      -2.954   7.744  -0.083  0.00  0.00    +0.006 A 
ENDBRANCH  20  21
BRANCH  20  28
ATOM     27  N   UNL     1      -2.812   6.718   3.179  0.00  0.00    -0.311 N 
ATOM     28  C   UNL     1      -2.776   5.567   2.479  0.00  0.00    +0.238 C 
ATOM     29  O   UNL     1      -3.072   4.521   3.017  0.00  0.00    -0.273 OA
ATOM     30  H   UNL     1      -2.575   7.555   2.750  0.00  0.00    +0.149 HD
BRANCH  27  32
ATOM     31  C   UNL     1      -1.993   6.386   5.460  0.00  0.00    +0.027 C 
ATOM     32  C   UNL     1      -3.210   6.706   4.589  0.00  0.00    +0.067 C 
ATOM     33  C   UNL     1      -3.765   8.078   4.975  0.00  0.00    +0.027 C 
ENDBRANCH  27  32
ENDBRANCH  20  28
ENDBRANCH   1  20
TORSDOF 5
