REMARK  Name = ZINC46338911
REMARK  8 active torsions:
REMARK  status: ('A' for Active; 'I' for Inactive)
REMARK    1  A    between atoms: C_1  and  C_2
REMARK    2  A    between atoms: N_8  and  C_9
REMARK    3  A    between atoms: C_9  and  C_11
REMARK    4  A    between atoms: C_9  and  C_12
REMARK    5  A    between atoms: C_12  and  N_13
REMARK    6  A    between atoms: N_16  and  C_17
REMARK    7  A    between atoms: C_17  and  C_18
REMARK    8  A    between atoms: C_18  and  C_19
REMARK                            x       y       z     vdW  Elec       q    Type
REMARK                         _______ _______ _______ _____ _____    ______ ____
ROOT
ATOM      1  N   UNL     1       2.684  -2.167   2.422  0.00  0.00    -0.301 N 
ATOM      2  C   UNL     1       3.115  -2.985   3.403  0.00  0.00    +0.300 C 
ATOM      3  O   UNL     1       3.677  -2.523   4.377  0.00  0.00    -0.253 OA
ATOM      4  N   UNL     1       2.923  -4.315   3.304  0.00  0.00    -0.299 N 
ATOM      5  H   UNL     1       2.236  -2.535   1.645  0.00  0.00    +0.150 HD
ATOM      6  H   UNL     1       2.475  -4.684   2.526  0.00  0.00    +0.150 HD
ENDROOT
BRANCH   1   7
ATOM      7  C   UNL     1       2.893  -0.721   2.530  0.00  0.00    +0.090 C 
BRANCH   7   8
ATOM      8  C   UNL     1       2.158  -0.013   1.391  0.00  0.00    -0.054 C 
ATOM      9  C   UNL     1       2.533   1.471   1.386  0.00  0.00    -0.012 C 
BRANCH   8  16
ATOM     10  C   UNL     1       0.766  -2.018   0.002  0.00  0.00    -0.013 C 
ATOM     11  C   UNL     1       0.321  -1.553   1.390  0.00  0.00    -0.071 C 
ATOM     12  C   UNL     1      -1.198  -1.688   1.509  0.00  0.00    -0.016 C 
ATOM     13  C   UNL     1      -1.639  -1.223   2.900  0.00  0.00    -0.003 C 
ATOM     14  C   UNL     1      -1.165   0.217   3.120  0.00  0.00    -0.019 C 
ATOM     15  C   UNL     1       0.353   0.281   2.941  0.00  0.00    -0.078 C 
ATOM     16  N   UNL     1       0.708  -0.151   1.583  0.00  0.00    +0.384 N 
ATOM     17  H   UNL     1       0.225   0.426   0.911  0.00  0.00    -0.081 HD
ENDBRANCH   8  16
ENDBRANCH   7   8
ENDBRANCH   1   7
BRANCH   4  18
ATOM     18  C   UNL     1       3.391  -5.204   4.370  0.00  0.00    +0.110 C 
BRANCH  18  19
ATOM     19  C   UNL     1       3.051  -6.653   4.012  0.00  0.00    +0.057 C 
BRANCH  19  20
ATOM     20  C   UNL     1       3.532  -7.567   5.108  0.00  0.00    -0.001 A 
ATOM     21  C   UNL     1       4.769  -8.175   5.008  0.00  0.00    +0.045 A 
ATOM     22  C   UNL     1       5.212  -9.015   6.014  0.00  0.00    +0.124 A 
ATOM     23  C   UNL     1       4.415  -9.249   7.122  0.00  0.00    +0.047 A 
ATOM     24  C   UNL     1       3.177  -8.644   7.225  0.00  0.00    +0.023 A 
ATOM     25  C   UNL     1       2.736  -7.795   6.222  0.00  0.00    +0.132 A 
ATOM     26  O   UNL     1       1.525  -7.182   6.318  0.00  0.00    -0.466 OA
ATOM     27  C   UNL     1       0.606  -7.713   7.275  0.00  0.00    +0.394 C 
ATOM     28  O   UNL     1       1.296  -7.904   8.516  0.00  0.00    -0.339 OA
ATOM     29  C   UNL     1       2.315  -8.909   8.434  0.00  0.00    +0.202 C 
ATOM     30  F   UNL     1       6.421  -9.608   5.915  0.00  0.00    -0.205 F 
ENDBRANCH  19  20
ENDBRANCH  18  19
ENDBRANCH   4  18
TORSDOF 6
