REMARK  Name = ZINC01582046
REMARK  7 active torsions:
REMARK  status: ('A' for Active; 'I' for Inactive)
REMARK    1  A    between atoms: C_1  and  C_2
REMARK    2  A    between atoms: C_2  and  C_3
REMARK    3  A    between atoms: C_3  and  N_4
REMARK    4  A    between atoms: C_5  and  C_24
REMARK    5  A    between atoms: C_6  and  C_22
REMARK    6  A    between atoms: C_17  and  C_20
REMARK    7  A    between atoms: C_18  and  C_19
REMARK                            x       y       z     vdW  Elec       q    Type
REMARK                         _______ _______ _______ _____ _____    ______ ____
ROOT
ATOM      1  N   UNL     1      -1.755  -2.215  -0.001  0.00  0.00    -0.306 N 
ATOM      2  C   UNL     1      -1.480  -1.596   1.191  0.00  0.00    +0.023 C 
ATOM      3  C   UNL     1      -0.653  -0.538   1.241  0.00  0.00    +0.071 C 
ATOM      4  C   UNL     1       0.002  -0.004   0.002  0.00  0.00    +0.145 C 
ATOM      5  C   UNL     1       1.470  -0.357  -0.010  0.00  0.00    -0.001 A 
ATOM      6  C   UNL     1       2.147  -1.555  -0.018  0.00  0.00    +0.007 A 
ATOM      7  C   UNL     1       3.531  -1.566  -0.027  0.00  0.00    +0.000 A 
ATOM      8  C   UNL     1       4.228  -0.372  -0.030  0.00  0.00    +0.002 A 
ATOM      9  C   UNL     1       3.552   0.830  -0.022  0.00  0.00    +0.023 A 
ATOM     10  C   UNL     1       2.159   0.850  -0.011  0.00  0.00    +0.038 A 
ATOM     11  N   UNL     1       1.262   1.918   0.000  0.00  0.00    -0.284 N 
ATOM     12  C   UNL     1      -0.018   1.508   0.010  0.00  0.00    +0.238 C 
ATOM     13  O   UNL     1      -1.003   2.215   0.019  0.00  0.00    -0.274 OA
ATOM     14  C   UNL     1      -0.668  -0.523  -1.236  0.00  0.00    +0.071 C 
ATOM     15  C   UNL     1      -1.495  -1.581  -1.189  0.00  0.00    +0.023 C 
ATOM     16  C   UNL     1      -2.143  -2.077  -2.456  0.00  0.00    +0.062 C 
ATOM     17  C   UNL     1      -2.113  -2.107   2.460  0.00  0.00    +0.062 C 
ATOM     18  H   UNL     1       1.530   2.850   0.001  0.00  0.00    +0.155 HD
ENDROOT
BRANCH  14  19
ATOM     19  C   UNL     1      -0.421   0.121  -2.491  0.00  0.00    +0.098 C 
ATOM     20  N   UNL     1      -0.226   0.632  -3.487  0.00  0.00    -0.191 NA
ENDBRANCH  14  19
BRANCH   3  21
ATOM     21  C   UNL     1      -0.391   0.090   2.501  0.00  0.00    +0.098 C 
ATOM     22  N   UNL     1      -0.183   0.588   3.501  0.00  0.00    -0.191 NA
ENDBRANCH   3  21
BRANCH   1  23
ATOM     23  C   UNL     1      -2.332  -3.561  -0.006  0.00  0.00    +0.110 C 
BRANCH  23  25
ATOM     24  C   UNL     1      -4.461  -4.869  -0.001  0.00  0.00    +0.005 C 
ATOM     25  C   UNL     1      -3.859  -3.463   0.004  0.00  0.00    +0.016 C 
ENDBRANCH  23  25
ENDBRANCH   1  23
TORSDOF 4
