REMARK  Name = ZINC07984175
REMARK  4 active torsions:
REMARK  status: ('A' for Active; 'I' for Inactive)
REMARK    1  A    between atoms: C_1  and  C_2
REMARK    2  A    between atoms: C_2  and  C_3
REMARK    3  A    between atoms: C_12  and  O_14
REMARK    4  A    between atoms: O_14  and  C_15
REMARK                            x       y       z     vdW  Elec       q    Type
REMARK                         _______ _______ _______ _____ _____    ______ ____
ROOT
ATOM      1  C   UNL     1       3.615   2.197   0.012  0.00  0.00    -0.030 A 
ATOM      2  C   UNL     1       3.535   3.546   0.154  0.00  0.00    +0.096 A 
ATOM      3  C   UNL     1       2.275   4.163   0.294  0.00  0.00    +0.337 A 
ATOM      4  O   UNL     1       2.218   5.373   0.421  0.00  0.00    -0.245 OA
ATOM      5  O   UNL     1       1.137   3.452   0.291  0.00  0.00    -0.422 OA
ATOM      6  C   UNL     1       1.146   2.109   0.153  0.00  0.00    +0.143 A 
ATOM      7  C   UNL     1       2.369   1.427   0.010  0.00  0.00    +0.021 A 
ATOM      8  C   UNL     1       2.383   0.035  -0.133  0.00  0.00    +0.015 A 
ATOM      9  C   UNL     1       1.207  -0.658  -0.132  0.00  0.00    +0.047 A 
ATOM     10  C   UNL     1      -0.007   0.011   0.010  0.00  0.00    +0.134 A 
ATOM     11  C   UNL     1      -0.039   1.389   0.152  0.00  0.00    +0.093 A 
ENDROOT
BRANCH   1  13
ATOM     12  C   UNL     1       5.255   1.314  -1.624  0.00  0.00    +0.009 C 
ATOM     13  C   UNL     1       4.949   1.512  -0.138  0.00  0.00    +0.033 C 
ENDBRANCH   1  13
BRANCH  10  14
ATOM     14  O   UNL     1      -1.167  -0.693   0.009  0.00  0.00    -0.437 OA
BRANCH  14  15
ATOM     15  C   UNL     1      -1.982  -0.575  -1.066  0.00  0.00    +0.232 A 
ATOM     16  C   UNL     1      -3.264  -1.187  -1.068  0.00  0.00    +0.070 A 
ATOM     17  C   UNL     1      -3.914  -1.984  -0.042  0.00  0.00    +0.023 A 
ATOM     18  C   UNL     1      -5.145  -2.466  -0.270  0.00  0.00    +0.048 A 
ATOM     19  S   UNL     1      -5.528  -1.875  -1.907  0.00  0.00    -0.077 S 
ATOM     20  C   UNL     1      -4.025  -0.996  -2.243  0.00  0.00    +0.115 A 
ATOM     21  N   UNL     1      -3.559  -0.294  -3.256  0.00  0.00    -0.228 NA
ATOM     22  C   UNL     1      -2.360   0.250  -3.194  0.00  0.00    +0.226 A 
ATOM     23  N   UNL     1      -1.597   0.117  -2.124  0.00  0.00    -0.201 NA
ENDBRANCH  14  15
ENDBRANCH  10  14
TORSDOF 3
