REMARK  Name = ZINC49234453
REMARK  4 active torsions:
REMARK  status: ('A' for Active; 'I' for Inactive)
REMARK    1  A    between atoms: C_2  and  N_21
REMARK    2  A    between atoms: C_5  and  S_8
REMARK    3  A    between atoms: S_8  and  N_11
REMARK    4  A    between atoms: C_14  and  C_17
REMARK                            x       y       z     vdW  Elec       q    Type
REMARK                         _______ _______ _______ _____ _____    ______ ____
ROOT
ATOM      1  S   UNL     1       1.229  -2.443  -0.023  0.00  0.00    +0.103 S 
ATOM      2  O   UNL     1      -0.017  -2.860  -0.564  0.00  0.00    -0.146 OA
ATOM      3  O   UNL     1       2.473  -2.832  -0.588  0.00  0.00    -0.146 OA
ENDROOT
BRANCH   1   8
ATOM      4  C   UNL     1      -0.017   1.378   0.010  0.00  0.00    +0.040 A 
ATOM      5  C   UNL     1       1.177   2.087   0.002  0.00  0.00    +0.027 A 
ATOM      6  C   UNL     1       2.387   1.405  -0.013  0.00  0.00    +0.040 A 
ATOM      7  C   UNL     1       2.400   0.023  -0.021  0.00  0.00    +0.048 A 
ATOM      8  C   UNL     1       1.209  -0.681  -0.013  0.00  0.00    +0.140 A 
ATOM      9  C   UNL     1       0.002  -0.004   0.002  0.00  0.00    +0.048 A 
ATOM     10 BR   UNL     1      -1.623  -0.971   0.013  0.00  0.00    -0.048 Br
ATOM     11 BR   UNL     1       4.046  -0.906  -0.042  0.00  0.00    -0.048 Br
BRANCH   5  12
ATOM     12  N   UNL     1       1.162   3.484   0.009  0.00  0.00    -0.358 N 
ATOM     13  H   UNL     1       0.316   3.959   0.019  0.00  0.00    +0.142 HD
ATOM     14  H   UNL     1       1.996   3.978   0.004  0.00  0.00    +0.142 HD
ENDBRANCH   5  12
ENDBRANCH   1   8
BRANCH   1  15
ATOM     15  N   UNL     1       1.249  -2.941   1.556  0.00  0.00    -0.103 NA
ATOM     16  C   UNL     1       1.266  -4.220   1.840  0.00  0.00    +0.192 A 
ATOM     17  N   UNL     1       1.280  -4.842   3.069  0.00  0.00    -0.336 N 
ATOM     18  C   UNL     1       1.297  -6.206   3.108  0.00  0.00    +0.028 A 
ATOM     19  C   UNL     1       1.301  -6.909   1.976  0.00  0.00    +0.070 A 
ATOM     20  S   UNL     1       1.271  -5.624   0.736  0.00  0.00    -0.057 S 
ATOM     21  H   UNL     1       1.277  -4.323   3.888  0.00  0.00    +0.168 HD
BRANCH  18  22
ATOM     22  C   UNL     1       1.312  -6.919   4.436  0.00  0.00    +0.036 C 
ATOM     23  C   UNL     1       1.103  -6.075   5.694  0.00  0.00    +0.010 C 
ATOM     24  C   UNL     1       2.487  -6.641   5.374  0.00  0.00    +0.010 C 
ENDBRANCH  18  22
ENDBRANCH   1  15
TORSDOF 4
