REMARK  Name = ZINC01831227
REMARK  12 active torsions:
REMARK  status: ('A' for Active; 'I' for Inactive)
REMARK    1  A    between atoms: C_1  and  C_2
REMARK    2  A    between atoms: C_2  and  C_3
REMARK    3  A    between atoms: C_2  and  C_4
REMARK    4  A    between atoms: C_7  and  N_10
REMARK    5  A    between atoms: C_13  and  C_14
REMARK    6  A    between atoms: N_15  and  C_16
REMARK    7  A    between atoms: C_16  and  C_17
REMARK    8  A    between atoms: C_17  and  C_18
REMARK    9  A    between atoms: C_18  and  N_52
REMARK   10  A    between atoms: C_19  and  N_52
REMARK   11  A    between atoms: C_20  and  N_52
REMARK   12  A    between atoms: C_24  and  S_25
REMARK                            x       y       z     vdW  Elec       q    Type
REMARK                         _______ _______ _______ _____ _____    ______ ____
ROOT
ATOM      1  N   UNL     1       1.247   2.240  -0.040  0.00  0.00    -0.220 N 
ATOM      2  C   UNL     1       0.250   1.330  -0.078  0.00  0.00    +0.243 C 
ATOM      3  O   UNL     1       0.489   0.141  -0.181  0.00  0.00    -0.274 OA
ATOM      4  C   UNL     1      -1.135   1.823   0.002  0.00  0.00    +0.204 C 
ATOM      5  C   UNL     1      -1.321   3.283   0.129  0.00  0.00    +0.255 C 
ATOM      6  O   UNL     1      -2.439   3.765   0.204  0.00  0.00    -0.272 OA
ATOM      7  N   UNL     1      -0.233   4.066   0.155  0.00  0.00    -0.158 NA
ATOM      8  C   UNL     1       0.982   3.572   0.075  0.00  0.00    +0.157 C 
ENDROOT
BRANCH   1  12
ATOM      9  C   UNL     1       5.204   0.952  -0.276  0.00  0.00    -0.045 A 
ATOM     10  C   UNL     1       4.440   0.632   0.831  0.00  0.00    +0.006 A 
ATOM     11  C   UNL     1       3.128   1.058   0.912  0.00  0.00    +0.024 A 
ATOM     12  C   UNL     1       2.578   1.807  -0.119  0.00  0.00    +0.043 A 
ATOM     13  C   UNL     1       3.346   2.122  -1.232  0.00  0.00    +0.024 A 
ATOM     14  C   UNL     1       4.659   1.698  -1.304  0.00  0.00    +0.006 A 
BRANCH   9  16
ATOM     15  C   UNL     1       6.809  -0.401  -1.596  0.00  0.00    +0.012 C 
ATOM     16  C   UNL     1       6.635   0.486  -0.362  0.00  0.00    +0.013 C 
ATOM     17  C   UNL     1       7.561   1.699  -0.471  0.00  0.00    +0.012 C 
ENDBRANCH   9  16
ENDBRANCH   1  12
BRANCH   4  18
ATOM     18  C   UNL     1      -2.212   0.958  -0.037  0.00  0.00    +0.099 C 
ATOM     19  N   UNL     1      -3.467   1.446  -0.107  0.00  0.00    -0.295 NA
BRANCH  19  20
ATOM     20  C   UNL     1      -4.609   0.530  -0.148  0.00  0.00    +0.139 C 
BRANCH  20  21
ATOM     21  C   UNL     1      -5.907   1.335  -0.227  0.00  0.00    +0.005 C 
BRANCH  21  22
ATOM     22  C   UNL     1      -7.099   0.378  -0.269  0.00  0.00    -0.078 C 
BRANCH  22  25
ATOM     23  C   UNL     1      -9.492   0.277  -0.624  0.00  0.00    -0.097 C 
ATOM     24  C   UNL     1      -8.562   1.924   0.886  0.00  0.00    -0.097 C 
ATOM     25  N   UNL     1      -8.344   1.170  -0.366  0.00  0.00    +0.376 N 
ATOM     26  H   UNL     1      -8.256   1.834  -1.144  0.00  0.00    -0.083 HD
ENDBRANCH  22  25
ENDBRANCH  21  22
ENDBRANCH  20  21
ENDBRANCH  19  20
ENDBRANCH   4  18
BRANCH   8  27
ATOM     27  S   UNL     1       2.341   4.692   0.118  0.00  0.00    -0.110 S 
ATOM     28  H   UNL     1       1.648   5.914   0.238  0.00  0.00    +0.110 HD
ENDBRANCH   8  27
TORSDOF 8
