REMARK  Name = ZINC09659646
REMARK  6 active torsions:
REMARK  status: ('A' for Active; 'I' for Inactive)
REMARK    1  A    between atoms: C_1  and  C_2
REMARK    2  A    between atoms: C_2  and  C_3
REMARK    3  A    between atoms: C_8  and  N_9
REMARK    4  A    between atoms: C_10  and  C_12
REMARK    5  A    between atoms: N_14  and  C_31
REMARK    6  A    between atoms: N_21  and  C_24
REMARK                            x       y       z     vdW  Elec       q    Type
REMARK                         _______ _______ _______ _____ _____    ______ ____
ROOT
ATOM      1  C   UNL     1      -0.014   1.357   0.013  0.00  0.00    +0.079 A 
ATOM      2  C   UNL     1       0.008  -0.024   0.032  0.00  0.00    +0.101 A 
ATOM      3  N   UNL     1       1.286  -0.441   0.022  0.00  0.00    -0.344 N 
ATOM      4  C   UNL     1       2.124   0.656  -0.003  0.00  0.00    +0.132 A 
ATOM      5  C   UNL     1       1.333   1.795  -0.010  0.00  0.00    +0.086 A 
ATOM      6  N   UNL     1       1.936   3.039  -0.035  0.00  0.00    -0.305 N 
ATOM      7  H   UNL     1       1.392   3.842  -0.039  0.00  0.00    +0.170 HD
ATOM      8  C   UNL     1       3.279   3.137  -0.053  0.00  0.00    +0.334 A 
ATOM      9  O   UNL     1       3.795   4.238  -0.075  0.00  0.00    -0.246 OA
ATOM     10  N   UNL     1       4.063   2.044  -0.047  0.00  0.00    -0.227 N 
ATOM     11  C   UNL     1       3.531   0.806  -0.022  0.00  0.00    +0.285 A 
ATOM     12  O   UNL     1       4.254  -0.174  -0.018  0.00  0.00    -0.265 OA
ATOM     13  C   UNL     1       1.721  -1.840   0.038  0.00  0.00    +0.149 C 
ENDROOT
BRANCH  10  14
ATOM     14  C   UNL     1       5.456   2.196  -0.066  0.00  0.00    +0.055 A 
ATOM     15  C   UNL     1       6.080   2.747  -1.177  0.00  0.00    +0.029 A 
ATOM     16  C   UNL     1       7.453   2.899  -1.193  0.00  0.00    +0.040 A 
ATOM     17  C   UNL     1       8.208   2.493  -0.105  0.00  0.00    +0.124 A 
ATOM     18  C   UNL     1       7.588   1.938   1.002  0.00  0.00    +0.040 A 
ATOM     19  C   UNL     1       6.215   1.788   1.023  0.00  0.00    +0.029 A 
ATOM     20  F   UNL     1       9.551   2.638  -0.124  0.00  0.00    -0.205 F 
ENDBRANCH  10  14
BRANCH   1  22
ATOM     21  N   UNL     1      -2.438   1.655   0.026  0.00  0.00    -0.281 N 
ATOM     22  C   UNL     1      -1.211   2.212   0.009  0.00  0.00    +0.252 C 
ATOM     23  O   UNL     1      -1.094   3.423  -0.009  0.00  0.00    -0.270 OA
ATOM     24  H   UNL     1      -2.532   0.692   0.098  0.00  0.00    +0.155 HD
BRANCH  21  30
ATOM     25  C   UNL     1      -4.763   1.945  -0.560  0.00  0.00    -0.026 A 
ATOM     26  C   UNL     1      -5.884   2.747  -0.643  0.00  0.00    +0.005 A 
ATOM     27  C   UNL     1      -5.826   4.064  -0.228  0.00  0.00    +0.000 A 
ATOM     28  C   UNL     1      -4.646   4.584   0.271  0.00  0.00    +0.002 A 
ATOM     29  C   UNL     1      -3.522   3.787   0.361  0.00  0.00    +0.023 A 
ATOM     30  C   UNL     1      -3.575   2.464  -0.059  0.00  0.00    +0.037 A 
BRANCH  25  32
ATOM     31  C   UNL     1      -5.112  -0.392   0.193  0.00  0.00    +0.009 C 
ATOM     32  C   UNL     1      -4.827   0.508  -1.011  0.00  0.00    +0.033 C 
ENDBRANCH  25  32
ENDBRANCH  21  30
ENDBRANCH   1  22
TORSDOF 4
