REMARK  Name = ZINC06931810
REMARK  3 active torsions:
REMARK  status: ('A' for Active; 'I' for Inactive)
REMARK    1  A    between atoms: C_1  and  C_2
REMARK    2  A    between atoms: N_11  and  C_12
REMARK    3  A    between atoms: N_14  and  C_23
REMARK                            x       y       z     vdW  Elec       q    Type
REMARK                         _______ _______ _______ _____ _____    ______ ____
ROOT
ATOM      1  C   UNL     1       2.957   0.795   3.739  0.00  0.00    +0.059 A 
ATOM      2  C   UNL     1       2.839   2.126   3.556  0.00  0.00    +0.112 A 
ATOM      3  N   UNL     1       3.446   3.034   4.381  0.00  0.00    -0.316 N 
ATOM      4  C   UNL     1       4.203   2.658   5.431  0.00  0.00    +0.259 A 
ATOM      5  O   UNL     1       4.728   3.497   6.142  0.00  0.00    -0.267 OA
ATOM      6  C   UNL     1       4.389   1.230   5.709  0.00  0.00    +0.048 A 
ATOM      7  C   UNL     1       3.756   0.292   4.861  0.00  0.00    +0.010 A 
ATOM      8  C   UNL     1       3.910  -1.073   5.104  0.00  0.00    +0.010 A 
ATOM      9  C   UNL     1       4.666  -1.490   6.163  0.00  0.00    +0.001 A 
ATOM     10  C   UNL     1       5.285  -0.573   7.003  0.00  0.00    +0.001 A 
ATOM     11  C   UNL     1       5.161   0.780   6.780  0.00  0.00    +0.014 A 
ATOM     12  C   UNL     1       3.268   4.463   4.113  0.00  0.00    +0.152 C 
ENDROOT
BRANCH   1  22
ATOM     13  C   UNL     1      -0.166   1.513   0.131  0.00  0.00    +0.028 C 
ATOM     14  C   UNL     1      -0.085  -0.014   0.075  0.00  0.00    +0.074 C 
ATOM     15  C   UNL     1      -1.487  -0.609   0.238  0.00  0.00    +0.022 C 
ATOM     16  C   UNL     1      -1.383  -2.134   0.321  0.00  0.00    +0.003 C 
ATOM     17  C   UNL     1      -0.547  -2.524   1.542  0.00  0.00    +0.019 C 
ATOM     18  C   UNL     1       0.865  -1.950   1.394  0.00  0.00    +0.109 C 
ATOM     19  N   UNL     1       0.769  -0.502   1.166  0.00  0.00    -0.283 N 
ATOM     20  C   UNL     1       1.448   0.363   1.946  0.00  0.00    +0.307 C 
ATOM     21  O   UNL     1       1.277   1.560   1.818  0.00  0.00    -0.252 OA
ATOM     22  N   UNL     1       2.316  -0.099   2.868  0.00  0.00    -0.267 N 
ATOM     23  H   UNL     1       2.497  -1.050   2.929  0.00  0.00    +0.156 HD
ENDBRANCH   1  22
TORSDOF 1
