REMARK  Name = ZINC45738933
REMARK  4 active torsions:
REMARK  status: ('A' for Active; 'I' for Inactive)
REMARK    1  A    between atoms: C_6  and  N_7
REMARK    2  A    between atoms: N_7  and  N_8
REMARK    3  A    between atoms: N_11  and  C_12
REMARK    4  A    between atoms: C_18  and  C_20
REMARK                            x       y       z     vdW  Elec       q    Type
REMARK                         _______ _______ _______ _____ _____    ______ ____
ROOT
ATOM      1  N   UNL     1      -2.060   0.806   1.147  0.00  0.00    -0.220 N 
ATOM      2  C   UNL     1      -2.825  -0.299   1.049  0.00  0.00    +0.316 C 
ATOM      3  O   UNL     1      -2.328  -1.399   1.195  0.00  0.00    -0.251 OA
ATOM      4  N   UNL     1      -4.143  -0.184   0.788  0.00  0.00    -0.295 N 
ATOM      5  H   UNL     1      -1.111   0.724   1.335  0.00  0.00    +0.174 HD
ATOM      6  H   UNL     1      -4.540   0.693   0.671  0.00  0.00    +0.151 HD
ENDROOT
BRANCH   4   7
ATOM      7  C   UNL     1      -4.975  -1.385   0.681  0.00  0.00    +0.077 C 
ATOM      8  C   UNL     1      -5.436  -1.812   2.077  0.00  0.00    +0.041 C 
ATOM      9  C   UNL     1      -6.278  -3.087   1.965  0.00  0.00    +0.109 C 
ATOM     10  N   UNL     1      -7.372  -2.849   1.014  0.00  0.00    -0.301 N 
ATOM     11  C   UNL     1      -7.046  -2.350  -0.329  0.00  0.00    +0.109 C 
ATOM     12  C   UNL     1      -6.196  -1.083  -0.191  0.00  0.00    +0.041 C 
ATOM     13  C   UNL     1      -8.652  -3.085   1.367  0.00  0.00    +0.219 C 
ATOM     14  O   UNL     1      -9.552  -2.810   0.603  0.00  0.00    -0.275 OA
BRANCH  13  15
ATOM     15  C   UNL     1      -8.963  -3.690   2.712  0.00  0.00    +0.075 C 
ATOM     16  C   UNL     1      -8.791  -5.208   2.640  0.00  0.00    +0.013 C 
ATOM     17  C   UNL     1      -9.108  -5.822   4.005  0.00  0.00    +0.001 C 
ATOM     18  C   UNL     1     -10.550  -5.490   4.392  0.00  0.00    +0.000 C 
ATOM     19  C   UNL     1     -10.722  -3.971   4.464  0.00  0.00    +0.001 C 
ATOM     20  C   UNL     1     -10.406  -3.357   3.099  0.00  0.00    +0.013 C 
ENDBRANCH  13  15
ENDBRANCH   4   7
BRANCH   1  21
ATOM     21  N   UNL     1      -2.633   2.073   0.978  0.00  0.00    -0.263 N 
ATOM     22  H   UNL     1      -3.581   2.155   0.790  0.00  0.00    +0.170 HD
BRANCH  21  28
ATOM     23  C   UNL     1      -2.405   4.476   0.913  0.00  0.00    +0.027 A 
ATOM     24  C   UNL     1      -1.619   5.606   1.014  0.00  0.00    +0.040 A 
ATOM     25  C   UNL     1      -0.266   5.488   1.282  0.00  0.00    +0.124 A 
ATOM     26  C   UNL     1       0.302   4.236   1.449  0.00  0.00    +0.040 A 
ATOM     27  C   UNL     1      -0.481   3.102   1.348  0.00  0.00    +0.027 A 
ATOM     28  C   UNL     1      -1.838   3.219   1.080  0.00  0.00    +0.045 A 
ATOM     29  F   UNL     1       0.502   6.595   1.381  0.00  0.00    -0.205 F 
ENDBRANCH  21  28
ENDBRANCH   1  21
TORSDOF 4
