REMARK  Name = ZINC41634525
REMARK  8 active torsions:
REMARK  status: ('A' for Active; 'I' for Inactive)
REMARK    1  A    between atoms: C_1  and  C_2
REMARK    2  A    between atoms: N_8  and  C_9
REMARK    3  A    between atoms: C_9  and  C_11
REMARK    4  A    between atoms: C_9  and  C_21
REMARK    5  A    between atoms: C_14  and  O_19
REMARK    6  A    between atoms: C_15  and  O_17
REMARK    7  A    between atoms: O_17  and  C_18
REMARK    8  A    between atoms: O_19  and  C_20
REMARK                            x       y       z     vdW  Elec       q    Type
REMARK                         _______ _______ _______ _____ _____    ______ ____
ROOT
ATOM      1  C   UNL     1       0.276   0.053   2.383  0.00  0.00    +0.006 C 
ENDROOT
BRANCH   1   2
ATOM      2  C   UNL     1       0.207   1.555   2.294  0.00  0.00    +0.050 A 
ATOM      3  C   UNL     1      -0.815   2.372   2.575  0.00  0.00    +0.282 A 
ATOM      4  N   UNL     1      -0.685   3.732   2.430  0.00  0.00    -0.170 N 
ATOM      5  C   UNL     1       0.516   4.201   1.993  0.00  0.00    +0.199 A 
ATOM      6  S   UNL     1       1.470   2.715   1.792  0.00  0.00    -0.050 S 
ATOM      7  N   UNL     1       0.475   5.502   1.909  0.00  0.00    -0.208 NA
ATOM      8  C   UNL     1      -0.730   5.929   2.281  0.00  0.00    +0.246 A 
ATOM      9  N   UNL     1      -1.469   4.902   2.605  0.00  0.00    -0.150 NA
ATOM     10  O   UNL     1      -1.994   1.851   3.009  0.00  0.00    -0.265 OA
ENDBRANCH   1   2
BRANCH   1  17
ATOM     11  C   UNL     1      -0.432   1.200  -0.080  0.00  0.00    -0.013 C 
ATOM     12  C   UNL     1      -0.092  -0.287   0.038  0.00  0.00    -0.070 C 
ATOM     13  C   UNL     1       0.538  -0.771  -1.269  0.00  0.00    -0.016 C 
ATOM     14  C   UNL     1       0.876  -2.260  -1.145  0.00  0.00    -0.003 C 
ATOM     15  C   UNL     1       1.803  -2.465   0.056  0.00  0.00    -0.019 C 
ATOM     16  C   UNL     1       1.126  -1.917   1.315  0.00  0.00    -0.077 C 
ATOM     17  N   UNL     1       0.854  -0.485   1.144  0.00  0.00    +0.389 N 
ATOM     18  H   UNL     1       1.715  -0.001   0.939  0.00  0.00    -0.080 HD
ENDBRANCH   1  17
BRANCH   1  19
ATOM     19  C   UNL     1       1.140  -0.342   3.552  0.00  0.00    -0.052 A 
ATOM     20  C   UNL     1       2.517  -0.314   3.433  0.00  0.00    +0.006 A 
ATOM     21  C   UNL     1       3.314  -0.675   4.503  0.00  0.00    +0.049 A 
ATOM     22  C   UNL     1       2.733  -1.066   5.699  0.00  0.00    +0.161 A 
ATOM     23  C   UNL     1       1.347  -1.094   5.819  0.00  0.00    +0.162 A 
ATOM     24  C   UNL     1       0.554  -0.726   4.744  0.00  0.00    +0.051 A 
BRANCH  23  25
ATOM     25  O   UNL     1       0.772  -1.477   6.991  0.00  0.00    -0.491 OA
ATOM     26  C   UNL     1      -0.656  -1.481   7.042  0.00  0.00    +0.277 C 
ENDBRANCH  23  25
BRANCH  22  27
ATOM     27  O   UNL     1       3.516  -1.422   6.753  0.00  0.00    -0.491 OA
ATOM     28  C   UNL     1       4.931  -1.370   6.557  0.00  0.00    +0.277 C 
ENDBRANCH  22  27
ENDBRANCH   1  19
TORSDOF 5
