REMARK  Name = ZINC58620200
REMARK  9 active torsions:
REMARK  status: ('A' for Active; 'I' for Inactive)
REMARK    1  A    between atoms: C_1  and  C_2
REMARK    2  A    between atoms: C_2  and  C_22
REMARK    3  A    between atoms: N_5  and  C_9
REMARK    4  A    between atoms: C_9  and  C_10
REMARK    5  A    between atoms: C_12  and  C_15
REMARK    6  A    between atoms: C_25  and  C_28
REMARK    7  A    between atoms: C_28  and  C_29
REMARK    8  A    between atoms: C_28  and  C_30
REMARK    9  A    between atoms: C_28  and  C_31
REMARK                            x       y       z     vdW  Elec       q    Type
REMARK                         _______ _______ _______ _____ _____    ______ ____
ROOT
ATOM      1  C   UNL     1      -0.019   1.526   0.010  0.00  0.00    +0.047 C 
ATOM      2  C   UNL     1       0.002  -0.004   0.002  0.00  0.00    +0.135 C 
ATOM      3  C   UNL     1       0.815  -0.520  -1.169  0.00  0.00    +0.251 C 
ATOM      4  O   UNL     1       0.595  -0.342  -2.348  0.00  0.00    -0.272 OA
ATOM      5  N   UNL     1       1.833  -1.217  -0.627  0.00  0.00    -0.216 N 
ATOM      6  C   UNL     1       1.777  -1.214   0.710  0.00  0.00    +0.310 C 
ATOM      7  O   UNL     1       2.586  -1.776   1.421  0.00  0.00    -0.252 OA
ATOM      8  N   UNL     1       0.724  -0.519   1.178  0.00  0.00    -0.281 N 
ATOM      9  H   UNL     1       0.487  -0.383   2.109  0.00  0.00    +0.152 HD
ENDROOT
BRANCH   2  10
ATOM     10  C   UNL     1      -1.401  -0.551  -0.040  0.00  0.00    -0.015 A 
ATOM     11  C   UNL     1      -2.005  -0.815  -1.256  0.00  0.00    +0.006 A 
ATOM     12  C   UNL     1      -3.292  -1.317  -1.294  0.00  0.00    +0.004 A 
ATOM     13  C   UNL     1      -3.976  -1.556  -0.117  0.00  0.00    -0.042 A 
ATOM     14  C   UNL     1      -3.372  -1.294   1.099  0.00  0.00    +0.004 A 
ATOM     15  C   UNL     1      -2.083  -0.796   1.137  0.00  0.00    +0.006 A 
BRANCH  13  16
ATOM     16  C   UNL     1      -5.380  -2.103  -0.159  0.00  0.00    -0.013 C 
ATOM     17  C   UNL     1      -5.378  -3.459  -0.868  0.00  0.00    +0.015 C 
ATOM     18  C   UNL     1      -5.903  -2.275   1.268  0.00  0.00    +0.015 C 
ATOM     19  C   UNL     1      -6.283  -1.130  -0.920  0.00  0.00    +0.015 C 
ENDBRANCH  13  16
ENDBRANCH   2  10
BRANCH   5  20
ATOM     20  C   UNL     1       2.871  -1.896  -1.406  0.00  0.00    +0.197 C 
BRANCH  20  21
ATOM     21  C   UNL     1       4.020  -0.950  -1.644  0.00  0.00    +0.190 A 
ATOM     22  N   UNL     1       4.138  -0.122  -2.684  0.00  0.00    -0.190 NA
ATOM     23  C   UNL     1       5.255   0.563  -2.588  0.00  0.00    +0.260 A 
ATOM     24  O   UNL     1       5.883   0.179  -1.463  0.00  0.00    -0.333 OA
ATOM     25  N   UNL     1       5.053  -0.805  -0.864  0.00  0.00    -0.059 NA
BRANCH  23  26
ATOM     26  C   UNL     1       5.737   1.579  -3.547  0.00  0.00    +0.058 A 
ATOM     27  C   UNL     1       4.979   1.889  -4.679  0.00  0.00    +0.015 A 
ATOM     28  C   UNL     1       5.434   2.838  -5.570  0.00  0.00    +0.001 A 
ATOM     29  C   UNL     1       6.638   3.483  -5.346  0.00  0.00    +0.001 A 
ATOM     30  C   UNL     1       7.394   3.181  -4.228  0.00  0.00    +0.021 A 
ATOM     31  C   UNL     1       6.948   2.237  -3.324  0.00  0.00    +0.053 A 
ATOM     32 CL   UNL     1       7.894   1.864  -1.917  0.00  0.00    -0.083 Cl
ENDBRANCH  23  26
ENDBRANCH  20  21
ENDBRANCH   5  20
TORSDOF 5
