REMARK  Name = ZINC29581249
REMARK  4 active torsions:
REMARK  status: ('A' for Active; 'I' for Inactive)
REMARK    1  A    between atoms: C_1  and  C_2
REMARK    2  A    between atoms: C_2  and  C_19
REMARK    3  A    between atoms: N_5  and  N_9
REMARK    4  A    between atoms: C_10  and  C_12
REMARK                            x       y       z     vdW  Elec       q    Type
REMARK                         _______ _______ _______ _____ _____    ______ ____
ROOT
ATOM      1  C   UNL     1      -0.697   1.991   1.278  0.00  0.00    +0.047 C 
ATOM      2  C   UNL     1      -0.018   1.469   0.010  0.00  0.00    +0.137 C 
ATOM      3  C   UNL     1       1.450   1.845  -0.002  0.00  0.00    +0.267 C 
ATOM      4  O   UNL     1       1.920   2.963  -0.001  0.00  0.00    -0.271 OA
ATOM      5  N   UNL     1       2.125   0.679  -0.015  0.00  0.00    -0.137 N 
ATOM      6  C   UNL     1       1.296  -0.371  -0.012  0.00  0.00    +0.327 C 
ATOM      7  O   UNL     1       1.670  -1.528  -0.022  0.00  0.00    -0.251 OA
ATOM      8  N   UNL     1       0.002  -0.004   0.002  0.00  0.00    -0.280 N 
ATOM      9  H   UNL     1      -0.943  -0.567   0.008  0.00  0.00    +0.152 HD
ENDROOT
BRANCH   2  10
ATOM     10  C   UNL     1      -0.711   1.996  -1.220  0.00  0.00    -0.015 A 
ATOM     11  C   UNL     1      -0.324   3.207  -1.765  0.00  0.00    +0.006 A 
ATOM     12  C   UNL     1      -0.957   3.689  -2.896  0.00  0.00    +0.000 A 
ATOM     13  C   UNL     1      -1.981   2.965  -3.476  0.00  0.00    +0.000 A 
ATOM     14  C   UNL     1      -2.371   1.757  -2.928  0.00  0.00    +0.000 A 
ATOM     15  C   UNL     1      -1.736   1.273  -1.800  0.00  0.00    +0.006 A 
ENDBRANCH   2  10
BRANCH   5  16
ATOM     16  N   UNL     1       3.523   0.578  -0.029  0.00  0.00    -0.218 N 
ATOM     17  C   UNL     1       4.162   0.234  -1.165  0.00  0.00    +0.277 C 
ATOM     18  O   UNL     1       3.525   0.011  -2.178  0.00  0.00    -0.267 OA
ATOM     19  H   UNL     1       4.098   0.780   0.886  0.00  0.00    +0.174 HD
BRANCH  17  20
ATOM     20  C   UNL     1       5.625   0.129  -1.180  0.00  0.00    +0.104 A 
ATOM     21  C   UNL     1       6.406  -0.211  -2.264  0.00  0.00    +0.047 A 
ATOM     22  C   UNL     1       7.737  -0.189  -1.835  0.00  0.00    +0.036 A 
ATOM     23  C   UNL     1       7.745   0.156  -0.525  0.00  0.00    +0.098 A 
ATOM     24  N   UNL     1       6.468   0.357  -0.117  0.00  0.00    -0.356 N 
ATOM     25  H   UNL     1       6.054   0.651   0.860  0.00  0.00    +0.166 HD
ATOM     26 BR   UNL     1       9.255  -0.572  -2.895  0.00  0.00    -0.049 Br
ENDBRANCH  17  20
ENDBRANCH   5  16
TORSDOF 3
