REMARK  Name = ZINC19912017
REMARK  10 active torsions:
REMARK  status: ('A' for Active; 'I' for Inactive)
REMARK    1  A    between atoms: C_1  and  C_2
REMARK    2  A    between atoms: C_2  and  C_3
REMARK    3  A    between atoms: C_2  and  C_4
REMARK    4  A    between atoms: C_7  and  O_10
REMARK    5  A    between atoms: O_10  and  C_11
REMARK    6  A    between atoms: C_18  and  C_26
REMARK    7  A    between atoms: C_21  and  C_22
REMARK    8  A    between atoms: C_26  and  N_27
REMARK    9  A    between atoms: N_27  and  C_28
REMARK   10  A    between atoms: N_27  and  C_29
REMARK                            x       y       z     vdW  Elec       q    Type
REMARK                         _______ _______ _______ _____ _____    ______ ____
ROOT
ATOM      1  C   UNL     1       1.107   2.080   0.003  0.00  0.00    +0.222 A 
ATOM      2  C   UNL     1       2.377   1.435  -0.012  0.00  0.00    +0.235 A 
ATOM      3  O   UNL     1       3.415   2.075  -0.019  0.00  0.00    -0.283 OA
ATOM      4  C   UNL     1       2.385  -0.038  -0.021  0.00  0.00    +0.068 A 
ATOM      5  C   UNL     1       3.579  -0.759  -0.037  0.00  0.00    +0.019 A 
ATOM      6  C   UNL     1       3.546  -2.124  -0.044  0.00  0.00    +0.052 A 
ATOM      7  C   UNL     1       2.327  -2.800  -0.036  0.00  0.00    +0.184 A 
ATOM      8  C   UNL     1       1.133  -2.099  -0.021  0.00  0.00    +0.026 A 
ATOM      9  C   UNL     1       1.150  -0.711  -0.013  0.00  0.00    +0.144 A 
ATOM     10  O   UNL     1       0.002  -0.004   0.002  0.00  0.00    -0.447 OA
ATOM     11  C   UNL     1      -0.016   1.335   0.009  0.00  0.00    +0.254 A 
ATOM     12  O   UNL     1       2.311  -4.157  -0.043  0.00  0.00    -0.288 OA
ENDROOT
BRANCH  11  13
ATOM     13  C   UNL     1      -1.349   2.039   0.019  0.00  0.00    +0.454 C 
ATOM     14  F   UNL     1      -1.767   2.264  -1.296  0.00  0.00    -0.163 F 
ATOM     15  F   UNL     1      -2.291   1.244   0.679  0.00  0.00    -0.163 F 
ATOM     16  F   UNL     1      -1.224   3.264   0.685  0.00  0.00    -0.163 F 
ENDBRANCH  11  13
BRANCH   1  17
ATOM     17  O   UNL     1       1.029   3.439   0.011  0.00  0.00    -0.448 OA
BRANCH  17  21
ATOM     18  C   UNL     1       0.953   5.353   3.664  0.00  0.00    -0.045 A 
ATOM     19  C   UNL     1       0.899   6.092   2.497  0.00  0.00    +0.007 A 
ATOM     20  C   UNL     1       0.925   5.453   1.272  0.00  0.00    +0.046 A 
ATOM     21  C   UNL     1       1.004   4.069   1.214  0.00  0.00    +0.129 A 
ATOM     22  C   UNL     1       1.052   3.329   2.387  0.00  0.00    +0.046 A 
ATOM     23  C   UNL     1       1.032   3.973   3.609  0.00  0.00    +0.007 A 
BRANCH  18  25
ATOM     24  C   UNL     1      -0.292   5.579   5.797  0.00  0.00    +0.012 C 
ATOM     25  C   UNL     1       0.925   6.052   4.999  0.00  0.00    +0.013 C 
ATOM     26  C   UNL     1       2.202   5.723   5.774  0.00  0.00    +0.012 C 
ENDBRANCH  18  25
ENDBRANCH  17  21
ENDBRANCH   1  17
BRANCH   8  27
ATOM     27  C   UNL     1      -0.179  -2.840  -0.013  0.00  0.00    -0.036 C 
BRANCH  27  28
ATOM     28  N   UNL     1      -0.618  -3.073  -1.395  0.00  0.00    +0.379 N 
ATOM     29  C   UNL     1       0.296  -3.988  -2.091  0.00  0.00    -0.096 C 
ATOM     30  C   UNL     1      -1.997  -3.578  -1.431  0.00  0.00    -0.096 C 
ATOM     31  H   UNL     1      -0.597  -2.108  -1.923  0.00  0.00    -0.082 HD
ENDBRANCH  27  28
ENDBRANCH   8  27
TORSDOF 6
