REMARK  Name = ZINC12186175
REMARK  8 active torsions:
REMARK  status: ('A' for Active; 'I' for Inactive)
REMARK    1  A    between atoms: C_1  and  C_2
REMARK    2  A    between atoms: C_5  and  C_20
REMARK    3  A    between atoms: N_11  and  C_13
REMARK    4  A    between atoms: C_20  and  N_48
REMARK    5  A    between atoms: C_21  and  C_22
REMARK    6  A    between atoms: C_21  and  N_48
REMARK    7  A    between atoms: C_22  and  C_23
REMARK    8  A    between atoms: C_23  and  C_24
REMARK                            x       y       z     vdW  Elec       q    Type
REMARK                         _______ _______ _______ _____ _____    ______ ____
ROOT
ATOM      1  C   UNL     1       4.876   2.109  -0.033  0.00  0.00    +0.068 C 
ATOM      2  C   UNL     1       3.392   2.370  -0.017  0.00  0.00    +0.070 A 
ATOM      3  C   UNL     1       2.377   1.383  -0.013  0.00  0.00    +0.040 A 
ATOM      4  C   UNL     1       2.397  -0.030  -0.021  0.00  0.00    +0.020 A 
ATOM      5  C   UNL     1       1.220  -0.709  -0.013  0.00  0.00    +0.001 A 
ATOM      6  C   UNL     1       0.002  -0.004   0.002  0.00  0.00    +0.252 A 
ATOM      7  O   UNL     1      -1.050  -0.621   0.009  0.00  0.00    -0.268 OA
ATOM      8  N   UNL     1      -0.016   1.342   0.009  0.00  0.00    -0.307 N 
ATOM      9  H   UNL     1      -0.865   1.811   0.016  0.00  0.00    +0.170 HD
ATOM     10  C   UNL     1       1.152   2.054   0.002  0.00  0.00    +0.145 A 
ATOM     11  N   UNL     1       1.431   3.384   0.006  0.00  0.00    -0.216 N 
ATOM     12  N   UNL     1       2.822   3.542  -0.006  0.00  0.00    -0.169 NA
ENDROOT
BRANCH  11  13
ATOM     13  C   UNL     1       0.488   4.421   0.021  0.00  0.00    +0.068 A 
ATOM     14  C   UNL     1      -0.712   4.278  -0.662  0.00  0.00    +0.029 A 
ATOM     15  C   UNL     1      -1.643   5.299  -0.642  0.00  0.00    +0.022 A 
ATOM     16  C   UNL     1      -1.375   6.467   0.050  0.00  0.00    +0.041 A 
ATOM     17  C   UNL     1      -0.177   6.614   0.727  0.00  0.00    +0.022 A 
ATOM     18  C   UNL     1       0.754   5.594   0.714  0.00  0.00    +0.029 A 
ATOM     19 CL   UNL     1      -2.543   7.751   0.068  0.00  0.00    -0.084 Cl
ENDBRANCH  11  13
BRANCH   5  20
ATOM     20  C   UNL     1       1.218  -2.215  -0.021  0.00  0.00    -0.041 C 
BRANCH  20  21
ATOM     21  N   UNL     1       1.109  -2.706   1.366  0.00  0.00    +0.382 N 
ATOM     22  H   UNL     1       0.236  -2.359   1.780  0.00  0.00    -0.085 HD
ATOM     23  H   UNL     1       1.908  -2.361   1.911  0.00  0.00    -0.085 HD
BRANCH  21  24
ATOM     24  C   UNL     1       1.105  -4.181   1.388  0.00  0.00    -0.082 C 
BRANCH  24  25
ATOM     25  C   UNL     1       0.991  -4.660   2.837  0.00  0.00    -0.011 C 
BRANCH  25  26
ATOM     26  C   UNL     1       0.987  -6.190   2.869  0.00  0.00    +0.072 C 
BRANCH  26  27
ATOM     27  C   UNL     1       0.875  -6.662   4.296  0.00  0.00    +0.105 A 
ATOM     28  C   UNL     1      -0.272  -6.906   4.956  0.00  0.00    +0.044 A 
ATOM     29  C   UNL     1       0.086  -7.326   6.258  0.00  0.00    +0.041 A 
ATOM     30  C   UNL     1       1.430  -7.312   6.316  0.00  0.00    +0.195 A 
ATOM     31  O   UNL     1       1.902  -6.914   5.123  0.00  0.00    -0.468 OA
ENDBRANCH  26  27
ENDBRANCH  25  26
ENDBRANCH  24  25
ENDBRANCH  21  24
ENDBRANCH  20  21
ENDBRANCH   5  20
TORSDOF 7
