REMARK  Name = ZINC01650547
REMARK  8 active torsions:
REMARK  status: ('A' for Active; 'I' for Inactive)
REMARK    1  A    between atoms: C_1  and  C_2
REMARK    2  A    between atoms: C_2  and  O_3
REMARK    3  A    between atoms: O_3  and  C_4
REMARK    4  A    between atoms: C_7  and  N_10
REMARK    5  A    between atoms: C_14  and  C_28
REMARK    6  A    between atoms: C_15  and  C_22
REMARK    7  A    between atoms: N_16  and  C_21
REMARK    8  A    between atoms: N_19  and  C_20
REMARK                            x       y       z     vdW  Elec       q    Type
REMARK                         _______ _______ _______ _____ _____    ______ ____
ROOT
ATOM      1  N   UNL     1       1.186  -6.368   1.539  0.00  0.00    -0.225 N 
ATOM      2  C   UNL     1       0.921  -7.593   0.979  0.00  0.00    +0.310 C 
ATOM      3  O   UNL     1       0.201  -7.758   0.014  0.00  0.00    -0.252 OA
ATOM      4  N   UNL     1       1.565  -8.606   1.637  0.00  0.00    -0.270 N 
ATOM      5  C   UNL     1       2.641  -7.955   2.381  0.00  0.00    +0.176 C 
ATOM      6  C   UNL     1       1.835  -6.653   2.746  0.00  0.00    +0.182 C 
ATOM      7  N   UNL     1       2.603  -6.114   3.782  0.00  0.00    -0.259 N 
ATOM      8  C   UNL     1       3.115  -7.199   4.447  0.00  0.00    +0.308 C 
ATOM      9  O   UNL     1       3.647  -7.137   5.539  0.00  0.00    -0.252 OA
ATOM     10  N   UNL     1       2.949  -8.357   3.748  0.00  0.00    -0.260 N 
ATOM     11  C   UNL     1       3.071  -9.724   4.259  0.00  0.00    +0.136 C 
ATOM     12  C   UNL     1       2.814  -4.698   4.091  0.00  0.00    +0.136 C 
ATOM     13  H   UNL     1       1.353  -9.552   1.615  0.00  0.00    +0.153 HD
ENDROOT
BRANCH   1  17
ATOM     14  C   UNL     1       0.271  -2.612  -0.025  0.00  0.00    +0.121 A 
ATOM     15  C   UNL     1       1.204  -3.418  -0.660  0.00  0.00    +0.047 A 
ATOM     16  C   UNL     1       1.507  -4.662  -0.142  0.00  0.00    +0.027 A 
ATOM     17  C   UNL     1       0.879  -5.105   1.014  0.00  0.00    +0.041 A 
ATOM     18  C   UNL     1      -0.055  -4.297   1.649  0.00  0.00    +0.027 A 
ATOM     19  C   UNL     1      -0.354  -3.052   1.133  0.00  0.00    +0.047 A 
BRANCH  14  20
ATOM     20  O   UNL     1      -0.028  -1.387  -0.535  0.00  0.00    -0.492 OA
BRANCH  20  22
ATOM     21  C   UNL     1       0.190   0.398  -2.149  0.00  0.00    +0.048 C 
ATOM     22  C   UNL     1       0.653  -0.999  -1.730  0.00  0.00    +0.225 C 
ENDBRANCH  20  22
ENDBRANCH  14  20
ENDBRANCH   1  17
BRANCH   6  23
ATOM     23  C   UNL     1       0.693  -7.234   3.538  0.00  0.00    -0.001 A 
ATOM     24  C   UNL     1       0.798  -7.362   4.911  0.00  0.00    +0.007 A 
ATOM     25  C   UNL     1      -0.250  -7.894   5.638  0.00  0.00    +0.000 A 
ATOM     26  C   UNL     1      -1.404  -8.298   4.993  0.00  0.00    +0.000 A 
ATOM     27  C   UNL     1      -1.510  -8.169   3.621  0.00  0.00    +0.000 A 
ATOM     28  C   UNL     1      -0.463  -7.633   2.894  0.00  0.00    +0.007 A 
ENDBRANCH   6  23
BRANCH   5  29
ATOM     29  C   UNL     1       3.874  -7.724   1.546  0.00  0.00    -0.002 A 
ATOM     30  C   UNL     1       5.120  -7.704   2.145  0.00  0.00    +0.007 A 
ATOM     31  C   UNL     1       6.252  -7.493   1.379  0.00  0.00    +0.000 A 
ATOM     32  C   UNL     1       6.137  -7.302   0.015  0.00  0.00    +0.000 A 
ATOM     33  C   UNL     1       4.891  -7.323  -0.584  0.00  0.00    +0.000 A 
ATOM     34  C   UNL     1       3.760  -7.538   0.181  0.00  0.00    +0.007 A 
ENDBRANCH   5  29
TORSDOF 5
