REMARK  Name = ZINC04672137
REMARK  5 active torsions:
REMARK  status: ('A' for Active; 'I' for Inactive)
REMARK    1  A    between atoms: C_1  and  C_2
REMARK    2  A    between atoms: C_10  and  C_11
REMARK    3  A    between atoms: N_13  and  C_14
REMARK    4  A    between atoms: C_19  and  C_24
REMARK    5  A    between atoms: C_21  and  C_23
REMARK                            x       y       z     vdW  Elec       q    Type
REMARK                         _______ _______ _______ _____ _____    ______ ____
ROOT
ATOM      1  C   UNL     1       3.711  -0.667  -0.044  0.00  0.00    +0.066 C 
ATOM      2  C   UNL     1       2.380   0.040  -0.025  0.00  0.00    +0.047 A 
ATOM      3  C   UNL     1       1.222  -0.678  -0.020  0.00  0.00    -0.005 A 
ATOM      4  C   UNL     1       0.002  -0.004   0.002  0.00  0.00    +0.049 A 
ATOM      5  N   UNL     1      -0.016   1.317   0.009  0.00  0.00    -0.232 NA
ATOM      6  C   UNL     1       1.112   2.025   0.002  0.00  0.00    +0.168 A 
ATOM      7  N   UNL     1       2.326   1.400  -0.014  0.00  0.00    -0.218 N 
ATOM      8  N   UNL     1       3.322   2.383  -0.015  0.00  0.00    -0.172 NA
ATOM      9  C   UNL     1       2.767   3.566  -0.003  0.00  0.00    +0.150 A 
ATOM     10  C   UNL     1       1.369   3.410   0.009  0.00  0.00    +0.100 A 
ATOM     11  C   UNL     1      -1.318  -0.729   0.025  0.00  0.00    +0.056 C 
ATOM     12  C   UNL     1      -1.139  -2.179  -0.420  0.00  0.00    +0.006 C 
ATOM     13  C   UNL     1      -0.005  -2.805   0.401  0.00  0.00    +0.005 C 
ATOM     14  C   UNL     1       1.316  -2.180  -0.043  0.00  0.00    +0.039 C 
ENDROOT
BRANCH  10  15
ATOM     15  C   UNL     1       0.371   4.483   0.024  0.00  0.00    +0.249 C 
ATOM     16  O   UNL     1      -0.815   4.211   0.034  0.00  0.00    -0.270 OA
ATOM     17  N   UNL     1       0.767   5.771   0.029  0.00  0.00    -0.308 N 
ATOM     18  H   UNL     1       1.712   5.988   0.021  0.00  0.00    +0.149 HD
BRANCH  17  19
ATOM     19  C   UNL     1      -0.231   6.844   0.045  0.00  0.00    +0.076 C 
ATOM     20  C   UNL     1      -0.683   7.141  -1.386  0.00  0.00    +0.022 C 
ATOM     21  C   UNL     1      -1.725   8.261  -1.370  0.00  0.00    +0.002 C 
ATOM     22  C   UNL     1      -1.110   9.521  -0.758  0.00  0.00    +0.003 C 
ATOM     23  C   UNL     1      -0.657   9.224   0.673  0.00  0.00    -0.009 C 
ATOM     24  C   UNL     1       0.385   8.104   0.656  0.00  0.00    +0.009 C 
ATOM     25  C   UNL     1       1.590   8.540  -0.179  0.00  0.00    +0.009 C 
ATOM     26  C   UNL     1      -0.041  10.484   1.285  0.00  0.00    +0.008 C 
ENDBRANCH  17  19
ENDBRANCH  10  15
TORSDOF 2
