REMARK  Name = ZINC02123065
REMARK  8 active torsions:
REMARK  status: ('A' for Active; 'I' for Inactive)
REMARK    1  A    between atoms: C_1  and  C_2
REMARK    2  A    between atoms: C_2  and  C_3
REMARK    3  A    between atoms: C_17  and  C_18
REMARK    4  A    between atoms: C_17  and  N_51
REMARK    5  A    between atoms: C_21  and  O_26
REMARK    6  A    between atoms: C_22  and  O_24
REMARK    7  A    between atoms: O_24  and  C_25
REMARK    8  A    between atoms: O_26  and  C_27
REMARK                            x       y       z     vdW  Elec       q    Type
REMARK                         _______ _______ _______ _____ _____    ______ ____
ROOT
ATOM      1  C   UNL     1      -3.424   1.759  -6.585  0.00  0.00    -0.030 A 
ATOM      2  C   UNL     1      -3.665   2.966  -6.008  0.00  0.00    +0.096 A 
ATOM      3  C   UNL     1      -3.394   3.150  -4.638  0.00  0.00    +0.337 A 
ATOM      4  O   UNL     1      -3.617   4.239  -4.141  0.00  0.00    -0.245 OA
ATOM      5  O   UNL     1      -2.902   2.180  -3.861  0.00  0.00    -0.422 OA
ATOM      6  C   UNL     1      -2.643   0.962  -4.376  0.00  0.00    +0.144 A 
ATOM      7  C   UNL     1      -2.885   0.694  -5.735  0.00  0.00    +0.021 A 
ATOM      8  C   UNL     1      -2.612  -0.574  -6.261  0.00  0.00    +0.015 A 
ATOM      9  C   UNL     1      -2.111  -1.549  -5.450  0.00  0.00    +0.046 A 
ATOM     10  C   UNL     1      -1.867  -1.293  -4.099  0.00  0.00    +0.123 A 
ATOM     11  C   UNL     1      -2.130  -0.044  -3.566  0.00  0.00    +0.021 A 
ATOM     12  C   UNL     1      -1.863   0.247  -2.111  0.00  0.00    -0.030 C 
ATOM     13  C   UNL     1      -0.792  -1.914  -2.069  0.00  0.00    +0.158 C 
ATOM     14  O   UNL     1      -1.369  -2.290  -3.321  0.00  0.00    -0.509 OA
ATOM     15  N   UNL     1      -1.748  -1.027  -1.376  0.00  0.00    +0.408 N 
ATOM     16  H   UNL     1      -2.668  -1.483  -1.348  0.00  0.00    -0.076 HD
ENDROOT
BRANCH   1  18
ATOM     17  C   UNL     1      -5.093   0.906  -8.209  0.00  0.00    +0.009 C 
ATOM     18  C   UNL     1      -3.703   1.524  -8.047  0.00  0.00    +0.033 C 
ENDBRANCH   1  18
BRANCH  15  19
ATOM     19  C   UNL     1      -1.294  -0.774   0.010  0.00  0.00    -0.038 C 
BRANCH  19  20
ATOM     20  C   UNL     1       0.002  -0.004   0.002  0.00  0.00    -0.060 A 
ATOM     21  C   UNL     1      -0.017   1.378   0.010  0.00  0.00    +0.005 A 
ATOM     22  C   UNL     1       1.169   2.089   0.002  0.00  0.00    +0.049 A 
ATOM     23  C   UNL     1       2.380   1.415  -0.013  0.00  0.00    +0.161 A 
ATOM     24  C   UNL     1       2.399   0.024  -0.021  0.00  0.00    +0.162 A 
ATOM     25  C   UNL     1       1.207  -0.682  -0.014  0.00  0.00    +0.051 A 
BRANCH  24  26
ATOM     26  O   UNL     1       3.585  -0.641  -0.036  0.00  0.00    -0.491 OA
ATOM     27  C   UNL     1       3.528  -2.069  -0.043  0.00  0.00    +0.277 C 
ENDBRANCH  24  26
BRANCH  23  28
ATOM     28  O   UNL     1       3.548   2.113  -0.020  0.00  0.00    -0.491 OA
ATOM     29  C   UNL     1       3.452   3.539  -0.011  0.00  0.00    +0.277 C 
ENDBRANCH  23  28
ENDBRANCH  19  20
ENDBRANCH  15  19
TORSDOF 5
