REMARK  Name = ZINC21006055
REMARK  6 active torsions:
REMARK  status: ('A' for Active; 'I' for Inactive)
REMARK    1  A    between atoms: C_1  and  C_2
REMARK    2  A    between atoms: N_6  and  O_7
REMARK    3  A    between atoms: O_7  and  C_8
REMARK    4  A    between atoms: C_8  and  C_10
REMARK    5  A    between atoms: C_20  and  O_24
REMARK    6  A    between atoms: O_24  and  C_25
REMARK                            x       y       z     vdW  Elec       q    Type
REMARK                         _______ _______ _______ _____ _____    ______ ____
ROOT
ATOM      1  C   UNL     1      -0.013   1.086   0.008  0.00  0.00    +0.052 C 
ATOM      2  C   UNL     1      -0.729   1.579   1.267  0.00  0.00    +0.176 C 
ATOM      3  C   UNL     1      -2.169   1.045   1.280  0.00  0.00    +0.103 C 
ATOM      4  C   UNL     1      -2.818   1.540   2.561  0.00  0.00    +0.095 C 
ATOM      5  N   UNL     1      -4.045   1.954   2.587  0.00  0.00    -0.078 NA
ATOM      6  C   UNL     1      -1.974   1.524   3.776  0.00  0.00    +0.041 A 
ATOM      7  C   UNL     1      -2.539   1.723   5.034  0.00  0.00    +0.017 A 
ATOM      8  C   UNL     1      -1.734   1.709   6.154  0.00  0.00    +0.046 A 
ATOM      9  C   UNL     1      -0.366   1.498   6.025  0.00  0.00    +0.124 A 
ATOM     10  C   UNL     1       0.202   1.297   4.776  0.00  0.00    +0.092 A 
ATOM     11  C   UNL     1      -0.595   1.307   3.642  0.00  0.00    +0.133 A 
ATOM     12  O   UNL     1      -0.039   1.107   2.423  0.00  0.00    -0.488 OA
ENDROOT
BRANCH   9  13
ATOM     13  O   UNL     1       0.421   1.488   7.132  0.00  0.00    -0.495 OA
ATOM     14  C   UNL     1      -0.225   1.700   8.389  0.00  0.00    +0.277 C 
ENDBRANCH   9  13
BRANCH   5  15
ATOM     15  O   UNL     1      -4.710   1.953   1.567  0.00  0.00    -0.312 OA
BRANCH  15  16
ATOM     16  C   UNL     1      -5.978   2.397   1.664  0.00  0.00    +0.366 C 
ATOM     17  O   UNL     1      -6.410   2.774   2.736  0.00  0.00    -0.243 OA
BRANCH  16  18
ATOM     18  C   UNL     1      -6.844   2.424   0.469  0.00  0.00    +0.061 A 
ATOM     19  C   UNL     1      -6.348   1.997  -0.765  0.00  0.00    +0.018 A 
ATOM     20  C   UNL     1      -7.162   2.020  -1.877  0.00  0.00    +0.039 A 
ATOM     21  C   UNL     1      -8.468   2.477  -1.774  0.00  0.00    +0.123 A 
ATOM     22  C   UNL     1      -8.963   2.907  -0.553  0.00  0.00    +0.039 A 
ATOM     23  C   UNL     1      -8.159   2.884   0.567  0.00  0.00    +0.018 A 
ATOM     24  F   UNL     1      -9.260   2.502  -2.869  0.00  0.00    -0.205 F 
ENDBRANCH  16  18
ENDBRANCH  15  16
ENDBRANCH   5  15
TORSDOF 4
