REMARK  Name = ZINC55556500
REMARK  4 active torsions:
REMARK  status: ('A' for Active; 'I' for Inactive)
REMARK    1  A    between atoms: C_1  and  N_2
REMARK    2  A    between atoms: N_2  and  C_3
REMARK    3  A    between atoms: C_3  and  C_4
REMARK    4  A    between atoms: C_18  and  C_20
REMARK                            x       y       z     vdW  Elec       q    Type
REMARK                         _______ _______ _______ _____ _____    ______ ____
ROOT
ATOM      1  C   UNL     1      -1.245  -1.039   1.822  0.00  0.00    +0.233 C 
ATOM      2  O   UNL     1      -2.238  -0.674   1.228  0.00  0.00    -0.274 OA
ATOM      3  N   UNL     1      -1.364  -1.713   2.984  0.00  0.00    -0.297 N 
ATOM      4  C   UNL     1      -0.174  -2.159   3.724  0.00  0.00    +0.108 C 
ATOM      5  C   UNL     1      -0.261  -1.653   5.166  0.00  0.00    +0.019 C 
ATOM      6  C   UNL     1      -1.594  -2.087   5.785  0.00  0.00    +0.007 C 
ATOM      7  C   UNL     1      -2.742  -1.484   4.978  0.00  0.00    +0.010 C 
ATOM      8  C   UNL     1      -2.684  -2.016   3.547  0.00  0.00    +0.079 C 
ATOM      9  C   UNL     1      -3.785  -1.349   2.724  0.00  0.00    +0.023 C 
ATOM     10  C   UNL     1      -5.146  -1.693   3.338  0.00  0.00    +0.002 C 
ATOM     11  C   UNL     1      -5.204  -1.196   4.783  0.00  0.00    +0.000 C 
ATOM     12  C   UNL     1      -4.090  -1.861   5.592  0.00  0.00    +0.005 C 
ENDROOT
BRANCH   1  13
ATOM     13  C   UNL     1       0.121  -0.739   1.262  0.00  0.00    +0.203 C 
BRANCH  13  15
ATOM     14  C   UNL     1      -0.067   1.461   0.012  0.00  0.00    +0.133 C 
ATOM     15  N   UNL     1      -0.018  -0.003   0.003  0.00  0.00    -0.289 N 
ATOM     16  C   UNL     1      -0.102  -0.673  -1.163  0.00  0.00    +0.282 C 
ATOM     17  O   UNL     1      -0.158  -1.889  -1.164  0.00  0.00    -0.267 OA
BRANCH  16  18
ATOM     18  C   UNL     1      -0.124   0.063  -2.432  0.00  0.00    +0.189 A 
ATOM     19  C   UNL     1      -0.326  -0.477  -3.670  0.00  0.00    +0.054 A 
ATOM     20  C   UNL     1      -0.267   0.583  -4.587  0.00  0.00    +0.042 A 
ATOM     21  C   UNL     1      -0.035   1.710  -3.878  0.00  0.00    +0.196 A 
ATOM     22  O   UNL     1       0.046   1.393  -2.580  0.00  0.00    -0.458 OA
ENDBRANCH  16  18
ENDBRANCH  13  15
ENDBRANCH   1  13
TORSDOF 3
