REMARK  Name = ZINC67021254
REMARK  7 active torsions:
REMARK  status: ('A' for Active; 'I' for Inactive)
REMARK    1  A    between atoms: C_1  and  N_2
REMARK    2  A    between atoms: N_2  and  C_3
REMARK    3  A    between atoms: C_4  and  S_6
REMARK    4  A    between atoms: S_6  and  C_7
REMARK    5  A    between atoms: C_12  and  N_13
REMARK    6  A    between atoms: C_14  and  C_16
REMARK    7  A    between atoms: C_19  and  N_22
REMARK                            x       y       z     vdW  Elec       q    Type
REMARK                         _______ _______ _______ _____ _____    ______ ____
ROOT
ATOM      1  N   UNL     1      -0.106  -5.338  -2.150  0.00  0.00    -0.281 N 
ATOM      2  C   UNL     1      -0.073  -6.644  -2.481  0.00  0.00    +0.248 C 
ATOM      3  O   UNL     1      -0.032  -6.974  -3.651  0.00  0.00    -0.270 OA
ATOM      4  H   UNL     1      -0.218  -5.076  -1.223  0.00  0.00    +0.155 HD
ENDROOT
BRANCH   1  10
ATOM      5  C   UNL     1      -0.506  -3.085  -2.942  0.00  0.00    +0.038 A 
ATOM      6  C   UNL     1      -0.372  -2.119  -3.928  0.00  0.00    +0.017 A 
ATOM      7  C   UNL     1       0.277  -2.424  -5.110  0.00  0.00    +0.001 A 
ATOM      8  C   UNL     1       0.794  -3.691  -5.313  0.00  0.00    +0.002 A 
ATOM      9  C   UNL     1       0.665  -4.659  -4.335  0.00  0.00    +0.024 A 
ATOM     10  C   UNL     1       0.020  -4.361  -3.144  0.00  0.00    +0.048 A 
BRANCH   5  11
ATOM     11  S   UNL     1      -1.332  -2.699  -1.434  0.00  0.00    -0.030 S 
BRANCH  11  15
ATOM     12  C   UNL     1      -5.046  -4.181  -0.668  0.00  0.00    +0.132 C 
ATOM     13  N   UNL     1      -3.751  -3.508  -0.545  0.00  0.00    -0.298 N 
ATOM     14  C   UNL     1      -3.392  -2.833   0.704  0.00  0.00    +0.132 C 
ATOM     15  C   UNL     1      -2.890  -3.509  -1.582  0.00  0.00    +0.279 C 
ATOM     16  O   UNL     1      -3.187  -4.070  -2.619  0.00  0.00    -0.262 OA
ENDBRANCH  11  15
ENDBRANCH   5  11
ENDBRANCH   1  10
BRANCH   2  17
ATOM     17  C   UNL     1      -0.087  -7.674  -1.425  0.00  0.00    +0.037 A 
ATOM     18  C   UNL     1      -0.140  -7.297  -0.080  0.00  0.00    +0.015 A 
ATOM     19  C   UNL     1      -0.153  -8.261   0.903  0.00  0.00    +0.024 A 
ATOM     20  C   UNL     1      -0.113  -9.608   0.560  0.00  0.00    +0.040 A 
ATOM     21  C   UNL     1      -0.060  -9.987  -0.778  0.00  0.00    +0.024 A 
ATOM     22  C   UNL     1      -0.053  -9.029  -1.766  0.00  0.00    +0.015 A 
BRANCH  20  23
ATOM     23  N   UNL     1      -0.127 -10.581   1.559  0.00  0.00    -0.234 N 
ATOM     24  C   UNL     1      -0.083 -12.042   1.351  0.00  0.00    +0.158 C 
ATOM     25  C   UNL     1       0.261 -12.564   2.766  0.00  0.00    +0.253 C 
ATOM     26  O   UNL     1      -0.212 -11.491   3.604  0.00  0.00    -0.448 OA
ATOM     27  C   UNL     1      -0.175 -10.357   2.885  0.00  0.00    +0.407 C 
ATOM     28  O   UNL     1      -0.188  -9.247   3.379  0.00  0.00    -0.226 OA
ENDBRANCH  20  23
ENDBRANCH   2  17
TORSDOF 5
