REMARK  Name = ZINC30707932
REMARK  5 active torsions:
REMARK  status: ('A' for Active; 'I' for Inactive)
REMARK    1  A    between atoms: C_1  and  C_2
REMARK    2  A    between atoms: C_5  and  C_8
REMARK    3  A    between atoms: N_10  and  N_11
REMARK    4  A    between atoms: C_12  and  C_13
REMARK    5  A    between atoms: C_17  and  N_19
REMARK                            x       y       z     vdW  Elec       q    Type
REMARK                         _______ _______ _______ _____ _____    ______ ____
ROOT
ATOM      1  N   UNL     1      -2.491  -0.284  -0.086  0.00  0.00    -0.187 NA
ATOM      2  C   UNL     1      -2.500   1.012  -0.010  0.00  0.00    +0.138 C 
ENDROOT
BRANCH   2   3
ATOM      3  C   UNL     1      -1.340   1.786  -0.490  0.00  0.00    -0.003 A 
ATOM      4  C   UNL     1      -0.375   1.178  -1.296  0.00  0.00    +0.011 A 
ATOM      5  C   UNL     1       0.704   1.909  -1.746  0.00  0.00    +0.018 A 
ATOM      6  C   UNL     1       0.835   3.243  -1.396  0.00  0.00    +0.048 A 
ATOM      7  C   UNL     1      -0.116   3.850  -0.594  0.00  0.00    +0.141 A 
ATOM      8  C   UNL     1      -1.200   3.131  -0.137  0.00  0.00    +0.043 A 
ATOM      9 BR   UNL     1       2.318   4.238  -2.017  0.00  0.00    -0.048 Br
BRANCH   7  10
ATOM     10  N   UNL     1       0.033   5.276  -0.224  0.00  0.00    +0.058 N 
ATOM     11  O   UNL     1      -0.803   5.812   0.482  0.00  0.00    -0.126 OA
ATOM     12  O   UNL     1       0.990   5.913  -0.626  0.00  0.00    -0.126 OA
ENDBRANCH   7  10
ENDBRANCH   2   3
BRANCH   1  15
ATOM     13  C   UNL     1      -1.257  -2.308  -0.305  0.00  0.00    +0.265 C 
ATOM     14  O   UNL     1      -2.299  -2.908  -0.486  0.00  0.00    -0.268 OA
ATOM     15  N   UNL     1      -1.273  -0.976  -0.095  0.00  0.00    -0.203 N 
ATOM     16  H   UNL     1      -0.331  -0.434   0.068  0.00  0.00    +0.178 HD
BRANCH  13  21
ATOM     17  C   UNL     1       3.774  -5.005  -0.319  0.00  0.00    +0.065 C 
ATOM     18  C   UNL     1       2.435  -4.315  -0.320  0.00  0.00    +0.038 A 
ATOM     19  C   UNL     1       1.287  -5.058  -0.532  0.00  0.00    +0.024 A 
ATOM     20  C   UNL     1       0.059  -4.421  -0.533  0.00  0.00    +0.016 A 
ATOM     21  C   UNL     1       0.028  -3.038  -0.316  0.00  0.00    +0.056 A 
ATOM     22  C   UNL     1       1.231  -2.361  -0.115  0.00  0.00    +0.124 A 
ATOM     23  N   UNL     1       2.375  -3.013  -0.118  0.00  0.00    -0.259 NA
ENDBRANCH  13  21
ENDBRANCH   1  15
TORSDOF 4
