REMARK  Name = ZINC07007012
REMARK  2 active torsions:
REMARK  status: ('A' for Active; 'I' for Inactive)
REMARK    1  A    between atoms: N_10  and  C_13
REMARK    2  A    between atoms: C_13  and  C_14
REMARK                            x       y       z     vdW  Elec       q    Type
REMARK                         _______ _______ _______ _____ _____    ______ ____
ROOT
ATOM      1  C   UNL     1      -0.017   1.385   0.010  0.00  0.00    +0.022 A 
ATOM      2  C   UNL     1       1.156   2.107   0.002  0.00  0.00    +0.030 A 
ATOM      3  C   UNL     1       2.381   1.436  -0.013  0.00  0.00    +0.078 A 
ATOM      4  C   UNL     1       2.397   0.023  -0.021  0.00  0.00    +0.066 A 
ATOM      5  C   UNL     1       1.199  -0.689  -0.013  0.00  0.00    +0.035 A 
ATOM      6  C   UNL     1       0.002  -0.004   0.002  0.00  0.00    +0.042 A 
ATOM      7 CL   UNL     1      -1.494  -0.885   0.012  0.00  0.00    -0.084 Cl
ATOM      8  C   UNL     1       3.703  -0.652  -0.037  0.00  0.00    +0.262 A 
ATOM      9  O   UNL     1       3.787  -1.866  -0.045  0.00  0.00    -0.267 OA
ATOM     10  N   UNL     1       4.808   0.129  -0.044  0.00  0.00    -0.294 N 
ATOM     11  C   UNL     1       4.698   1.483  -0.036  0.00  0.00    +0.203 A 
ATOM     12  N   UNL     1       3.559   2.107  -0.021  0.00  0.00    -0.237 NA
ENDROOT
BRANCH  10  13
ATOM     13  C   UNL     1       6.135  -0.491  -0.060  0.00  0.00    +0.165 C 
BRANCH  13  14
ATOM     14  C   UNL     1       6.576  -0.697  -1.486  0.00  0.00    +0.016 A 
ATOM     15  C   UNL     1       6.452  -1.940  -2.075  0.00  0.00    +0.029 A 
ATOM     16  C   UNL     1       6.858  -2.129  -3.384  0.00  0.00    +0.042 A 
ATOM     17  C   UNL     1       7.390  -1.074  -4.105  0.00  0.00    +0.029 A 
ATOM     18  C   UNL     1       7.515   0.171  -3.519  0.00  0.00    +0.022 A 
ATOM     19  C   UNL     1       7.102   0.365  -2.210  0.00  0.00    +0.134 A 
ATOM     20  O   UNL     1       7.207   1.589  -1.626  0.00  0.00    -0.465 OA
ATOM     21  C   UNL     1       8.066   2.538  -2.264  0.00  0.00    +0.394 C 
ATOM     22  O   UNL     1       7.773   2.551  -3.666  0.00  0.00    -0.339 OA
ATOM     23  C   UNL     1       8.099   1.313  -4.312  0.00  0.00    +0.202 C 
ATOM     24 CL   UNL     1       6.702  -3.692  -4.123  0.00  0.00    -0.084 Cl
ENDBRANCH  13  14
ENDBRANCH  10  13
TORSDOF 2
