REMARK  Name = ZINC51927612
REMARK  4 active torsions:
REMARK  status: ('A' for Active; 'I' for Inactive)
REMARK    1  A    between atoms: C_1  and  C_2
REMARK    2  A    between atoms: C_3  and  C_21
REMARK    3  A    between atoms: N_4  and  C_7
REMARK    4  A    between atoms: C_7  and  C_18
REMARK                            x       y       z     vdW  Elec       q    Type
REMARK                         _______ _______ _______ _____ _____    ______ ____
ROOT
ATOM      1  C   UNL     1       0.041  -3.288  -1.484  0.00  0.00    +0.173 C 
ATOM      2  C   UNL     1       0.022  -4.547  -0.614  0.00  0.00    +0.045 C 
ATOM      3  C   UNL     1       0.625  -5.726  -1.352  0.00  0.00    +0.003 C 
ATOM      4  C   UNL     1      -0.197  -6.216  -2.528  0.00  0.00    +0.005 C 
ATOM      5  C   UNL     1      -0.208  -5.182  -3.656  0.00  0.00    +0.035 C 
ATOM      6  C   UNL     1      -1.316  -4.187  -3.384  0.00  0.00    -0.041 A 
ATOM      7  C   UNL     1      -1.198  -3.289  -2.355  0.00  0.00    -0.008 A 
ATOM      8  C   UNL     1      -2.208  -2.378  -2.104  0.00  0.00    +0.007 A 
ATOM      9  C   UNL     1      -3.341  -2.377  -2.898  0.00  0.00    +0.000 A 
ATOM     10  C   UNL     1      -3.461  -3.282  -3.935  0.00  0.00    +0.000 A 
ATOM     11  C   UNL     1      -2.447  -4.191  -4.181  0.00  0.00    +0.004 A 
ENDROOT
BRANCH   1  15
ATOM     12  C   UNL     1       0.037   1.478   0.089  0.00  0.00    +0.065 C 
ATOM     13  C   UNL     1       0.040  -0.029   0.056  0.00  0.00    +0.033 A 
ATOM     14  C   UNL     1       0.037  -0.796  -1.051  0.00  0.00    +0.037 A 
ATOM     15  N   UNL     1       0.042  -2.098  -0.630  0.00  0.00    -0.315 N 
ATOM     16  C   UNL     1       0.049  -2.082   0.720  0.00  0.00    +0.175 A 
ATOM     17  N   UNL     1       0.052  -0.840   1.123  0.00  0.00    -0.350 N 
ATOM     18  C   UNL     1       0.028  -0.314  -2.479  0.00  0.00    +0.065 C 
ATOM     19  H   UNL     1       0.061  -0.551   2.049  0.00  0.00    +0.166 HD
ENDBRANCH   1  15
BRANCH   1  20
ATOM     20  C   UNL     1       1.271  -3.288  -2.355  0.00  0.00    +0.386 C 
ATOM     21  O   UNL     1       2.325  -3.721  -1.921  0.00  0.00    -0.243 OA
ATOM     22  O   UNL     1       1.213  -2.854  -3.493  0.00  0.00    -0.243 OA
ENDBRANCH   1  20
TORSDOF 2
