REMARK  Name = ZINC47877008
REMARK  11 active torsions:
REMARK  status: ('A' for Active; 'I' for Inactive)
REMARK    1  A    between atoms: C_1  and  C_2
REMARK    2  A    between atoms: C_6  and  N_9
REMARK    3  A    between atoms: C_7  and  C_8
REMARK    4  A    between atoms: C_10  and  C_12
REMARK    5  A    between atoms: C_12  and  N_13
REMARK    6  A    between atoms: N_13  and  C_14
REMARK    7  A    between atoms: N_17  and  C_18
REMARK    8  A    between atoms: C_23  and  O_24
REMARK    9  A    between atoms: O_24  and  C_25
REMARK   10  A    between atoms: C_25  and  C_26
REMARK   11  A    between atoms: C_26  and  C_27
REMARK                            x       y       z     vdW  Elec       q    Type
REMARK                         _______ _______ _______ _____ _____    ______ ____
ROOT
ATOM      1  N   UNL     1      -0.206  -6.332   3.394  0.00  0.00    -0.280 N 
ATOM      2  C   UNL     1       1.020  -7.128   3.296  0.00  0.00    +0.134 C 
ATOM      3  C   UNL     1      -1.407  -6.923   3.235  0.00  0.00    +0.307 C 
ATOM      4  O   UNL     1      -2.425  -6.262   3.316  0.00  0.00    -0.252 OA
ATOM      5  N   UNL     1      -1.480  -8.245   2.986  0.00  0.00    -0.266 N 
ATOM      6  H   UNL     1      -0.676  -8.787   3.002  0.00  0.00    +0.156 HD
ENDROOT
BRANCH   5   7
ATOM      7  C   UNL     1      -2.719  -8.838   2.704  0.00  0.00    +0.077 A 
ATOM      8  C   UNL     1      -3.752  -8.075   2.179  0.00  0.00    +0.027 A 
ATOM      9  C   UNL     1      -4.972  -8.661   1.902  0.00  0.00    +0.002 A 
ATOM     10  C   UNL     1      -5.167 -10.008   2.146  0.00  0.00    +0.004 A 
ATOM     11  C   UNL     1      -4.142 -10.775   2.669  0.00  0.00    +0.047 A 
ATOM     12  C   UNL     1      -2.914 -10.196   2.944  0.00  0.00    +0.142 A 
BRANCH  12  13
ATOM     13  O   UNL     1      -1.903 -10.950   3.453  0.00  0.00    -0.490 OA
BRANCH  13  14
ATOM     14  C   UNL     1      -2.176 -12.336   3.674  0.00  0.00    +0.238 C 
BRANCH  14  15
ATOM     15  C   UNL     1      -0.930 -13.015   4.245  0.00  0.00    +0.136 C 
BRANCH  15  16
ATOM     16  C   UNL     1      -1.217 -14.476   4.478  0.00  0.00    +0.214 C 
ATOM     17  O   UNL     1      -2.310 -14.929   4.213  0.00  0.00    -0.276 OA
ATOM     18  N   UNL     1      -0.258 -15.280   4.980  0.00  0.00    -0.329 N 
ATOM     19  H   UNL     1       0.616 -14.918   5.192  0.00  0.00    +0.145 HD
ATOM     20  H   UNL     1      -0.443 -16.220   5.130  0.00  0.00    +0.145 HD
ENDBRANCH  15  16
ENDBRANCH  14  15
ENDBRANCH  13  14
ENDBRANCH  12  13
ENDBRANCH   5   7
BRANCH   1  21
ATOM     21  C   UNL     1      -0.127  -4.895   3.665  0.00  0.00    +0.205 C 
BRANCH  21  23
ATOM     22  N   UNL     1       0.040  -2.797   2.365  0.00  0.00    -0.284 N 
ATOM     23  C   UNL     1      -0.042  -4.142   2.362  0.00  0.00    +0.235 C 
ATOM     24  O   UNL     1      -0.048  -4.747   1.311  0.00  0.00    -0.274 OA
ATOM     25  H   UNL     1       0.126  -2.318   3.204  0.00  0.00    +0.155 HD
BRANCH  22  31
ATOM     26  C   UNL     1       1.163   1.231  -0.220  0.00  0.00    +0.044 C 
ATOM     27  C   UNL     1       0.537  -0.136  -0.123  0.00  0.00    -0.046 A 
ATOM     28  C   UNL     1      -0.078  -0.694  -1.230  0.00  0.00    +0.004 A 
ATOM     29  C   UNL     1      -0.653  -1.949  -1.145  0.00  0.00    +0.002 A 
ATOM     30  C   UNL     1      -0.615  -2.649   0.045  0.00  0.00    +0.023 A 
ATOM     31  C   UNL     1       0.001  -2.091   1.158  0.00  0.00    +0.037 A 
ATOM     32  C   UNL     1       0.582  -0.833   1.068  0.00  0.00    -0.026 A 
ATOM     33  C   UNL     1       1.256  -0.226   2.271  0.00  0.00    +0.046 C 
ENDBRANCH  22  31
ENDBRANCH  21  23
ENDBRANCH   1  21
TORSDOF 8
