REMARK  Name = ZINC22152102
REMARK  4 active torsions:
REMARK  status: ('A' for Active; 'I' for Inactive)
REMARK    1  A    between atoms: C_1  and  C_2
REMARK    2  A    between atoms: C_8  and  N_10
REMARK    3  A    between atoms: N_10  and  C_11
REMARK    4  A    between atoms: C_16  and  N_17
REMARK                            x       y       z     vdW  Elec       q    Type
REMARK                         _______ _______ _______ _____ _____    ______ ____
ROOT
ATOM      1  C   UNL     1      -1.162   3.255   0.060  0.00  0.00    +0.058 A 
ATOM      2  C   UNL     1       0.098   3.840   0.035  0.00  0.00    +0.026 A 
ATOM      3  C   UNL     1       1.226   3.045  -0.009  0.00  0.00    +0.017 A 
ATOM      4  C   UNL     1       1.102   1.667  -0.029  0.00  0.00    +0.020 A 
ATOM      5  C   UNL     1      -0.151   1.081  -0.005  0.00  0.00    +0.050 A 
ATOM      6  C   UNL     1      -1.283   1.872   0.034  0.00  0.00    +0.148 A 
ATOM      7 BR   UNL     1       2.649   0.581  -0.091  0.00  0.00    -0.050 Br
ENDROOT
BRANCH   6   8
ATOM      8  N   UNL     1      -2.624   1.245   0.054  0.00  0.00    +0.058 N 
ATOM      9  O   UNL     1      -2.729   0.035   0.148  0.00  0.00    -0.126 OA
ATOM     10  O   UNL     1      -3.622   1.939  -0.025  0.00  0.00    -0.126 OA
ENDBRANCH   6   8
BRANCH   1  11
ATOM     11  N   UNL     1      -2.305   4.057   0.104  0.00  0.00    -0.339 N 
ATOM     12  H   UNL     1      -3.302   3.599   0.029  0.00  0.00    +0.146 HD
BRANCH  11  19
ATOM     13  C   UNL     1      -3.665   5.438   2.257  0.00  0.00    +0.009 C 
ATOM     14  C   UNL     1      -3.451   6.073   0.882  0.00  0.00    +0.006 C 
ATOM     15  C   UNL     1      -4.648   5.756  -0.018  0.00  0.00    +0.005 C 
ATOM     16  C   UNL     1      -4.434   6.391  -1.393  0.00  0.00    +0.000 C 
ATOM     17  C   UNL     1      -3.159   5.827  -2.023  0.00  0.00    +0.002 C 
ATOM     18  C   UNL     1      -1.962   6.144  -1.124  0.00  0.00    +0.022 C 
ATOM     19  C   UNL     1      -2.176   5.509   0.252  0.00  0.00    +0.073 C 
ENDBRANCH  11  19
ENDBRANCH   1  11
TORSDOF 3
