REMARK  Name = ZINC08879962
REMARK  9 active torsions:
REMARK  status: ('A' for Active; 'I' for Inactive)
REMARK    1  A    between atoms: C_1  and  C_2
REMARK    2  A    between atoms: C_5  and  C_7
REMARK    3  A    between atoms: C_7  and  N_51
REMARK    4  A    between atoms: C_8  and  N_51
REMARK    5  A    between atoms: C_9  and  C_11
REMARK    6  A    between atoms: C_9  and  C_12
REMARK    7  A    between atoms: C_9  and  N_51
REMARK    8  A    between atoms: N_14  and  C_15
REMARK    9  A    between atoms: C_16  and  C_25
REMARK                            x       y       z     vdW  Elec       q    Type
REMARK                         _______ _______ _______ _____ _____    ______ ____
ROOT
ATOM      1  C   UNL     1      -3.474   3.184  -2.821  0.00  0.00    +0.204 C 
ATOM      2  O   UNL     1      -2.789   2.739  -3.717  0.00  0.00    -0.277 OA
ATOM      3  N   UNL     1      -4.674   3.731  -3.098  0.00  0.00    -0.280 N 
ATOM      4  H   UNL     1      -5.222   4.087  -2.381  0.00  0.00    +0.155 HD
ENDROOT
BRANCH   3   5
ATOM      5  C   UNL     1      -5.127   3.783  -4.409  0.00  0.00    +0.090 A 
ATOM      6  C   UNL     1      -6.319   4.299  -4.888  0.00  0.00    +0.084 A 
ATOM      7  C   UNL     1      -6.559   4.235  -6.323  0.00  0.00    -0.018 A 
ATOM      8  C   UNL     1      -5.571   3.657  -7.039  0.00  0.00    -0.004 A 
ATOM      9  S   UNL     1      -4.335   3.225  -5.844  0.00  0.00    -0.077 S 
ATOM     10  C   UNL     1      -5.523   3.429  -8.518  0.00  0.00    +0.043 C 
ATOM     11  C   UNL     1      -5.894   4.731  -9.242  0.00  0.00    +0.005 C 
ATOM     12  C   UNL     1      -7.406   4.760  -9.441  0.00  0.00    +0.001 C 
ATOM     13  C   UNL     1      -8.104   4.061  -8.275  0.00  0.00    +0.005 C 
ATOM     14  C   UNL     1      -7.821   4.793  -6.968  0.00  0.00    +0.037 C 
BRANCH   6  15
ATOM     15  C   UNL     1      -7.285   4.878  -4.002  0.00  0.00    +0.102 C 
ATOM     16  N   UNL     1      -8.050   5.336  -3.299  0.00  0.00    -0.191 NA
ENDBRANCH   6  15
ENDBRANCH   3   5
BRANCH   1  17
ATOM     17  C   UNL     1      -2.982   3.128  -1.397  0.00  0.00    +0.017 C 
ATOM     18  C   UNL     1      -2.881   4.548  -0.836  0.00  0.00    -0.004 C 
BRANCH  17  20
ATOM     19  C   UNL     1      -0.657   3.321  -2.044  0.00  0.00    -0.095 C 
ATOM     20  N   UNL     1      -1.661   2.466  -1.375  0.00  0.00    +0.390 N 
ATOM     21  H   UNL     1      -1.726   1.573  -1.878  0.00  0.00    -0.081 HD
BRANCH  20  22
ATOM     22  C   UNL     1      -1.250   2.203   0.020  0.00  0.00    -0.003 C 
BRANCH  22  27
ATOM     23  C   UNL     1       1.717  -1.875  -0.024  0.00  0.00    +0.086 C 
ATOM     24  C   UNL     1       1.274  -0.435  -0.012  0.00  0.00    +0.102 A 
ATOM     25  C   UNL     1       2.086   0.638  -0.014  0.00  0.00    +0.044 A 
ATOM     26  C   UNL     1       1.254   1.781  -0.000  0.00  0.00    +0.043 A 
ATOM     27  C   UNL     1      -0.016   1.339   0.009  0.00  0.00    +0.089 A 
ATOM     28  O   UNL     1       0.002  -0.004   0.002  0.00  0.00    -0.467 OA
ENDBRANCH  22  27
ENDBRANCH  20  22
ENDBRANCH  17  20
ENDBRANCH   1  17
TORSDOF 6
