REMARK  Name = ZINC22452638
REMARK  3 active torsions:
REMARK  status: ('A' for Active; 'I' for Inactive)
REMARK    1  A    between atoms: C_1  and  C_2
REMARK    2  A    between atoms: C_2  and  C_3
REMARK    3  A    between atoms: C_15  and  C_17
REMARK                            x       y       z     vdW  Elec       q    Type
REMARK                         _______ _______ _______ _____ _____    ______ ____
ROOT
ATOM      1  C   UNL     1       0.684  -0.257   1.391  0.00  0.00    +0.076 C 
ATOM      2  C   UNL     1       0.574  -1.784   1.450  0.00  0.00    +0.022 C 
ATOM      3  C   UNL     1       1.466  -2.312   2.576  0.00  0.00    +0.003 C 
ATOM      4  C   UNL     1       2.924  -1.944   2.290  0.00  0.00    +0.019 C 
ATOM      5  C   UNL     1       3.061  -0.419   2.240  0.00  0.00    +0.108 C 
ATOM      6  N   UNL     1       2.101   0.113   1.263  0.00  0.00    -0.298 N 
ATOM      7  C   UNL     1       2.518   0.934   0.250  0.00  0.00    +0.200 A 
ATOM      8  N   UNL     1       1.975   0.816  -0.943  0.00  0.00    -0.177 NA
ATOM      9  C   UNL     1       2.359   1.604  -1.958  0.00  0.00    +0.275 A 
ATOM     10  O   UNL     1       1.845   1.481  -3.060  0.00  0.00    -0.266 OA
ATOM     11  C   UNL     1       3.362   2.578  -1.747  0.00  0.00    +0.098 A 
ATOM     12  C   UNL     1       3.918   2.692  -0.506  0.00  0.00    +0.054 A 
ATOM     13  N   UNL     1       3.482   1.861   0.498  0.00  0.00    -0.327 N 
ATOM     14  H   UNL     1       3.865   1.934   1.386  0.00  0.00    +0.169 HD
ENDROOT
BRANCH  12  15
ATOM     15  C   UNL     1       4.970   3.697  -0.244  0.00  0.00    -0.001 A 
ATOM     16  C   UNL     1       5.537   3.803   1.027  0.00  0.00    +0.011 A 
ATOM     17  C   UNL     1       6.517   4.743   1.265  0.00  0.00    +0.020 A 
ATOM     18  C   UNL     1       6.939   5.581   0.246  0.00  0.00    +0.041 A 
ATOM     19  C   UNL     1       6.380   5.481  -1.017  0.00  0.00    +0.020 A 
ATOM     20  C   UNL     1       5.403   4.540  -1.269  0.00  0.00    +0.011 A 
ATOM     21 CL   UNL     1       8.174   6.762   0.554  0.00  0.00    -0.084 Cl
ENDBRANCH  12  15
BRANCH   1  23
ATOM     22  C   UNL     1      -1.583  -0.035   0.365  0.00  0.00    +0.006 C 
ATOM     23  C   UNL     1      -0.094   0.267   0.182  0.00  0.00    +0.019 C 
ENDBRANCH   1  23
TORSDOF 2
