REMARK  Name = ZINC67288774
REMARK  7 active torsions:
REMARK  status: ('A' for Active; 'I' for Inactive)
REMARK    1  A    between atoms: C_1  and  C_2
REMARK    2  A    between atoms: C_5  and  C_32
REMARK    3  A    between atoms: C_6  and  C_8
REMARK    4  A    between atoms: N_16  and  C_20
REMARK    5  A    between atoms: C_20  and  C_21
REMARK    6  A    between atoms: N_23  and  C_24
REMARK    7  A    between atoms: C_27  and  C_31
REMARK                            x       y       z     vdW  Elec       q    Type
REMARK                         _______ _______ _______ _____ _____    ______ ____
ROOT
ATOM      1  C   UNL     1       0.892  -3.451   2.056  0.00  0.00    +0.144 C 
ATOM      2  C   UNL     1       2.310  -3.830   2.427  0.00  0.00    +0.082 C 
ATOM      3  C   UNL     1       2.746  -3.507   3.663  0.00  0.00    +0.065 C 
ATOM      4  C   UNL     1       4.172  -4.002   3.748  0.00  0.00    +0.284 C 
ATOM      5  O   UNL     1       4.443  -4.601   2.475  0.00  0.00    -0.455 OA
ATOM      6  C   UNL     1       3.334  -4.487   1.719  0.00  0.00    +0.339 C 
ATOM      7  O   UNL     1       3.231  -4.896   0.578  0.00  0.00    -0.245 OA
ATOM      8  N   UNL     1       1.936  -2.860   4.550  0.00  0.00    -0.247 N 
ATOM      9  C   UNL     1       0.675  -2.500   4.276  0.00  0.00    +0.307 C 
ATOM     10  O   UNL     1       0.029  -1.925   5.130  0.00  0.00    -0.252 OA
ATOM     11  N   UNL     1       0.100  -2.754   3.085  0.00  0.00    -0.288 N 
ATOM     12  H   UNL     1      -0.815  -2.485   2.908  0.00  0.00    +0.151 HD
ENDROOT
BRANCH   1  18
ATOM     13  C   UNL     1       3.387  -0.220  -0.839  0.00  0.00    +0.044 C 
ATOM     14  C   UNL     1       2.144  -1.021  -0.548  0.00  0.00    -0.050 A 
ATOM     15  C   UNL     1       1.058  -0.945  -1.399  0.00  0.00    +0.003 A 
ATOM     16  C   UNL     1      -0.083  -1.679  -1.132  0.00  0.00    +0.004 A 
ATOM     17  C   UNL     1      -0.136  -2.490  -0.014  0.00  0.00    -0.045 A 
ATOM     18  C   UNL     1       0.951  -2.567   0.837  0.00  0.00    -0.019 A 
ATOM     19  C   UNL     1       2.092  -1.836   0.567  0.00  0.00    +0.009 A 
ATOM     20  C   UNL     1      -1.379  -3.290   0.278  0.00  0.00    +0.044 C 
ENDBRANCH   1  18
BRANCH   8  21
ATOM     21  C   UNL     1       2.475  -2.541   5.875  0.00  0.00    +0.211 C 
BRANCH  21  22
ATOM     22  C   UNL     1       3.123  -1.180   5.839  0.00  0.00    +0.235 C 
ATOM     23  O   UNL     1       3.134  -0.541   4.808  0.00  0.00    -0.274 OA
ATOM     24  N   UNL     1       3.691  -0.675   6.952  0.00  0.00    -0.284 N 
ATOM     25  H   UNL     1       3.749  -1.215   7.755  0.00  0.00    +0.155 HD
BRANCH  24  26
ATOM     26  C   UNL     1       4.196   0.630   6.948  0.00  0.00    +0.036 A 
ATOM     27  C   UNL     1       5.315   0.945   7.709  0.00  0.00    +0.024 A 
ATOM     28  C   UNL     1       5.813   2.233   7.704  0.00  0.00    +0.008 A 
ATOM     29  C   UNL     1       5.199   3.210   6.943  0.00  0.00    -0.015 A 
ATOM     30  C   UNL     1       4.083   2.901   6.184  0.00  0.00    +0.128 A 
ATOM     31  C   UNL     1       3.584   1.611   6.181  0.00  0.00    +0.062 A 
ATOM     32  F   UNL     1       3.485   3.859   5.442  0.00  0.00    -0.205 F 
ATOM     33  C   UNL     1       5.744   4.615   6.941  0.00  0.00    +0.047 C 
ENDBRANCH  24  26
ENDBRANCH  21  22
ENDBRANCH   8  21
TORSDOF 4
