REMARK  Name = ZINC04749350
REMARK  6 active torsions:
REMARK  status: ('A' for Active; 'I' for Inactive)
REMARK    1  A    between atoms: C_1  and  C_2
REMARK    2  A    between atoms: C_2  and  C_26
REMARK    3  A    between atoms: C_7  and  O_25
REMARK    4  A    between atoms: C_9  and  O_13
REMARK    5  A    between atoms: O_13  and  C_14
REMARK    6  A    between atoms: C_14  and  C_15
REMARK                            x       y       z     vdW  Elec       q    Type
REMARK                         _______ _______ _______ _____ _____    ______ ____
ROOT
ATOM      1  C   UNL     1      -0.017  -2.552   1.948  0.00  0.00    +0.056 C 
ATOM      2  C   UNL     1       0.121  -2.768   0.439  0.00  0.00    +0.112 C 
ATOM      3  C   UNL     1      -1.141  -2.256  -0.270  0.00  0.00    +0.127 C 
ATOM      4  C   UNL     1      -1.249  -0.770   0.022  0.00  0.00    +0.174 C 
ATOM      5  O   UNL     1      -2.316  -0.242   0.261  0.00  0.00    -0.292 OA
ATOM      6  C   UNL     1       0.002  -0.004   0.002  0.00  0.00    +0.101 A 
ATOM      7  C   UNL     1      -0.017   1.400   0.010  0.00  0.00    +0.134 A 
ATOM      8  C   UNL     1       1.177   2.097   0.002  0.00  0.00    +0.092 A 
ATOM      9  C   UNL     1       2.385   1.410  -0.014  0.00  0.00    +0.128 A 
ATOM     10  C   UNL     1       2.410   0.021  -0.027  0.00  0.00    +0.092 A 
ATOM     11  C   UNL     1       1.227  -0.696  -0.022  0.00  0.00    +0.139 A 
ATOM     12  O   UNL     1       1.257  -2.050  -0.043  0.00  0.00    -0.485 OA
ATOM     13  C   UNL     1       0.299  -4.260   0.151  0.00  0.00    +0.056 C 
ENDROOT
BRANCH   7  14
ATOM     14  O   UNL     1      -1.198   2.067   0.019  0.00  0.00    -0.506 OA
ATOM     15  H   UNL     1      -1.536   2.255   0.905  0.00  0.00    +0.292 HD
ENDBRANCH   7  14
BRANCH   9  16
ATOM     16  O   UNL     1       3.552   2.102  -0.018  0.00  0.00    -0.487 OA
BRANCH  16  17
ATOM     17  C   UNL     1       3.460   3.528  -0.004  0.00  0.00    +0.266 C 
BRANCH  17  18
ATOM     18  C   UNL     1       4.845   4.121  -0.010  0.00  0.00    +0.012 A 
ATOM     19  C   UNL     1       5.951   3.291  -0.021  0.00  0.00    +0.058 A 
ATOM     20  C   UNL     1       7.225   3.833  -0.032  0.00  0.00    +0.167 A 
ATOM     21  C   UNL     1       7.390   5.216  -0.020  0.00  0.00    +0.168 A 
ATOM     22  C   UNL     1       6.279   6.043  -0.004  0.00  0.00    +0.070 A 
ATOM     23  C   UNL     1       5.008   5.495   0.001  0.00  0.00    +0.051 A 
ATOM     24 CL   UNL     1       3.617   6.532   0.022  0.00  0.00    -0.083 Cl
ATOM     25  O   UNL     1       8.726   5.497  -0.028  0.00  0.00    -0.453 OA
ATOM     26  C   UNL     1       9.371   4.282  -0.456  0.00  0.00    +0.466 C 
ATOM     27  O   UNL     1       8.458   3.247  -0.046  0.00  0.00    -0.453 OA
ENDBRANCH  17  18
ENDBRANCH  16  17
ENDBRANCH   9  16
TORSDOF 4
