REMARK  Name = ZINC22990473
REMARK  4 active torsions:
REMARK  status: ('A' for Active; 'I' for Inactive)
REMARK    1  A    between atoms: C_8  and  C_19
REMARK    2  A    between atoms: C_12  and  C_14
REMARK    3  A    between atoms: N_21  and  N_22
REMARK    4  A    between atoms: C_23  and  C_25
REMARK                            x       y       z     vdW  Elec       q    Type
REMARK                         _______ _______ _______ _____ _____    ______ ____
ROOT
ATOM      1  C   UNL     1      -0.060   1.536  -2.812  0.00  0.00    +0.000 A 
ATOM      2  C   UNL     1      -0.799   1.413  -1.650  0.00  0.00    +0.000 A 
ATOM      3  C   UNL     1      -0.840   2.459  -0.752  0.00  0.00    +0.005 A 
ATOM      4  C   UNL     1      -0.151   3.637  -1.009  0.00  0.00    -0.027 A 
ATOM      5  C   UNL     1       0.573   3.766  -2.173  0.00  0.00    -0.040 A 
ATOM      6  C   UNL     1       0.617   2.709  -3.073  0.00  0.00    +0.004 A 
ATOM      7  C   UNL     1       1.328   5.019  -2.529  0.00  0.00    +0.067 C 
ATOM      8  C   UNL     1       1.596   5.866  -1.286  0.00  0.00    +0.168 C 
ATOM      9  N   UNL     1       0.337   5.971  -0.530  0.00  0.00    -0.279 N 
ATOM     10  C   UNL     1      -0.220   4.732   0.025  0.00  0.00    +0.144 C 
ATOM     11  C   UNL     1      -0.279   7.156  -0.354  0.00  0.00    +0.283 C 
ATOM     12  O   UNL     1       0.111   8.140  -0.955  0.00  0.00    -0.267 OA
ENDROOT
BRANCH  11  13
ATOM     13  C   UNL     1      -1.420   7.261   0.561  0.00  0.00    +0.189 A 
ATOM     14  C   UNL     1      -2.209   8.362   0.737  0.00  0.00    +0.054 A 
ATOM     15  C   UNL     1      -3.172   8.019   1.699  0.00  0.00    +0.042 A 
ATOM     16  C   UNL     1      -2.931   6.740   2.064  0.00  0.00    +0.196 A 
ATOM     17  O   UNL     1      -1.878   6.286   1.373  0.00  0.00    -0.458 OA
ENDBRANCH  11  13
BRANCH   8  18
ATOM     18  C   UNL     1       2.061   7.240  -1.695  0.00  0.00    +0.250 C 
ATOM     19  O   UNL     1       3.046   7.725  -1.180  0.00  0.00    -0.272 OA
ATOM     20  N   UNL     1       1.383   7.929  -2.634  0.00  0.00    -0.233 N 
ATOM     21  H   UNL     1       0.490   7.489  -3.102  0.00  0.00    +0.173 HD
BRANCH  20  22
ATOM     22  N   UNL     1       1.816   9.206  -3.015  0.00  0.00    -0.230 N 
ATOM     23  C   UNL     1       1.137   9.895  -3.954  0.00  0.00    +0.262 C 
ATOM     24  O   UNL     1       0.151   9.409  -4.471  0.00  0.00    -0.269 OA
ATOM     25  H   UNL     1       2.709   9.646  -2.547  0.00  0.00    +0.173 HD
BRANCH  23  26
ATOM     26  C   UNL     1       1.594  11.242  -4.355  0.00  0.00    +0.056 A 
ATOM     27  C   UNL     1       2.727  11.804  -3.764  0.00  0.00    +0.014 A 
ATOM     28  C   UNL     1       3.147  13.062  -4.143  0.00  0.00    +0.001 A 
ATOM     29  C   UNL     1       2.450  13.767  -5.108  0.00  0.00    +0.001 A 
ATOM     30  C   UNL     1       1.326  13.218  -5.698  0.00  0.00    +0.021 A 
ATOM     31  C   UNL     1       0.897  11.957  -5.332  0.00  0.00    +0.053 A 
ATOM     32 CL   UNL     1      -0.509  11.265  -6.080  0.00  0.00    -0.083 Cl
ENDBRANCH  23  26
ENDBRANCH  20  22
ENDBRANCH   8  18
TORSDOF 4
