REMARK  Name = ZINC12928846
REMARK  10 active torsions:
REMARK  status: ('A' for Active; 'I' for Inactive)
REMARK    1  A    between atoms: C_1  and  C_2
REMARK    2  A    between atoms: C_2  and  C_4
REMARK    3  A    between atoms: C_2  and  N_46
REMARK    4  A    between atoms: C_12  and  N_46
REMARK    5  A    between atoms: C_13  and  C_14
REMARK    6  A    between atoms: C_13  and  N_46
REMARK    7  A    between atoms: N_16  and  C_17
REMARK    8  A    between atoms: C_20  and  N_25
REMARK    9  A    between atoms: C_22  and  O_23
REMARK   10  A    between atoms: O_23  and  C_24
REMARK                            x       y       z     vdW  Elec       q    Type
REMARK                         _______ _______ _______ _____ _____    ______ ____
ROOT
ATOM      1  C   UNL     1      -0.018   1.502   0.014  0.00  0.00    +0.201 C 
ATOM      2  O   UNL     1       1.024   2.123   0.003  0.00  0.00    -0.278 OA
ATOM      3  N   UNL     1      -1.195   2.161   0.019  0.00  0.00    -0.284 N 
ATOM      4  H   UNL     1      -2.027   1.668  -0.055  0.00  0.00    +0.155 HD
ENDROOT
BRANCH   3   5
ATOM      5  C   UNL     1      -1.215   3.557   0.133  0.00  0.00    +0.076 A 
ATOM      6  C   UNL     1      -0.158   4.222   0.737  0.00  0.00    +0.029 A 
ATOM      7  C   UNL     1      -0.181   5.599   0.848  0.00  0.00    +0.035 A 
ATOM      8  C   UNL     1      -1.255   6.318   0.357  0.00  0.00    +0.130 A 
ATOM      9  C   UNL     1      -2.313   5.663  -0.246  0.00  0.00    +0.080 A 
ATOM     10  C   UNL     1      -2.295   4.282  -0.365  0.00  0.00    +0.143 A 
BRANCH   8  11
ATOM     11  N   UNL     1      -1.273   7.793   0.478  0.00  0.00    +0.057 N 
ATOM     12  O   UNL     1      -0.343   8.372   1.009  0.00  0.00    -0.126 OA
ATOM     13  O   UNL     1      -2.219   8.428   0.047  0.00  0.00    -0.126 OA
ENDBRANCH   8  11
BRANCH  10  14
ATOM     14  O   UNL     1      -3.332   3.637  -0.963  0.00  0.00    -0.493 OA
ATOM     15  C   UNL     1      -4.405   4.445  -1.451  0.00  0.00    +0.277 C 
ENDBRANCH  10  14
ENDBRANCH   3   5
BRANCH   1  16
ATOM     16  C   UNL     1       0.002  -0.004   0.014  0.00  0.00    +0.019 C 
BRANCH  16  18
ATOM     17  C   UNL     1       2.058  -0.117  -1.260  0.00  0.00    -0.095 C 
ATOM     18  N   UNL     1       1.407  -0.462   0.022  0.00  0.00    +0.388 N 
ATOM     19  H   UNL     1       1.906   0.007   0.786  0.00  0.00    -0.081 HD
BRANCH  18  21
ATOM     20  C   UNL     1       0.847  -2.246   1.602  0.00  0.00    -0.008 C 
ATOM     21  C   UNL     1       1.461  -1.923   0.238  0.00  0.00    -0.040 C 
BRANCH  21  22
ATOM     22  C   UNL     1       2.900  -2.369   0.217  0.00  0.00    -0.058 A 
ATOM     23  C   UNL     1       3.245  -3.564  -0.388  0.00  0.00    +0.005 A 
ATOM     24  C   UNL     1       4.564  -3.974  -0.409  0.00  0.00    +0.041 A 
ATOM     25  C   UNL     1       5.543  -3.189   0.176  0.00  0.00    +0.158 A 
ATOM     26  C   UNL     1       5.197  -1.992   0.783  0.00  0.00    +0.159 A 
ATOM     27  C   UNL     1       3.876  -1.581   0.798  0.00  0.00    +0.043 A 
ATOM     28  F   UNL     1       6.150  -1.224   1.355  0.00  0.00    -0.202 F 
ATOM     29  F   UNL     1       6.833  -3.590   0.156  0.00  0.00    -0.202 F 
ENDBRANCH  21  22
ENDBRANCH  18  21
ENDBRANCH  16  18
ENDBRANCH   1  16
TORSDOF 7
