REMARK  Name = ZINC22718724
REMARK  10 active torsions:
REMARK  status: ('A' for Active; 'I' for Inactive)
REMARK    1  A    between atoms: C_1  and  C_2
REMARK    2  A    between atoms: C_2  and  C_4
REMARK    3  A    between atoms: C_2  and  N_31
REMARK    4  A    between atoms: C_7  and  S_16
REMARK    5  A    between atoms: N_8  and  C_9
REMARK    6  A    between atoms: S_16  and  C_17
REMARK    7  A    between atoms: C_17  and  C_19
REMARK    8  A    between atoms: C_17  and  C_20
REMARK    9  A    between atoms: N_31  and  C_32
REMARK   10  A    between atoms: N_31  and  C_33
REMARK                            x       y       z     vdW  Elec       q    Type
REMARK                         _______ _______ _______ _____ _____    ______ ____
ROOT
ATOM      1  C   UNL     1      -1.466   3.469   2.506  0.00  0.00    +0.125 A 
ATOM      2  N   UNL     1      -2.592   3.001   2.968  0.00  0.00    -0.135 NA
ATOM      3  N   UNL     1      -2.910   3.608   4.055  0.00  0.00    -0.122 NA
ATOM      4  C   UNL     1      -2.002   4.511   4.346  0.00  0.00    +0.197 A 
ATOM      5  N   UNL     1      -1.051   4.451   3.365  0.00  0.00    -0.275 N 
ENDROOT
BRANCH   5   6
ATOM      6  C   UNL     1       0.109   5.234   3.260  0.00  0.00    +0.050 A 
ATOM      7  C   UNL     1       1.360   4.640   3.365  0.00  0.00    +0.028 A 
ATOM      8  C   UNL     1       2.500   5.412   3.256  0.00  0.00    +0.022 A 
ATOM      9  C   UNL     1       2.396   6.777   3.054  0.00  0.00    +0.041 A 
ATOM     10  C   UNL     1       1.151   7.372   2.955  0.00  0.00    +0.022 A 
ATOM     11  C   UNL     1       0.007   6.603   3.058  0.00  0.00    +0.028 A 
ATOM     12 CL   UNL     1       3.831   7.745   2.925  0.00  0.00    -0.084 Cl
ENDBRANCH   5   6
BRANCH   1  14
ATOM     13  C   UNL     1      -1.492   3.559   0.028  0.00  0.00    -0.005 C 
ATOM     14  C   UNL     1      -0.757   3.016   1.255  0.00  0.00    -0.003 C 
BRANCH  14  15
ATOM     15  N   UNL     1      -0.740   1.548   1.206  0.00  0.00    +0.382 N 
ATOM     16  C   UNL     1      -0.055   1.071  -0.003  0.00  0.00    -0.096 C 
ATOM     17  C   UNL     1      -0.124   0.988   2.416  0.00  0.00    -0.096 C 
ATOM     18  H   UNL     1      -1.782   1.199   1.164  0.00  0.00    -0.082 HD
ENDBRANCH  14  15
ENDBRANCH   1  14
BRANCH   4  19
ATOM     19  S   UNL     1      -2.009   5.595   5.735  0.00  0.00    -0.073 S 
BRANCH  19  20
ATOM     20  C   UNL     1      -3.548   5.074   6.532  0.00  0.00    +0.137 C 
ATOM     21  C   UNL     1      -4.732   5.402   5.621  0.00  0.00    +0.029 C 
BRANCH  20  22
ATOM     22  C   UNL     1      -3.706   5.801   7.843  0.00  0.00    +0.233 C 
ATOM     23  O   UNL     1      -3.102   6.835   8.039  0.00  0.00    -0.274 OA
ATOM     24  N   UNL     1      -4.518   5.303   8.796  0.00  0.00    -0.270 N 
ATOM     25  C   UNL     1      -5.215   4.016   8.718  0.00  0.00    +0.118 C 
ATOM     26  C   UNL     1      -6.001   3.903  10.035  0.00  0.00    +0.056 C 
ATOM     27  C   UNL     1      -5.686   5.182  10.777  0.00  0.00    -0.024 A 
ATOM     28  C   UNL     1      -4.824   5.942  10.002  0.00  0.00    +0.040 A 
ATOM     29  C   UNL     1      -4.390   7.178  10.484  0.00  0.00    +0.024 A 
ATOM     30  C   UNL     1      -4.814   7.632  11.715  0.00  0.00    +0.002 A 
ATOM     31  C   UNL     1      -5.673   6.867  12.481  0.00  0.00    +0.000 A 
ATOM     32  C   UNL     1      -6.109   5.642  12.010  0.00  0.00    +0.005 A 
ENDBRANCH  20  22
ENDBRANCH  19  20
ENDBRANCH   4  19
TORSDOF 6
