REMARK  Name = ZINC05020420
REMARK  9 active torsions:
REMARK  status: ('A' for Active; 'I' for Inactive)
REMARK    1  A    between atoms: C_1  and  C_2
REMARK    2  A    between atoms: C_3  and  C_27
REMARK    3  A    between atoms: C_4  and  C_22
REMARK    4  A    between atoms: C_6  and  C_20
REMARK    5  A    between atoms: C_7  and  S_9
REMARK    6  A    between atoms: S_9  and  C_10
REMARK    7  A    between atoms: C_10  and  C_11
REMARK    8  A    between atoms: C_15  and  N_17
REMARK    9  A    between atoms: C_27  and  C_29
REMARK                            x       y       z     vdW  Elec       q    Type
REMARK                         _______ _______ _______ _____ _____    ______ ____
ROOT
ATOM      1  C   UNL     1      -9.032  -0.464  -1.563  0.00  0.00    +0.061 C 
ATOM      2  C   UNL     1      -8.602  -0.631  -0.128  0.00  0.00    +0.013 C 
ATOM      3  C   UNL     1      -9.490  -1.079   0.783  0.00  0.00    +0.024 C 
ATOM      4  C   UNL     1      -9.111  -1.272   2.224  0.00  0.00    +0.100 C 
ATOM      5  C   UNL     1      -7.831  -0.551   2.540  0.00  0.00    +0.069 C 
ATOM      6  C   UNL     1      -7.002  -0.119   1.553  0.00  0.00    +0.080 C 
ATOM      7  N   UNL     1      -7.324  -0.321   0.229  0.00  0.00    -0.312 N 
ATOM      8  H   UNL     1      -6.544  -0.232  -0.541  0.00  0.00    +0.152 HD
ENDROOT
BRANCH   4   9
ATOM      9  C   UNL     1      -8.932  -2.743   2.496  0.00  0.00    +0.003 A 
ATOM     10  C   UNL     1      -9.671  -3.526   3.412  0.00  0.00    +0.045 A 
ATOM     11  C   UNL     1      -9.185  -4.778   3.335  0.00  0.00    +0.195 A 
ATOM     12  O   UNL     1      -8.196  -4.795   2.426  0.00  0.00    -0.471 OA
ATOM     13  C   UNL     1      -8.042  -3.564   1.911  0.00  0.00    +0.199 A 
ENDBRANCH   4   9
BRANCH   3  14
ATOM     14  C   UNL     1     -10.800  -1.374   0.375  0.00  0.00    +0.159 C 
ATOM     15  O   UNL     1     -11.153  -1.126  -0.761  0.00  0.00    -0.293 OA
ATOM     16  C   UNL     1     -11.770  -1.997   1.346  0.00  0.00    +0.091 C 
ENDBRANCH   3  14
BRANCH   5  17
ATOM     17  C   UNL     1      -7.478  -0.315   3.907  0.00  0.00    +0.098 C 
ATOM     18  N   UNL     1      -7.197  -0.128   4.992  0.00  0.00    -0.191 NA
ENDBRANCH   5  17
BRANCH   6  19
ATOM     19  S   UNL     1      -5.506   0.713   1.970  0.00  0.00    -0.104 S 
BRANCH  19  20
ATOM     20  C   UNL     1      -4.851   1.033   0.314  0.00  0.00    +0.110 C 
BRANCH  20  21
ATOM     21  C   UNL     1      -3.535   1.759   0.425  0.00  0.00    -0.035 A 
ATOM     22  C   UNL     1      -3.508   3.141   0.450  0.00  0.00    +0.004 A 
ATOM     23  C   UNL     1      -2.301   3.807   0.552  0.00  0.00    +0.003 A 
ATOM     24  C   UNL     1      -1.122   3.091   0.633  0.00  0.00    +0.033 A 
ATOM     25  C   UNL     1      -1.148   1.709   0.603  0.00  0.00    +0.126 A 
ATOM     26  C   UNL     1      -2.356   1.043   0.501  0.00  0.00    +0.037 A 
BRANCH  25  27
ATOM     27  N   UNL     1       0.115   0.943   0.684  0.00  0.00    +0.056 N 
ATOM     28  O   UNL     1       0.091  -0.275   0.662  0.00  0.00    -0.126 OA
ATOM     29  O   UNL     1       1.179   1.530   0.768  0.00  0.00    -0.126 OA
ENDBRANCH  25  27
ENDBRANCH  20  21
ENDBRANCH  19  20
ENDBRANCH   6  19
TORSDOF 7
