REMARK  Name = ZINC30004720
REMARK  8 active torsions:
REMARK  status: ('A' for Active; 'I' for Inactive)
REMARK    1  A    between atoms: C_1  and  C_2
REMARK    2  A    between atoms: C_2  and  C_4
REMARK    3  A    between atoms: C_2  and  N_14
REMARK    4  A    between atoms: C_7  and  S_10
REMARK    5  A    between atoms: S_10  and  C_13
REMARK    6  A    between atoms: N_14  and  C_15
REMARK    7  A    between atoms: N_14  and  C_16
REMARK    8  A    between atoms: C_16  and  C_17
REMARK                            x       y       z     vdW  Elec       q    Type
REMARK                         _______ _______ _______ _____ _____    ______ ____
ROOT
ATOM      1  C   UNL     1       3.965   2.892  -0.199  0.00  0.00    +0.116 A 
ATOM      2  N   UNL     1       4.569   1.719  -0.278  0.00  0.00    -0.219 NA
ATOM      3  C   UNL     1       3.928   0.580  -0.072  0.00  0.00    +0.128 A 
ATOM      4  C   UNL     1       2.541   0.615   0.244  0.00  0.00    +0.051 A 
ATOM      5  C   UNL     1       1.637  -0.509   0.512  0.00  0.00    -0.025 A 
ATOM      6  C   UNL     1       0.353  -0.201   0.785  0.00  0.00    -0.004 A 
ATOM      7  S   UNL     1       0.272   1.570   0.713  0.00  0.00    -0.073 S 
ATOM      8  C   UNL     1       1.967   1.899   0.309  0.00  0.00    +0.114 A 
ATOM      9  N   UNL     1       2.681   2.986   0.089  0.00  0.00    -0.227 NA
ATOM     10  C   UNL     1      -0.774  -1.143   1.075  0.00  0.00    +0.043 C 
ATOM     11  C   UNL     1      -0.329  -2.158   2.136  0.00  0.00    +0.005 C 
ATOM     12  C   UNL     1       0.290  -3.356   1.422  0.00  0.00    +0.001 C 
ATOM     13  C   UNL     1       0.996  -2.897   0.147  0.00  0.00    +0.005 C 
ATOM     14  C   UNL     1       2.140  -1.949   0.484  0.00  0.00    +0.037 C 
ATOM     15  N   UNL     1       4.596  -0.627  -0.164  0.00  0.00    -0.343 N 
ATOM     16  H   UNL     1       4.055  -1.569   0.008  0.00  0.00    +0.144 HD
ATOM     17  H   UNL     1       5.668  -0.645  -0.409  0.00  0.00    +0.144 HD
ENDROOT
BRANCH   1  18
ATOM     18  C   UNL     1       4.759   4.148  -0.445  0.00  0.00    -0.001 C 
BRANCH  18  19
ATOM     19  N   UNL     1       4.709   4.488  -1.874  0.00  0.00    +0.387 N 
ATOM     20  C   UNL     1       5.400   3.474  -2.681  0.00  0.00    -0.095 C 
ATOM     21  H   UNL     1       3.652   4.502  -2.180  0.00  0.00    -0.081 HD
BRANCH  19  23
ATOM     22  C   UNL     1       6.777   5.798  -1.875  0.00  0.00    -0.008 C 
ATOM     23  C   UNL     1       5.267   5.825  -2.117  0.00  0.00    -0.041 C 
BRANCH  23  24
ATOM     24  C   UNL     1       4.994   6.231  -3.542  0.00  0.00    -0.061 A 
ATOM     25  C   UNL     1       5.900   7.024  -4.220  0.00  0.00    +0.004 A 
ATOM     26  C   UNL     1       5.652   7.393  -5.529  0.00  0.00    +0.027 A 
ATOM     27  C   UNL     1       4.492   6.978  -6.157  0.00  0.00    +0.088 A 
ATOM     28  C   UNL     1       3.583   6.188  -5.477  0.00  0.00    +0.027 A 
ATOM     29  C   UNL     1       3.834   5.815  -4.170  0.00  0.00    +0.004 A 
BRANCH  27  30
ATOM     30  S   UNL     1       4.173   7.454  -7.823  0.00  0.00    -0.006 S 
ATOM     31  O   UNL     1       5.457   7.678  -8.389  0.00  0.00    -0.170 OA
ATOM     32  O   UNL     1       3.323   6.436  -8.334  0.00  0.00    -0.170 OA
ATOM     33  C   UNL     1       3.264   9.019  -7.694  0.00  0.00    +0.200 C 
ENDBRANCH  27  30
ENDBRANCH  23  24
ENDBRANCH  19  23
ENDBRANCH  18  19
ENDBRANCH   1  18
TORSDOF 5
