REMARK  Name = ZINC01212104
REMARK  2 active torsions:
REMARK  status: ('A' for Active; 'I' for Inactive)
REMARK    1  A    between atoms: C_3  and  C_9
REMARK    2  A    between atoms: N_10  and  N_11
REMARK                            x       y       z     vdW  Elec       q    Type
REMARK                         _______ _______ _______ _____ _____    ______ ____
ROOT
ATOM      1  C   UNL     1      -0.016   1.301   0.009  0.00  0.00    +0.144 C 
ATOM      2  N   UNL     1       0.002  -0.004   0.002  0.00  0.00    -0.155 NA
ENDROOT
BRANCH   1   5
ATOM      3  C   UNL     1      -2.530   4.084   0.037  0.00  0.00    +0.002 A 
ATOM      4  C   UNL     1      -1.323   3.417   0.033  0.00  0.00    +0.011 A 
ATOM      5  C   UNL     1      -1.300   2.019   0.019  0.00  0.00    +0.015 A 
ATOM      6  C   UNL     1      -2.504   1.307   0.021  0.00  0.00    +0.068 A 
ATOM      7  C   UNL     1      -3.705   1.989   0.031  0.00  0.00    +0.060 A 
ATOM      8  C   UNL     1      -3.718   3.374   0.038  0.00  0.00    +0.021 A 
ATOM      9 CL   UNL     1      -5.202   1.109   0.033  0.00  0.00    -0.082 Cl
ATOM     10 CL   UNL     1      -2.489  -0.429   0.010  0.00  0.00    -0.081 Cl
ENDBRANCH   1   5
BRANCH   2  11
ATOM     11  N   UNL     1       1.128  -0.634  -0.012  0.00  0.00    -0.127 NA
ATOM     12  C   UNL     1       1.146  -1.951  -0.019  0.00  0.00    +0.182 C 
ATOM     13  N   UNL     1       2.241  -2.787  -0.040  0.00  0.00    -0.263 N 
ATOM     14  C   UNL     1       2.126  -4.104  -0.040  0.00  0.00    +0.229 C 
ATOM     15  O   UNL     1       3.094  -4.835  -0.053  0.00  0.00    -0.275 OA
ATOM     16  C   UNL     1       0.706  -4.644  -0.030  0.00  0.00    +0.173 C 
ATOM     17  S   UNL     1      -0.244  -3.073  -0.013  0.00  0.00    -0.079 S 
ATOM     18  H   UNL     1       3.128  -2.395  -0.051  0.00  0.00    +0.157 HD
ENDBRANCH   2  11
TORSDOF 2
