REMARK  Name = ZINC00549941
REMARK  3 active torsions:
REMARK  status: ('A' for Active; 'I' for Inactive)
REMARK    1  A    between atoms: C_5  and  C_7
REMARK    2  A    between atoms: C_10  and  C_12
REMARK    3  A    between atoms: N_13  and  O_14
REMARK                            x       y       z     vdW  Elec       q    Type
REMARK                         _______ _______ _______ _____ _____    ______ ____
ROOT
ATOM      1  C   UNL     1       1.251  -2.159  -0.022  0.00  0.00    +0.137 A 
ATOM      2  C   UNL     1       0.558  -2.975   0.825  0.00  0.00    +0.050 A 
ATOM      3  C   UNL     1       0.871  -4.293   0.470  0.00  0.00    +0.051 A 
ATOM      4  C   UNL     1       1.743  -4.227  -0.580  0.00  0.00    +0.150 A 
ATOM      5  O   UNL     1       1.959  -2.928  -0.870  0.00  0.00    -0.454 OA
ENDROOT
BRANCH   1  10
ATOM      6  C   UNL     1      -0.017   1.375   0.010  0.00  0.00    +0.001 A 
ATOM      7  C   UNL     1       1.170   2.087   0.002  0.00  0.00    +0.001 A 
ATOM      8  C   UNL     1       2.383   1.422  -0.013  0.00  0.00    +0.016 A 
ATOM      9  C   UNL     1       2.417   0.042  -0.021  0.00  0.00    +0.029 A 
ATOM     10  C   UNL     1       1.223  -0.683  -0.013  0.00  0.00    +0.031 A 
ATOM     11  C   UNL     1       0.002  -0.004   0.002  0.00  0.00    +0.012 A 
ATOM     12 BR   UNL     1       4.076  -0.865  -0.042  0.00  0.00    -0.050 Br
ENDBRANCH   1  10
BRANCH   4  13
ATOM     13  C   UNL     1       2.337  -5.372  -1.276  0.00  0.00    +0.199 C 
ATOM     14  N   UNL     1       3.155  -5.177  -2.264  0.00  0.00    -0.092 NA
BRANCH  14  15
ATOM     15  O   UNL     1       3.730  -6.283  -2.937  0.00  0.00    -0.409 OA
ATOM     16  H   UNL     1       4.326  -6.039  -3.658  0.00  0.00    +0.328 HD
ENDBRANCH  14  15
ENDBRANCH   4  13
TORSDOF 3
