REMARK  Name = ZINC40285333
REMARK  3 active torsions:
REMARK  status: ('A' for Active; 'I' for Inactive)
REMARK    1  A    between atoms: C_4  and  C_8
REMARK    2  A    between atoms: C_11  and  O_26
REMARK    3  A    between atoms: N_17  and  C_18
REMARK                            x       y       z     vdW  Elec       q    Type
REMARK                         _______ _______ _______ _____ _____    ______ ____
ROOT
ATOM      1  C   UNL     1       3.715  -0.707  -0.038  0.00  0.00    +0.086 C 
ATOM      2  C   UNL     1       3.821  -1.612   1.194  0.00  0.00    +0.110 C 
ATOM      3  C   UNL     1       3.009  -2.863   1.030  0.00  0.00    +0.190 C 
ATOM      4  N   UNL     1       2.821  -3.447  -0.117  0.00  0.00    -0.197 NA
ATOM      5  C   UNL     1       3.355  -2.886  -1.239  0.00  0.00    +0.165 A 
ATOM      6  C   UNL     1       3.794  -1.585  -1.263  0.00  0.00    +0.094 A 
ATOM      7  N   UNL     1       4.250  -1.323  -2.481  0.00  0.00    -0.237 NA
ATOM      8  C   UNL     1       4.129  -2.390  -3.231  0.00  0.00    +0.206 A 
ATOM      9  N   UNL     1       3.572  -3.395  -2.486  0.00  0.00    -0.281 N 
ENDROOT
BRANCH   1  13
ATOM     10  C   UNL     1      -0.017   1.378   0.010  0.00  0.00    +0.006 A 
ATOM     11  C   UNL     1       1.170   2.086   0.002  0.00  0.00    +0.039 A 
ATOM     12  C   UNL     1       2.379   1.412  -0.013  0.00  0.00    +0.130 A 
ATOM     13  C   UNL     1       2.399   0.028  -0.021  0.00  0.00    +0.032 A 
ATOM     14  C   UNL     1       1.210  -0.681  -0.013  0.00  0.00    +0.130 A 
ATOM     15  C   UNL     1       0.002  -0.004   0.002  0.00  0.00    +0.039 A 
ATOM     16  F   UNL     1       1.228  -2.031  -0.020  0.00  0.00    -0.205 F 
ATOM     17  F   UNL     1       3.539   2.104  -0.022  0.00  0.00    -0.205 F 
ENDBRANCH   1  13
BRANCH   9  18
ATOM     18  C   UNL     1       3.281  -4.696  -2.921  0.00  0.00    +0.087 A 
ATOM     19  C   UNL     1       4.309  -5.553  -3.287  0.00  0.00    +0.067 A 
ATOM     20  C   UNL     1       4.019  -6.837  -3.715  0.00  0.00    +0.126 A 
ATOM     21  C   UNL     1       2.704  -7.266  -3.778  0.00  0.00    +0.041 A 
ATOM     22  C   UNL     1       1.677  -6.414  -3.415  0.00  0.00    +0.043 A 
ATOM     23  C   UNL     1       1.962  -5.132  -2.980  0.00  0.00    +0.147 A 
ATOM     24  F   UNL     1       0.959  -4.302  -2.620  0.00  0.00    -0.203 F 
ATOM     25  F   UNL     1       5.019  -7.671  -4.071  0.00  0.00    -0.205 F 
ENDBRANCH   9  18
BRANCH   3  26
ATOM     26  O   UNL     1       2.445  -3.410   2.128  0.00  0.00    -0.495 OA
ATOM     27  H   UNL     1       1.937  -4.214   1.950  0.00  0.00    +0.293 HD
ENDBRANCH   3  26
TORSDOF 3
