REMARK  Name = ZINC04981935
REMARK  3 active torsions:
REMARK  status: ('A' for Active; 'I' for Inactive)
REMARK    1  A    between atoms: C_3  and  N_8
REMARK    2  A    between atoms: N_11  and  C_12
REMARK    3  A    between atoms: C_12  and  C_18
REMARK                            x       y       z     vdW  Elec       q    Type
REMARK                         _______ _______ _______ _____ _____    ______ ____
ROOT
ATOM      1  C   UNL     1       7.241   1.487   0.160  0.00  0.00    +0.112 C 
ATOM      2  C   UNL     1       7.760   0.731  -1.064  0.00  0.00    +0.035 C 
ATOM      3  C   UNL     1       7.696   1.642  -2.292  0.00  0.00    +0.003 C 
ATOM      4  C   UNL     1       8.562   2.881  -2.053  0.00  0.00    +0.000 C 
ATOM      5  C   UNL     1       8.043   3.637  -0.828  0.00  0.00    +0.003 C 
ATOM      6  C   UNL     1       8.107   2.726   0.399  0.00  0.00    +0.035 C 
ENDROOT
BRANCH   1   7
ATOM      7  C   UNL     1       7.304   0.590   1.369  0.00  0.00    +0.239 C 
ATOM      8  O   UNL     1       7.910  -0.459   1.315  0.00  0.00    -0.273 OA
ATOM      9  N   UNL     1       6.686   0.952   2.511  0.00  0.00    -0.303 N 
ATOM     10  C   UNL     1       5.811   2.131   2.536  0.00  0.00    +0.089 C 
ATOM     11  C   UNL     1       6.128   2.993   3.771  0.00  0.00    -0.059 C 
ATOM     12  N   UNL     1       6.090   2.124   4.941  0.00  0.00    +0.384 N 
ATOM     13  C   UNL     1       6.319   2.803   6.226  0.00  0.00    -0.078 C 
ATOM     14  C   UNL     1       6.733   1.649   7.178  0.00  0.00    -0.020 C 
ATOM     15  C   UNL     1       7.295   0.545   6.245  0.00  0.00    -0.016 C 
ATOM     16  C   UNL     1       7.224   1.166   4.846  0.00  0.00    -0.051 C 
ATOM     17  C   UNL     1       6.879   0.163   3.745  0.00  0.00    +0.092 C 
ATOM     18  H   UNL     1       5.216   1.620   4.965  0.00  0.00    -0.081 HD
ENDBRANCH   1   7
BRANCH   1  22
ATOM     19  N   UNL     1       3.631   1.343  -0.516  0.00  0.00    -0.269 N 
ATOM     20  C   UNL     1       4.891   0.967  -0.223  0.00  0.00    +0.305 C 
ATOM     21  O   UNL     1       5.161  -0.212  -0.096  0.00  0.00    -0.252 OA
ATOM     22  N   UNL     1       5.854   1.898  -0.071  0.00  0.00    -0.285 N 
ATOM     23  H   UNL     1       3.425   2.280  -0.661  0.00  0.00    +0.156 HD
ATOM     24  H   UNL     1       5.628   2.841  -0.115  0.00  0.00    +0.151 HD
BRANCH  19  27
ATOM     25  C   UNL     1       0.326  -0.258  -0.305  0.00  0.00    +0.005 A 
ATOM     26  C   UNL     1       1.325   0.693  -0.211  0.00  0.00    +0.023 A 
ATOM     27  C   UNL     1       2.618   0.382  -0.610  0.00  0.00    +0.037 A 
ATOM     28  C   UNL     1       2.905  -0.885  -1.101  0.00  0.00    +0.061 A 
ATOM     29  C   UNL     1       1.902  -1.832  -1.193  0.00  0.00    +0.125 A 
ATOM     30  C   UNL     1       0.613  -1.518  -0.795  0.00  0.00    +0.038 A 
ATOM     31  F   UNL     1       2.179  -3.065  -1.672  0.00  0.00    -0.205 F 
ENDBRANCH  19  27
ENDBRANCH   1  22
TORSDOF 3
