REMARK  Name = ZINC04881102
REMARK  5 active torsions:
REMARK  status: ('A' for Active; 'I' for Inactive)
REMARK    1  A    between atoms: C_3  and  C_8
REMARK    2  A    between atoms: C_5  and  O_7
REMARK    3  A    between atoms: C_10  and  C_13
REMARK    4  A    between atoms: N_15  and  C_16
REMARK    5  A    between atoms: C_17  and  C_25
REMARK                            x       y       z     vdW  Elec       q    Type
REMARK                         _______ _______ _______ _____ _____    ______ ____
ROOT
ATOM      1  C   UNL     1      -1.417   8.713   0.059  0.00  0.00    +0.270 C 
ATOM      2  O   UNL     1      -2.631   8.689   0.071  0.00  0.00    -0.268 OA
ATOM      3  N   UNL     1      -0.765   9.893   0.059  0.00  0.00    -0.274 N 
ATOM      4  H   UNL     1       0.204   9.911   0.050  0.00  0.00    +0.156 HD
ENDROOT
BRANCH   3   5
ATOM      5  C   UNL     1      -1.482  11.080   0.071  0.00  0.00    +0.090 A 
ATOM      6  C   UNL     1      -0.996  12.379   0.073  0.00  0.00    +0.084 A 
ATOM      7  C   UNL     1      -1.967  13.459   0.086  0.00  0.00    -0.018 A 
ATOM      8  C   UNL     1      -3.261  13.069   0.096  0.00  0.00    -0.004 A 
ATOM      9  S   UNL     1      -3.200  11.300   0.081  0.00  0.00    -0.077 S 
ATOM     10  C   UNL     1      -4.471  13.953   0.111  0.00  0.00    +0.043 C 
ATOM     11  C   UNL     1      -4.027  15.373   0.491  0.00  0.00    +0.005 C 
ATOM     12  C   UNL     1      -2.808  15.753  -0.355  0.00  0.00    +0.005 C 
ATOM     13  C   UNL     1      -1.593  14.936   0.088  0.00  0.00    +0.037 C 
BRANCH   6  14
ATOM     14  C   UNL     1       0.411  12.646   0.061  0.00  0.00    +0.102 C 
ATOM     15  N   UNL     1       1.527  12.858   0.052  0.00  0.00    -0.191 NA
ENDBRANCH   6  14
ENDBRANCH   3   5
BRANCH   1  18
ATOM     16  C   UNL     1      -0.076   5.327   0.031  0.00  0.00    +0.168 A 
ATOM     17  C   UNL     1      -1.184   6.127   0.040  0.00  0.00    +0.086 A 
ATOM     18  C   UNL     1      -0.651   7.443   0.046  0.00  0.00    +0.169 A 
ATOM     19  N   UNL     1       0.654   7.312   0.033  0.00  0.00    -0.073 NA
ATOM     20  O   UNL     1       0.987   6.150   0.024  0.00  0.00    -0.354 OA
BRANCH  16  23
ATOM     21  C   UNL     1      -1.220   1.748   0.017  0.00  0.00    +0.004 A 
ATOM     22  C   UNL     1      -1.247   3.128   0.031  0.00  0.00    +0.012 A 
ATOM     23  C   UNL     1      -0.051   3.848   0.023  0.00  0.00    +0.023 A 
ATOM     24  C   UNL     1       1.167   3.168   0.008  0.00  0.00    +0.057 A 
ATOM     25  C   UNL     1       1.182   1.784   0.000  0.00  0.00    +0.118 A 
ATOM     26  C   UNL     1      -0.013   1.076   0.008  0.00  0.00    +0.045 A 
BRANCH  25  27
ATOM     27  O   UNL     1       2.366   1.118  -0.014  0.00  0.00    -0.507 OA
ATOM     28  H   UNL     1       2.701   0.929  -0.902  0.00  0.00    +0.292 HD
ENDBRANCH  25  27
ENDBRANCH  16  23
ENDBRANCH   1  18
TORSDOF 5
