REMARK  Name = ZINC32619990
REMARK  5 active torsions:
REMARK  status: ('A' for Active; 'I' for Inactive)
REMARK    1  A    between atoms: C_1  and  N_2
REMARK    2  A    between atoms: C_5  and  C_10
REMARK    3  A    between atoms: C_13  and  N_16
REMARK    4  A    between atoms: N_16  and  C_17
REMARK    5  A    between atoms: N_16  and  C_18
REMARK                            x       y       z     vdW  Elec       q    Type
REMARK                         _______ _______ _______ _____ _____    ______ ____
ROOT
ATOM      1  C   UNL     1       6.274   2.712  -1.182  0.00  0.00    +0.139 C 
ATOM      2  N   UNL     1       4.981   2.140  -0.796  0.00  0.00    -0.262 N 
ATOM      3  C   UNL     1       4.201   1.543  -1.751  0.00  0.00    +0.023 C 
ATOM      4  C   UNL     1       3.008   1.003  -1.429  0.00  0.00    +0.037 C 
ATOM      5  C   UNL     1       2.490   1.044  -0.016  0.00  0.00    +0.140 C 
ATOM      6  N   UNL     1       3.417   1.708   0.886  0.00  0.00    -0.288 N 
ATOM      7  C   UNL     1       4.588   2.212   0.483  0.00  0.00    +0.307 C 
ATOM      8  O   UNL     1       5.313   2.751   1.296  0.00  0.00    -0.252 OA
ATOM      9  C   UNL     1       2.208   0.380  -2.406  0.00  0.00    +0.163 C 
ATOM     10  O   UNL     1       1.131  -0.083  -2.087  0.00  0.00    -0.292 OA
ATOM     11  C   UNL     1       2.660   0.277  -3.837  0.00  0.00    +0.080 C 
ATOM     12  C   UNL     1       4.192   0.252  -3.874  0.00  0.00    +0.014 C 
ATOM     13  C   UNL     1       4.713   1.506  -3.171  0.00  0.00    +0.052 C 
ATOM     14  H   UNL     1       3.168   1.812   1.952  0.00  0.00    +0.151 HD
ENDROOT
BRANCH   5  15
ATOM     15  C   UNL     1       1.176   1.783   0.003  0.00  0.00    -0.023 A 
ATOM     16  C   UNL     1      -0.013   1.077   0.010  0.00  0.00    +0.007 A 
ATOM     17  C   UNL     1      -1.218   1.751   0.021  0.00  0.00    +0.023 A 
ATOM     18  C   UNL     1      -1.235   3.140   0.037  0.00  0.00    +0.029 A 
ATOM     19  C   UNL     1      -0.039   3.846   0.030  0.00  0.00    +0.023 A 
ATOM     20  C   UNL     1       1.163   3.166   0.013  0.00  0.00    +0.007 A 
BRANCH  18  21
ATOM     21  N   UNL     1      -2.452   3.825   0.055  0.00  0.00    -0.336 N 
ATOM     22  C   UNL     1      -2.469   5.290   0.066  0.00  0.00    +0.129 C 
ATOM     23  C   UNL     1      -3.713   3.078   0.063  0.00  0.00    +0.129 C 
ENDBRANCH  18  21
ENDBRANCH   5  15
TORSDOF 2
