REMARK  Name = ZINC42888485
REMARK  4 active torsions:
REMARK  status: ('A' for Active; 'I' for Inactive)
REMARK    1  A    between atoms: C_4  and  C_7
REMARK    2  A    between atoms: N_9  and  C_18
REMARK    3  A    between atoms: C_18  and  C_19
REMARK    4  A    between atoms: C_24  and  C_27
REMARK                            x       y       z     vdW  Elec       q    Type
REMARK                         _______ _______ _______ _____ _____    ______ ____
ROOT
ATOM      1  C   UNL     1       5.763  -1.646  -3.046  0.00  0.00    +0.019 C 
ENDROOT
BRANCH   1   4
ATOM      2  C   UNL     1       3.711  -0.707  -0.038  0.00  0.00    +0.187 C 
ATOM      3  C   UNL     1       4.086  -1.022  -1.468  0.00  0.00    -0.028 C 
ATOM      4  N   UNL     1       5.413  -1.608  -1.619  0.00  0.00    +0.391 N 
ATOM      5  C   UNL     1       5.458  -2.970  -1.077  0.00  0.00    -0.038 C 
ATOM      6  C   UNL     1       5.726  -2.894   0.413  0.00  0.00    -0.022 A 
ATOM      7  C   UNL     1       6.930  -3.333   0.923  0.00  0.00    +0.005 A 
ATOM      8  C   UNL     1       7.160  -3.274   2.287  0.00  0.00    +0.000 A 
ATOM      9  C   UNL     1       6.185  -2.778   3.133  0.00  0.00    +0.004 A 
ATOM     10  C   UNL     1       4.981  -2.333   2.622  0.00  0.00    +0.046 A 
ATOM     11  C   UNL     1       4.755  -2.385   1.254  0.00  0.00    +0.123 A 
ATOM     12  O   UNL     1       3.590  -1.909   0.734  0.00  0.00    -0.486 OA
ATOM     13  H   UNL     1       6.085  -1.036  -1.131  0.00  0.00    -0.080 HD
BRANCH   2  17
ATOM     14  C   UNL     1      -0.017   1.378   0.010  0.00  0.00    +0.000 A 
ATOM     15  C   UNL     1       1.171   2.086   0.002  0.00  0.00    +0.000 A 
ATOM     16  C   UNL     1       2.377   1.411  -0.013  0.00  0.00    +0.007 A 
ATOM     17  C   UNL     1       2.396   0.029  -0.020  0.00  0.00    -0.009 A 
ATOM     18  C   UNL     1       1.208  -0.679  -0.012  0.00  0.00    +0.007 A 
ATOM     19  C   UNL     1       0.002  -0.004   0.002  0.00  0.00    +0.000 A 
ENDBRANCH   2  17
ENDBRANCH   1   4
BRANCH   1  20
ATOM     20  C   UNL     1       7.180  -2.135  -3.203  0.00  0.00    +0.199 C 
ATOM     21  O   UNL     1       7.834  -2.424  -2.223  0.00  0.00    -0.278 OA
ATOM     22  N   UNL     1       7.720  -2.252  -4.432  0.00  0.00    -0.303 N 
ATOM     23  C   UNL     1       6.942  -1.900  -5.628  0.00  0.00    +0.108 C 
ATOM     24  C   UNL     1       6.961  -3.088  -6.595  0.00  0.00    +0.030 C 
ATOM     25  C   UNL     1       8.411  -3.485  -6.882  0.00  0.00    +0.058 C 
ATOM     26  C   UNL     1       9.092  -3.911  -5.580  0.00  0.00    +0.030 C 
ATOM     27  C   UNL     1       9.100  -2.727  -4.601  0.00  0.00    +0.108 C 
BRANCH  25  28
ATOM     28  C   UNL     1       8.434  -4.632  -7.859  0.00  0.00    +0.111 A 
ATOM     29  N   UNL     1       8.572  -4.511  -9.147  0.00  0.00    -0.232 NA
ATOM     30  C   UNL     1       8.550  -5.739  -9.726  0.00  0.00    +0.089 A 
ATOM     31  C   UNL     1       8.654  -6.183 -11.047  0.00  0.00    +0.032 A 
ATOM     32  C   UNL     1       8.594  -7.519 -11.323  0.00  0.00    +0.040 A 
ATOM     33  C   UNL     1       8.429  -8.447 -10.302  0.00  0.00    +0.125 A 
ATOM     34  C   UNL     1       8.324  -8.031  -8.990  0.00  0.00    +0.066 A 
ATOM     35  C   UNL     1       8.384  -6.676  -8.692  0.00  0.00    +0.069 A 
ATOM     36  N   UNL     1       8.319  -5.945  -7.523  0.00  0.00    -0.342 N 
ATOM     37  F   UNL     1       8.372  -9.765 -10.595  0.00  0.00    -0.205 F 
ATOM     38  H   UNL     1       8.209  -6.302  -6.628  0.00  0.00    +0.167 HD
ENDBRANCH  25  28
ENDBRANCH   1  20
TORSDOF 4
