REMARK  Name = ZINC65964438
REMARK  6 active torsions:
REMARK  status: ('A' for Active; 'I' for Inactive)
REMARK    1  A    between atoms: C_1  and  C_2
REMARK    2  A    between atoms: C_2  and  C_3
REMARK    3  A    between atoms: C_2  and  N_14
REMARK    4  A    between atoms: C_11  and  C_13
REMARK    5  A    between atoms: C_17  and  C_20
REMARK    6  A    between atoms: N_22  and  C_23
REMARK                            x       y       z     vdW  Elec       q    Type
REMARK                         _______ _______ _______ _____ _____    ______ ____
ROOT
ATOM      1  N   UNL     1       0.541  -0.517  -1.273  0.00  0.00    +0.387 N 
ATOM      2  C   UNL     1       0.463  -1.983  -1.280  0.00  0.00    -0.077 C 
ATOM      3  C   UNL     1       1.153  -2.528  -2.533  0.00  0.00    -0.006 C 
ATOM      4  C   UNL     1       0.454  -1.971  -3.777  0.00  0.00    +0.071 C 
ATOM      5  C   UNL     1       0.477  -0.441  -3.721  0.00  0.00    -0.006 C 
ATOM      6  C   UNL     1      -0.188   0.027  -2.424  0.00  0.00    -0.077 C 
ATOM      7  H   UNL     1       1.509  -0.234  -1.324  0.00  0.00    -0.081 HD
ENDROOT
BRANCH   4   8
ATOM      8  C   UNL     1       1.176  -2.441  -5.013  0.00  0.00    +0.216 C 
ATOM      9  O   UNL     1       2.154  -3.151  -4.912  0.00  0.00    -0.276 OA
ATOM     10  N   UNL     1       0.735  -2.071  -6.232  0.00  0.00    -0.312 N 
ATOM     11  H   UNL     1      -0.046  -1.503  -6.314  0.00  0.00    +0.149 HD
BRANCH  10  12
ATOM     12  C   UNL     1       1.437  -2.528  -7.434  0.00  0.00    +0.073 C 
ATOM     13  C   UNL     1       2.605  -1.585  -7.732  0.00  0.00    +0.022 C 
ATOM     14  C   UNL     1       3.338  -2.063  -8.988  0.00  0.00    +0.002 C 
ATOM     15  C   UNL     1       2.370  -2.067 -10.173  0.00  0.00    +0.000 C 
ATOM     16  C   UNL     1       1.203  -3.009  -9.875  0.00  0.00    +0.002 C 
ATOM     17  C   UNL     1       0.470  -2.532  -8.620  0.00  0.00    +0.022 C 
ENDBRANCH  10  12
ENDBRANCH   4   8
BRANCH   1  19
ATOM     18  C   UNL     1      -0.051   1.527  -0.061  0.00  0.00    -0.004 C 
ATOM     19  C   UNL     1      -0.052  -0.003  -0.031  0.00  0.00    +0.016 C 
BRANCH  19  20
ATOM     20  C   UNL     1       0.754  -0.483   1.148  0.00  0.00    +0.202 C 
ATOM     21  O   UNL     1       1.923  -0.772   1.006  0.00  0.00    -0.277 OA
ATOM     22  N   UNL     1       0.175  -0.592   2.360  0.00  0.00    -0.300 N 
ATOM     23  C   UNL     1      -1.204  -0.132   2.575  0.00  0.00    +0.126 C 
ATOM     24  C   UNL     1      -2.024  -1.294   3.150  0.00  0.00    +0.126 C 
ATOM     25  N   UNL     1      -1.287  -1.874   4.281  0.00  0.00    -0.299 N 
ATOM     26  C   UNL     1       0.093  -2.333   4.067  0.00  0.00    +0.126 C 
ATOM     27  C   UNL     1       0.910  -1.177   3.490  0.00  0.00    +0.126 C 
ATOM     28  C   UNL     1      -1.865  -1.982   5.494  0.00  0.00    +0.213 C 
ATOM     29  O   UNL     1      -3.004  -1.599   5.659  0.00  0.00    -0.276 OA
ATOM     30  C   UNL     1      -1.097  -2.579   6.644  0.00  0.00    +0.109 C 
ENDBRANCH  19  20
ENDBRANCH   1  19
TORSDOF 4
