REMARK  Name = ZINC16034324
REMARK  5 active torsions:
REMARK  status: ('A' for Active; 'I' for Inactive)
REMARK    1  A    between atoms: C_12  and  C_26
REMARK    2  A    between atoms: C_14  and  C_21
REMARK    3  A    between atoms: C_16  and  C_17
REMARK    4  A    between atoms: C_16  and  C_19
REMARK    5  A    between atoms: C_26  and  C_28
REMARK                            x       y       z     vdW  Elec       q    Type
REMARK                         _______ _______ _______ _____ _____    ______ ____
ROOT
ATOM      1  C   UNL     1      -1.217   1.753   0.017  0.00  0.00    +0.001 A 
ATOM      2  C   UNL     1      -1.242   3.138   0.027  0.00  0.00    +0.002 A 
ATOM      3  C   UNL     1      -0.063   3.861   0.020  0.00  0.00    +0.024 A 
ATOM      4  C   UNL     1       1.150   3.201   0.009  0.00  0.00    +0.038 A 
ATOM      5  C   UNL     1       1.178   1.789   0.000  0.00  0.00    -0.004 A 
ATOM      6  C   UNL     1      -0.013   1.076   0.008  0.00  0.00    +0.010 A 
ATOM      7  C   UNL     1       2.494   1.107  -0.023  0.00  0.00    +0.007 C 
ATOM      8  C   UNL     1       3.555   1.782   0.454  0.00  0.00    -0.002 C 
ATOM      9  C   UNL     1       3.290   3.168   0.963  0.00  0.00    +0.132 C 
ATOM     10  N   UNL     1       2.366   3.840   0.012  0.00  0.00    -0.309 N 
ATOM     11  C   UNL     1       2.434   5.261   0.337  0.00  0.00    +0.158 C 
ATOM     12  C   UNL     1       3.862   5.501   0.888  0.00  0.00    +0.119 C 
ATOM     13  C   UNL     1       4.518   4.093   0.928  0.00  0.00    +0.176 C 
ENDROOT
BRANCH  12  14
ATOM     14  C   UNL     1       3.796   6.088   2.275  0.00  0.00    +0.113 A 
ATOM     15  C   UNL     1       4.352   7.249   2.664  0.00  0.00    +0.045 A 
ATOM     16  C   UNL     1       4.046   7.410   4.035  0.00  0.00    +0.041 A 
ATOM     17  C   UNL     1       3.321   6.338   4.401  0.00  0.00    +0.195 A 
ATOM     18  O   UNL     1       3.168   5.543   3.329  0.00  0.00    -0.467 OA
ENDBRANCH  12  14
BRANCH  13  19
ATOM     19  C   UNL     1       5.335   3.928   2.141  0.00  0.00    +0.087 C 
ATOM     20  N   UNL     1       5.966   3.800   3.078  0.00  0.00    -0.195 NA
ENDBRANCH  13  19
BRANCH  13  21
ATOM     21  C   UNL     1       5.323   3.853  -0.281  0.00  0.00    +0.087 C 
ATOM     22  N   UNL     1       5.944   3.667  -1.214  0.00  0.00    -0.195 NA
ENDBRANCH  13  21
BRANCH  11  23
ATOM     23  C   UNL     1       2.209   6.089  -0.902  0.00  0.00    +0.184 C 
ATOM     24  O   UNL     1       2.216   5.560  -1.994  0.00  0.00    -0.290 OA
BRANCH  23  25
ATOM     25  C   UNL     1       1.982   7.537  -0.788  0.00  0.00    +0.019 A 
ATOM     26  C   UNL     1       1.969   8.149   0.470  0.00  0.00    +0.014 A 
ATOM     27  C   UNL     1       1.762   9.507   0.570  0.00  0.00    +0.039 A 
ATOM     28  C   UNL     1       1.556  10.266  -0.573  0.00  0.00    +0.123 A 
ATOM     29  C   UNL     1       1.562   9.664  -1.823  0.00  0.00    +0.039 A 
ATOM     30  C   UNL     1       1.774   8.308  -1.937  0.00  0.00    +0.014 A 
ATOM     31  F   UNL     1       1.347  11.597  -0.468  0.00  0.00    -0.205 F 
ENDBRANCH  23  25
ENDBRANCH  11  23
TORSDOF 5
