REMARK  Name = ZINC10593392
REMARK  4 active torsions:
REMARK  status: ('A' for Active; 'I' for Inactive)
REMARK    1  A    between atoms: C_5  and  C_7
REMARK    2  A    between atoms: N_9  and  C_10
REMARK    3  A    between atoms: C_10  and  C_11
REMARK    4  A    between atoms: N_15  and  C_16
REMARK                            x       y       z     vdW  Elec       q    Type
REMARK                         _______ _______ _______ _____ _____    ______ ____
ROOT
ATOM      1  C   UNL     1      -0.092   1.155  -0.061  0.00  0.00    +0.182 C 
ENDROOT
BRANCH   1   2
ATOM      2  C   UNL     1      -0.752   1.601   1.219  0.00  0.00    +0.174 A 
ATOM      3  N   UNL     1      -1.756   1.017   1.818  0.00  0.00    -0.111 NA
ATOM      4  N   UNL     1      -2.078   1.651   2.887  0.00  0.00    -0.023 NA
ATOM      5  N   UNL     1      -1.310   2.675   3.045  0.00  0.00    -0.039 NA
ATOM      6  N   UNL     1      -0.412   2.676   1.963  0.00  0.00    -0.195 N 
BRANCH   6   7
ATOM      7  C   UNL     1       0.615   3.597   1.709  0.00  0.00    +0.072 A 
ATOM      8  C   UNL     1       1.418   4.048   2.749  0.00  0.00    +0.028 A 
ATOM      9  C   UNL     1       2.432   4.951   2.497  0.00  0.00    +0.005 A 
ATOM     10  C   UNL     1       2.642   5.416   1.212  0.00  0.00    +0.038 A 
ATOM     11  C   UNL     1       1.841   4.972   0.173  0.00  0.00    +0.125 A 
ATOM     12  C   UNL     1       0.828   4.064   0.419  0.00  0.00    +0.066 A 
ATOM     13  F   UNL     1       2.049   5.428  -1.082  0.00  0.00    -0.205 F 
ENDBRANCH   6   7
ENDBRANCH   1   2
BRANCH   1  16
ATOM     14  C   UNL     1      -0.432   1.407  -2.460  0.00  0.00    +0.245 C 
ATOM     15  O   UNL     1       0.558   0.725  -2.642  0.00  0.00    -0.270 OA
ATOM     16  N   UNL     1      -0.841   1.680  -1.205  0.00  0.00    -0.304 N 
ATOM     17  H   UNL     1      -1.631   2.223  -1.060  0.00  0.00    +0.149 HD
BRANCH  14  22
ATOM     18  C   UNL     1      -3.027   3.208  -4.491  0.00  0.00    +0.001 A 
ATOM     19  C   UNL     1      -2.605   2.927  -5.779  0.00  0.00    +0.001 A 
ATOM     20  C   UNL     1      -1.479   2.152  -5.991  0.00  0.00    +0.016 A 
ATOM     21  C   UNL     1      -0.767   1.655  -4.917  0.00  0.00    +0.030 A 
ATOM     22  C   UNL     1      -1.188   1.936  -3.615  0.00  0.00    +0.051 A 
ATOM     23  C   UNL     1      -2.329   2.714  -3.409  0.00  0.00    +0.014 A 
ATOM     24 BR   UNL     1       0.772   0.596  -5.208  0.00  0.00    -0.050 Br
ENDBRANCH  14  22
ENDBRANCH   1  16
TORSDOF 4
