REMARK  Name = ZINC40115401
REMARK  9 active torsions:
REMARK  status: ('A' for Active; 'I' for Inactive)
REMARK    1  A    between atoms: C_1  and  C_2
REMARK    2  A    between atoms: C_2  and  C_3
REMARK    3  A    between atoms: C_3  and  C_4
REMARK    4  A    between atoms: C_4  and  O_5
REMARK    5  A    between atoms: O_5  and  C_6
REMARK    6  A    between atoms: C_6  and  C_8
REMARK    7  A    between atoms: C_11  and  N_14
REMARK    8  A    between atoms: C_15  and  C_17
REMARK    9  A    between atoms: C_18  and  C_27
REMARK                            x       y       z     vdW  Elec       q    Type
REMARK                         _______ _______ _______ _____ _____    ______ ____
ROOT
ATOM      1  N   UNL     1       4.104  -5.917  -7.151  0.00  0.00    -0.279 N 
ATOM      2  C   UNL     1       3.794  -7.152  -7.593  0.00  0.00    +0.284 C 
ATOM      3  O   UNL     1       2.893  -7.779  -7.068  0.00  0.00    -0.266 OA
ATOM      4  H   UNL     1       4.769  -5.387  -7.617  0.00  0.00    +0.155 HD
ENDROOT
BRANCH   2   5
ATOM      5  C   UNL     1       4.545  -7.741  -8.710  0.00  0.00    +0.194 A 
ATOM      6  C   UNL     1       4.318  -8.971  -9.242  0.00  0.00    +0.008 A 
ATOM      7  C   UNL     1       5.293  -9.132 -10.320  0.00  0.00    +0.024 A 
ATOM      8  C   UNL     1       5.576 -10.152 -11.232  0.00  0.00    +0.013 A 
ATOM      9  C   UNL     1       6.583  -9.987 -12.140  0.00  0.00    +0.016 A 
ATOM     10  C   UNL     1       7.327  -8.814 -12.162  0.00  0.00    +0.021 A 
ATOM     11  C   UNL     1       7.063  -7.796 -11.270  0.00  0.00    +0.062 A 
ATOM     12  C   UNL     1       6.043  -7.941 -10.337  0.00  0.00    +0.137 A 
ATOM     13  O   UNL     1       5.559  -7.141  -9.367  0.00  0.00    -0.450 OA
ATOM     14 BR   UNL     1       8.716  -8.611 -13.428  0.00  0.00    -0.050 Br
ATOM     15  C   UNL     1       3.274  -9.967  -8.808  0.00  0.00    +0.048 C 
ENDBRANCH   2   5
BRANCH   1  19
ATOM     16  C   UNL     1       2.203  -4.377  -3.781  0.00  0.00    +0.059 A 
ATOM     17  C   UNL     1       2.576  -3.526  -4.826  0.00  0.00    +0.017 A 
ATOM     18  C   UNL     1       3.205  -4.038  -5.938  0.00  0.00    +0.024 A 
ATOM     19  C   UNL     1       3.468  -5.402  -6.023  0.00  0.00    +0.034 A 
ATOM     20  C   UNL     1       3.098  -6.252  -4.986  0.00  0.00    +0.024 A 
ATOM     21  C   UNL     1       2.475  -5.746  -3.868  0.00  0.00    +0.017 A 
BRANCH  16  22
ATOM     22  C   UNL     1       1.530  -3.831  -2.588  0.00  0.00    +0.339 C 
ATOM     23  O   UNL     1       1.211  -4.572  -1.679  0.00  0.00    -0.245 OA
BRANCH  22  24
ATOM     24  O   UNL     1       1.269  -2.512  -2.506  0.00  0.00    -0.461 OA
BRANCH  24  25
ATOM     25  C   UNL     1       0.614  -2.053  -1.321  0.00  0.00    +0.232 C 
BRANCH  25  26
ATOM     26  C   UNL     1       0.404  -0.540  -1.409  0.00  0.00    +0.041 C 
BRANCH  26  28
ATOM     27  C   UNL     1      -0.508   1.465  -0.229  0.00  0.00    +0.004 C 
ATOM     28  C   UNL     1      -0.297  -0.048  -0.141  0.00  0.00    -0.000 C 
ENDBRANCH  26  28
ENDBRANCH  25  26
ENDBRANCH  24  25
ENDBRANCH  22  24
ENDBRANCH  16  22
ENDBRANCH   1  19
TORSDOF 7
