REMARK  Name = ZINC05372816
REMARK  7 active torsions:
REMARK  status: ('A' for Active; 'I' for Inactive)
REMARK    1  A    between atoms: C_1  and  C_2
REMARK    2  A    between atoms: N_5  and  S_11
REMARK    3  A    between atoms: C_7  and  C_10
REMARK    4  A    between atoms: S_11  and  C_14
REMARK    5  A    between atoms: C_17  and  C_20
REMARK    6  A    between atoms: N_22  and  C_23
REMARK    7  A    between atoms: C_24  and  C_28
REMARK                            x       y       z     vdW  Elec       q    Type
REMARK                         _______ _______ _______ _____ _____    ______ ____
ROOT
ATOM      1  C   UNL     1       1.742   7.995   1.879  0.00  0.00    +0.106 A 
ATOM      2  C   UNL     1       0.414   7.609   1.919  0.00  0.00    +0.029 A 
ATOM      3  C   UNL     1       0.054   6.328   1.556  0.00  0.00    +0.015 A 
ATOM      4  C   UNL     1       1.033   5.420   1.148  0.00  0.00    +0.037 A 
ATOM      5  C   UNL     1       2.372   5.815   1.115  0.00  0.00    +0.015 A 
ATOM      6  C   UNL     1       2.718   7.101   1.476  0.00  0.00    +0.029 A 
ENDROOT
BRANCH   4   7
ATOM      7  C   UNL     1       0.655   4.046   0.757  0.00  0.00    +0.250 C 
ATOM      8  O   UNL     1      -0.511   3.704   0.791  0.00  0.00    -0.270 OA
ATOM      9  N   UNL     1       1.603   3.172   0.364  0.00  0.00    -0.252 N 
ATOM     10  H   UNL     1       2.533   3.445   0.337  0.00  0.00    +0.158 HD
BRANCH   9  11
ATOM     11  C   UNL     1       1.250   1.891   0.000  0.00  0.00    +0.200 C 
ATOM     12  C   UNL     1       2.143   0.953  -0.407  0.00  0.00    +0.090 C 
ATOM     13  C   UNL     1       1.351  -0.313  -0.692  0.00  0.00    +0.092 C 
ATOM     14  C   UNL     1       0.002  -0.004   0.002  0.00  0.00    +0.236 C 
ATOM     15  O   UNL     1      -0.017   1.435   0.010  0.00  0.00    -0.478 OA
BRANCH  12  16
ATOM     16  C   UNL     1       3.558   1.122  -0.543  0.00  0.00    +0.100 C 
ATOM     17  N   UNL     1       4.681   1.257  -0.651  0.00  0.00    -0.191 NA
ENDBRANCH  12  16
ENDBRANCH   9  11
ENDBRANCH   4   7
BRANCH   1  18
ATOM     18  S   UNL     1       2.193   9.634   2.344  0.00  0.00    +0.061 S 
ATOM     19  O   UNL     1       3.429   9.914   1.699  0.00  0.00    -0.153 OA
ATOM     20  O   UNL     1       1.038  10.441   2.159  0.00  0.00    -0.153 OA
BRANCH  18  24
ATOM     21  C   UNL     1       5.108   8.069   6.235  0.00  0.00    +0.039 C 
ATOM     22  C   UNL     1       3.752   8.242   5.548  0.00  0.00    +0.131 C 
ATOM     23  C   UNL     1       3.853   9.338   4.482  0.00  0.00    +0.140 C 
ATOM     24  N   UNL     1       2.501   9.614   3.970  0.00  0.00    -0.172 NA
ATOM     25  C   UNL     1       1.433   9.879   4.947  0.00  0.00    +0.140 C 
ATOM     26  C   UNL     1       1.448   8.751   5.991  0.00  0.00    +0.131 C 
ATOM     27  O   UNL     1       2.771   8.617   6.518  0.00  0.00    -0.371 OA
ATOM     28  C   UNL     1       1.025   7.436   5.334  0.00  0.00    +0.039 C 
ENDBRANCH  18  24
ENDBRANCH   1  18
TORSDOF 5
