REMARK  Name = ZINC03101011
REMARK  9 active torsions:
REMARK  status: ('A' for Active; 'I' for Inactive)
REMARK    1  A    between atoms: C_1  and  C_2
REMARK    2  A    between atoms: C_3  and  C_14
REMARK    3  A    between atoms: C_4  and  O_13
REMARK    4  A    between atoms: N_5  and  C_7
REMARK    5  A    between atoms: N_15  and  N_16
REMARK    6  A    between atoms: C_17  and  C_19
REMARK    7  A    between atoms: C_19  and  C_20
REMARK    8  A    between atoms: C_19  and  C_26
REMARK    9  A    between atoms: C_19  and  O_32
REMARK                            x       y       z     vdW  Elec       q    Type
REMARK                         _______ _______ _______ _____ _____    ______ ____
ROOT
ATOM      1  N   UNL     1       0.750  -1.943  -1.340  0.00  0.00    -0.204 N 
ATOM      2  C   UNL     1       0.083  -0.772  -1.292  0.00  0.00    +0.273 C 
ATOM      3  O   UNL     1      -0.451  -0.337  -2.290  0.00  0.00    -0.270 OA
ATOM      4  H   UNL     1       1.177  -2.291  -0.541  0.00  0.00    +0.177 HD
ENDROOT
BRANCH   1   6
ATOM      5  C   UNL     1       1.468  -3.785  -2.589  0.00  0.00    +0.145 C 
ATOM      6  N   UNL     1       0.826  -2.657  -2.543  0.00  0.00    -0.187 NA
BRANCH   5   9
ATOM      7  C   UNL     1       2.957  -6.552  -3.011  0.00  0.00    +0.068 C 
ATOM      8  C   UNL     1       2.206  -5.769  -4.057  0.00  0.00    +0.073 A 
ATOM      9  C   UNL     1       1.547  -4.536  -3.853  0.00  0.00    +0.079 A 
ATOM     10  C   UNL     1       0.984  -4.168  -5.066  0.00  0.00    +0.225 A 
ATOM     11  N   UNL     1       1.298  -5.133  -5.961  0.00  0.00    -0.200 N 
ATOM     12  N   UNL     1       2.053  -6.113  -5.307  0.00  0.00    -0.168 NA
BRANCH  11  13
ATOM     13  C   UNL     1       0.925  -5.150  -7.312  0.00  0.00    +0.069 A 
ATOM     14  C   UNL     1      -0.307  -4.642  -7.700  0.00  0.00    +0.028 A 
ATOM     15  C   UNL     1      -0.669  -4.657  -9.033  0.00  0.00    +0.002 A 
ATOM     16  C   UNL     1       0.189  -5.187  -9.979  0.00  0.00    +0.000 A 
ATOM     17  C   UNL     1       1.415  -5.698  -9.594  0.00  0.00    +0.002 A 
ATOM     18  C   UNL     1       1.785  -5.681  -8.264  0.00  0.00    +0.028 A 
ENDBRANCH  11  13
BRANCH  10  19
ATOM     19  O   UNL     1       0.258  -3.050  -5.310  0.00  0.00    -0.492 OA
ATOM     20  H   UNL     1       0.786  -2.291  -5.593  0.00  0.00    +0.294 HD
ENDBRANCH  10  19
ENDBRANCH   5   9
ENDBRANCH   1   6
BRANCH   2  21
ATOM     21  C   UNL     1       0.002  -0.004   0.002  0.00  0.00    +0.194 C 
BRANCH  21  22
ATOM     22  C   UNL     1      -0.216   1.457  -0.294  0.00  0.00    -0.003 A 
ATOM     23  C   UNL     1      -1.384   1.872  -0.906  0.00  0.00    +0.007 A 
ATOM     24  C   UNL     1      -1.587   3.213  -1.173  0.00  0.00    +0.000 A 
ATOM     25  C   UNL     1      -0.616   4.138  -0.839  0.00  0.00    +0.000 A 
ATOM     26  C   UNL     1       0.555   3.723  -0.232  0.00  0.00    +0.000 A 
ATOM     27  C   UNL     1       0.755   2.383   0.040  0.00  0.00    +0.007 A 
ENDBRANCH  21  22
BRANCH  21  28
ATOM     28  C   UNL     1      -1.147  -0.527   0.825  0.00  0.00    -0.003 A 
ATOM     29  C   UNL     1      -2.340  -0.863   0.212  0.00  0.00    +0.007 A 
ATOM     30  C   UNL     1      -3.392  -1.347   0.967  0.00  0.00    +0.000 A 
ATOM     31  C   UNL     1      -3.255  -1.485   2.335  0.00  0.00    +0.000 A 
ATOM     32  C   UNL     1      -2.065  -1.143   2.949  0.00  0.00    +0.000 A 
ATOM     33  C   UNL     1      -1.010  -0.664   2.194  0.00  0.00    +0.007 A 
ENDBRANCH  21  28
BRANCH  21  34
ATOM     34  O   UNL     1       1.221  -0.166   0.730  0.00  0.00    -0.371 OA
ATOM     35  H   UNL     1       2.005   0.150   0.259  0.00  0.00    +0.212 HD
ENDBRANCH  21  34
ENDBRANCH   2  21
TORSDOF 8
