REMARK  Name = ZINC41288936
REMARK  5 active torsions:
REMARK  status: ('A' for Active; 'I' for Inactive)
REMARK    1  A    between atoms: C_1  and  C_2
REMARK    2  A    between atoms: C_3  and  O_18
REMARK    3  A    between atoms: C_10  and  C_11
REMARK    4  A    between atoms: O_18  and  C_19
REMARK    5  A    between atoms: C_19  and  C_21
REMARK                            x       y       z     vdW  Elec       q    Type
REMARK                         _______ _______ _______ _____ _____    ______ ____
ROOT
ATOM      1  C   UNL     1      -0.117   1.520  -0.003  0.00  0.00    +0.051 C 
ATOM      2  C   UNL     1      -0.048   0.014   0.002  0.00  0.00    +0.035 A 
ATOM      3  C   UNL     1       0.004  -0.681  -1.196  0.00  0.00    +0.138 A 
ATOM      4  C   UNL     1       0.068  -2.072  -1.204  0.00  0.00    +0.047 A 
ATOM      5  C   UNL     1       0.081  -2.767  -0.027  0.00  0.00    +0.019 A 
ATOM      6  C   UNL     1       0.030  -2.080   1.185  0.00  0.00    +0.068 A 
ATOM      7  C   UNL     1      -0.029  -0.677   1.205  0.00  0.00    +0.146 A 
ATOM      8  O   UNL     1      -0.062  -0.261   2.490  0.00  0.00    -0.451 OA
ATOM      9  C   UNL     1      -0.023  -1.305   3.349  0.00  0.00    +0.179 C 
ATOM     10  C   UNL     1      -0.043  -1.218   4.711  0.00  0.00    +0.096 C 
ATOM     11  C   UNL     1       0.027  -2.509   2.595  0.00  0.00    +0.232 C 
ATOM     12  O   UNL     1       0.072  -3.650   3.023  0.00  0.00    -0.283 OA
ENDROOT
BRANCH  10  13
ATOM     13  C   UNL     1      -0.108   0.046   5.337  0.00  0.00    +0.131 A 
ATOM     14  C   UNL     1      -0.129   0.281   6.699  0.00  0.00    +0.049 A 
ATOM     15  C   UNL     1      -0.198   1.673   6.862  0.00  0.00    +0.042 A 
ATOM     16  C   UNL     1      -0.216   2.221   5.626  0.00  0.00    +0.195 A 
ATOM     17  O   UNL     1      -0.156   1.242   4.712  0.00  0.00    -0.463 OA
ENDBRANCH  10  13
BRANCH   3  18
ATOM     18  O   UNL     1      -0.009  -0.001  -2.371  0.00  0.00    -0.425 OA
BRANCH  18  19
ATOM     19  C   UNL     1       1.150   0.512  -2.815  0.00  0.00    +0.315 C 
ATOM     20  O   UNL     1       2.179   0.278  -2.227  0.00  0.00    -0.250 OA
BRANCH  19  21
ATOM     21  C   UNL     1       1.167   1.380  -4.046  0.00  0.00    +0.098 C 
ATOM     22  C   UNL     1       0.634   0.584  -5.239  0.00  0.00    +0.015 C 
ATOM     23  C   UNL     1       0.651   1.465  -6.490  0.00  0.00    +0.001 C 
ATOM     24  C   UNL     1       2.085   1.916  -6.777  0.00  0.00    +0.000 C 
ATOM     25  C   UNL     1       2.618   2.712  -5.584  0.00  0.00    +0.001 C 
ATOM     26  C   UNL     1       2.600   1.831  -4.333  0.00  0.00    +0.015 C 
ENDBRANCH  19  21
ENDBRANCH  18  19
ENDBRANCH   3  18
TORSDOF 4
