REMARK  Name = ZINC13079531
REMARK  6 active torsions:
REMARK  status: ('A' for Active; 'I' for Inactive)
REMARK    1  A    between atoms: C_1  and  C_2
REMARK    2  A    between atoms: C_2  and  C_4
REMARK    3  A    between atoms: C_2  and  N_12
REMARK    4  A    between atoms: N_12  and  C_13
REMARK    5  A    between atoms: C_16  and  C_22
REMARK    6  A    between atoms: C_18  and  N_19
REMARK                            x       y       z     vdW  Elec       q    Type
REMARK                         _______ _______ _______ _____ _____    ______ ____
ROOT
ATOM      1  N   UNL     1      -1.214   2.005  -0.495  0.00  0.00    -0.335 N 
ATOM      2  H   UNL     1      -2.035   1.493  -0.561  0.00  0.00    +0.147 HD
ENDROOT
BRANCH   1   3
ATOM      3  C   UNL     1      -0.009   1.359  -0.247  0.00  0.00    +0.058 A 
ATOM      4  C   UNL     1       1.183   2.079  -0.270  0.00  0.00    +0.026 A 
ATOM      5  C   UNL     1       2.371   1.448  -0.033  0.00  0.00    +0.017 A 
ATOM      6  C   UNL     1       2.394   0.075   0.232  0.00  0.00    +0.065 A 
ATOM      7  C   UNL     1       1.199  -0.650   0.255  0.00  0.00    +0.049 A 
ATOM      8  C   UNL     1       0.005  -0.008   0.016  0.00  0.00    +0.148 A 
BRANCH   8   9
ATOM      9  N   UNL     1      -1.264  -0.771   0.040  0.00  0.00    +0.058 N 
ATOM     10  O   UNL     1      -2.271  -0.264   0.501  0.00  0.00    -0.126 OA
ATOM     11  O   UNL     1      -1.301  -1.905  -0.403  0.00  0.00    -0.126 OA
ENDBRANCH   8   9
BRANCH   6  12
ATOM     12  C   UNL     1       3.676  -0.606   0.487  0.00  0.00    +0.387 C 
ATOM     13  O   UNL     1       3.695  -1.799   0.717  0.00  0.00    -0.241 OA
ATOM     14  O   UNL     1       4.827   0.094   0.465  0.00  0.00    -0.241 OA
ENDBRANCH   6  12
ENDBRANCH   1   3
BRANCH   1  16
ATOM     15  C   UNL     1      -1.340   4.124   0.721  0.00  0.00    +0.033 C 
ATOM     16  C   UNL     1      -1.245   3.461  -0.655  0.00  0.00    +0.099 C 
BRANCH  16  17
ATOM     17  C   UNL     1      -2.442   3.850  -1.484  0.00  0.00    -0.009 A 
ATOM     18  C   UNL     1      -3.548   3.021  -1.532  0.00  0.00    +0.008 A 
ATOM     19  C   UNL     1      -4.648   3.380  -2.288  0.00  0.00    +0.020 A 
ATOM     20  C   UNL     1      -4.640   4.564  -3.005  0.00  0.00    +0.042 A 
ATOM     21  C   UNL     1      -3.532   5.390  -2.961  0.00  0.00    +0.040 A 
ATOM     22  C   UNL     1      -2.433   5.034  -2.200  0.00  0.00    +0.047 A 
ATOM     23 CL   UNL     1      -1.042   6.071  -2.144  0.00  0.00    -0.083 Cl
ATOM     24 CL   UNL     1      -6.020   5.011  -3.958  0.00  0.00    -0.083 Cl
ENDBRANCH  16  17
ENDBRANCH   1  16
TORSDOF 5
