REMARK  Name = ZINC66219838
REMARK  11 active torsions:
REMARK  status: ('A' for Active; 'I' for Inactive)
REMARK    1  A    between atoms: C_1  and  C_2
REMARK    2  A    between atoms: C_6  and  N_8
REMARK    3  A    between atoms: N_8  and  C_9
REMARK    4  A    between atoms: C_10  and  C_12
REMARK    5  A    between atoms: N_14  and  C_15
REMARK    6  A    between atoms: C_15  and  C_16
REMARK    7  A    between atoms: C_23  and  O_25
REMARK    8  A    between atoms: O_25  and  C_26
REMARK    9  A    between atoms: C_26  and  C_27
REMARK   10  A    between atoms: C_26  and  C_28
REMARK   11  A    between atoms: C_26  and  C_29
REMARK                            x       y       z     vdW  Elec       q    Type
REMARK                         _______ _______ _______ _____ _____    ______ ____
ROOT
ATOM      1  C   UNL     1      -0.180  -5.077   3.389  0.00  0.00    +0.300 C 
ATOM      2  O   UNL     1      -0.091  -4.634   4.516  0.00  0.00    -0.265 OA
ATOM      3  N   UNL     1      -0.389  -6.394   3.197  0.00  0.00    -0.307 N 
ATOM      4  H   UNL     1      -0.459  -6.747   2.296  0.00  0.00    +0.149 HD
ENDROOT
BRANCH   1   7
ATOM      5  N   UNL     1       0.067  -2.832   2.408  0.00  0.00    -0.267 N 
ATOM      6  C   UNL     1       0.213  -2.299   3.764  0.00  0.00    +0.139 C 
ATOM      7  C   UNL     1      -0.057  -4.161   2.216  0.00  0.00    +0.305 C 
ATOM      8  O   UNL     1      -0.069  -4.612   1.089  0.00  0.00    -0.265 OA
BRANCH   5  14
ATOM      9  C   UNL     1      -0.006   1.756   0.648  0.00  0.00    +0.044 C 
ATOM     10  C   UNL     1       0.020   0.265   0.430  0.00  0.00    -0.049 A 
ATOM     11  C   UNL     1       0.033  -0.245  -0.855  0.00  0.00    +0.003 A 
ATOM     12  C   UNL     1       0.057  -1.612  -1.059  0.00  0.00    +0.002 A 
ATOM     13  C   UNL     1       0.069  -2.473   0.021  0.00  0.00    +0.023 A 
ATOM     14  C   UNL     1       0.056  -1.964   1.313  0.00  0.00    +0.037 A 
ATOM     15  C   UNL     1       0.037  -0.590   1.514  0.00  0.00    +0.027 A 
ENDBRANCH   5  14
ENDBRANCH   1   7
BRANCH   3  16
ATOM     16  C   UNL     1      -0.509  -7.292   4.348  0.00  0.00    +0.109 C 
BRANCH  16  17
ATOM     17  C   UNL     1      -0.740  -8.723   3.856  0.00  0.00    +0.024 C 
ATOM     18  C   UNL     1      -0.743  -9.679   5.051  0.00  0.00    +0.008 C 
ATOM     19  C   UNL     1      -0.942 -11.114   4.557  0.00  0.00    +0.019 C 
ATOM     20  C   UNL     1      -2.295 -11.223   3.847  0.00  0.00    +0.111 C 
ATOM     21  N   UNL     1      -2.357 -10.206   2.788  0.00  0.00    -0.267 N 
ATOM     22  C   UNL     1      -2.091  -8.804   3.138  0.00  0.00    +0.116 C 
ATOM     23  C   UNL     1      -2.651 -10.553   1.520  0.00  0.00    +0.403 C 
ATOM     24  O   UNL     1      -2.699  -9.703   0.653  0.00  0.00    -0.226 OA
BRANCH  23  25
ATOM     25  O   UNL     1      -2.892 -11.842   1.213  0.00  0.00    -0.445 OA
BRANCH  25  26
ATOM     26  C   UNL     1      -3.198 -12.138  -0.151  0.00  0.00    +0.107 C 
ATOM     27  C   UNL     1      -2.026 -11.716  -1.040  0.00  0.00    +0.055 C 
ATOM     28  C   UNL     1      -3.440 -13.641  -0.305  0.00  0.00    +0.055 C 
ATOM     29  C   UNL     1      -4.455 -11.374  -0.570  0.00  0.00    +0.055 C 
ENDBRANCH  25  26
ENDBRANCH  23  25
ENDBRANCH  16  17
ENDBRANCH   3  16
TORSDOF 6
