REMARK  Name = ZINC02273463
REMARK  10 active torsions:
REMARK  status: ('A' for Active; 'I' for Inactive)
REMARK    1  A    between atoms: C_1  and  C_2
REMARK    2  A    between atoms: C_3  and  C_25
REMARK    3  A    between atoms: C_14  and  C_18
REMARK    4  A    between atoms: C_15  and  N_17
REMARK    5  A    between atoms: C_18  and  O_20
REMARK    6  A    between atoms: O_20  and  C_21
REMARK    7  A    between atoms: C_21  and  C_22
REMARK    8  A    between atoms: C_21  and  C_23
REMARK    9  A    between atoms: C_21  and  C_24
REMARK   10  A    between atoms: C_25  and  C_27
REMARK                            x       y       z     vdW  Elec       q    Type
REMARK                         _______ _______ _______ _____ _____    ______ ____
ROOT
ATOM      1  C   UNL     1      -2.617   3.654   1.035  0.00  0.00    +0.086 C 
ATOM      2  C   UNL     1      -1.279   3.200   0.511  0.00  0.00    +0.112 C 
ATOM      3  C   UNL     1      -0.308   4.113   0.327  0.00  0.00    +0.057 C 
ATOM      4  C   UNL     1       1.042   3.706  -0.188  0.00  0.00    +0.141 C 
ATOM      5  C   UNL     1       1.220   4.154  -1.617  0.00  0.00    -0.002 A 
ATOM      6  C   UNL     1       0.551   3.862  -2.784  0.00  0.00    +0.007 A 
ATOM      7  C   UNL     1       0.955   4.440  -3.975  0.00  0.00    +0.000 A 
ATOM      8  C   UNL     1       2.032   5.308  -3.988  0.00  0.00    +0.002 A 
ATOM      9  C   UNL     1       2.704   5.603  -2.820  0.00  0.00    +0.023 A 
ATOM     10  C   UNL     1       2.303   5.026  -1.617  0.00  0.00    +0.038 A 
ATOM     11  N   UNL     1       2.812   5.163  -0.325  0.00  0.00    -0.284 N 
ATOM     12  C   UNL     1       2.132   4.426   0.571  0.00  0.00    +0.237 C 
ATOM     13  O   UNL     1       2.353   4.352   1.761  0.00  0.00    -0.274 OA
ATOM     14  C   UNL     1       1.222   2.220  -0.075  0.00  0.00    +0.117 C 
ATOM     15  C   UNL     1       0.150   1.410   0.135  0.00  0.00    +0.195 C 
ATOM     16  O   UNL     1      -1.097   1.899   0.238  0.00  0.00    -0.446 OA
ATOM     17  H   UNL     1       3.570   5.725  -0.099  0.00  0.00    +0.155 HD
ENDROOT
BRANCH  15  18
ATOM     18  N   UNL     1       0.346   0.059   0.237  0.00  0.00    -0.329 N 
ATOM     19  H   UNL     1       1.154  -0.284   0.650  0.00  0.00    +0.145 HD
ATOM     20  H   UNL     1      -0.324  -0.555  -0.103  0.00  0.00    +0.145 HD
ENDBRANCH  15  18
BRANCH   3  21
ATOM     21  C   UNL     1      -0.561   5.465   0.623  0.00  0.00    +0.161 C 
ATOM     22  O   UNL     1      -0.745   5.812   1.772  0.00  0.00    -0.293 OA
ATOM     23  C   UNL     1      -0.605   6.484  -0.488  0.00  0.00    +0.091 C 
ENDBRANCH   3  21
BRANCH  14  24
ATOM     24  C   UNL     1       2.505   1.662  -0.186  0.00  0.00    +0.342 C 
ATOM     25  O   UNL     1       2.644   0.452  -0.201  0.00  0.00    -0.245 OA
BRANCH  24  26
ATOM     26  O   UNL     1       3.586   2.468  -0.276  0.00  0.00    -0.455 OA
BRANCH  26  27
ATOM     27  C   UNL     1       4.861   1.832  -0.386  0.00  0.00    +0.106 C 
ATOM     28  C   UNL     1       4.890   0.963  -1.645  0.00  0.00    +0.055 C 
ATOM     29  C   UNL     1       5.955   2.897  -0.476  0.00  0.00    +0.055 C 
ATOM     30  C   UNL     1       5.102   0.956   0.844  0.00  0.00    +0.055 C 
ENDBRANCH  26  27
ENDBRANCH  24  26
ENDBRANCH  14  24
TORSDOF 5
