REMARK  Name = ZINC39624109
REMARK  7 active torsions:
REMARK  status: ('A' for Active; 'I' for Inactive)
REMARK    1  A    between atoms: C_1  and  C_2
REMARK    2  A    between atoms: C_2  and  C_3
REMARK    3  A    between atoms: C_3  and  C_4
REMARK    4  A    between atoms: C_4  and  N_5
REMARK    5  A    between atoms: C_6  and  C_8
REMARK    6  A    between atoms: C_19  and  C_21
REMARK    7  A    between atoms: C_24  and  C_26
REMARK                            x       y       z     vdW  Elec       q    Type
REMARK                         _______ _______ _______ _____ _____    ______ ____
ROOT
ATOM      1  C   UNL     1      -4.429  -4.420   0.021  0.00  0.00    +0.100 C 
ATOM      2  C   UNL     1      -5.211  -3.879  -1.197  0.00  0.00    +0.121 C 
ATOM      3  N   UNL     1      -5.091  -4.943  -2.222  0.00  0.00    -0.294 N 
ATOM      4  C   UNL     1      -5.216  -6.207  -1.458  0.00  0.00    +0.115 C 
ATOM      5  C   UNL     1      -4.437  -5.949  -0.152  0.00  0.00    -0.004 C 
ATOM      6  C   UNL     1      -5.147  -6.610   1.026  0.00  0.00    -0.010 C 
ATOM      7  C   UNL     1      -5.091  -8.131   0.861  0.00  0.00    -0.082 C 
ATOM      8  N   UNL     1      -3.691  -8.568   0.799  0.00  0.00    +0.379 N 
ATOM      9  C   UNL     1      -3.041  -8.001  -0.389  0.00  0.00    -0.082 C 
ATOM     10  C   UNL     1      -3.010  -6.474  -0.277  0.00  0.00    -0.010 C 
ATOM     11  C   UNL     1      -4.911  -4.794  -3.549  0.00  0.00    +0.282 C 
ATOM     12  O   UNL     1      -4.831  -5.775  -4.266  0.00  0.00    -0.267 OA
ATOM     13  H   UNL     1      -3.206  -8.255   1.627  0.00  0.00    -0.086 HD
ATOM     14  H   UNL     1      -3.655  -9.575   0.752  0.00  0.00    -0.086 HD
ENDROOT
BRANCH  11  15
ATOM     15  C   UNL     1      -4.810  -3.453  -4.129  0.00  0.00    +0.190 A 
ATOM     16  C   UNL     1      -4.632  -3.160  -5.463  0.00  0.00    +0.055 A 
ATOM     17  C   UNL     1      -4.592  -1.766  -5.569  0.00  0.00    +0.051 A 
ATOM     18  C   UNL     1      -4.746  -1.263  -4.308  0.00  0.00    +0.139 A 
ATOM     19  O   UNL     1      -4.882  -2.288  -3.450  0.00  0.00    -0.450 OA
BRANCH  18  20
ATOM     20  C   UNL     1      -4.766   0.169  -3.949  0.00  0.00    +0.052 A 
ATOM     21  C   UNL     1      -3.761   1.022  -4.410  0.00  0.00    +0.014 A 
ATOM     22  C   UNL     1      -3.785   2.358  -4.070  0.00  0.00    +0.001 A 
ATOM     23  C   UNL     1      -4.803   2.856  -3.274  0.00  0.00    +0.003 A 
ATOM     24  C   UNL     1      -5.801   2.019  -2.812  0.00  0.00    +0.039 A 
ATOM     25  C   UNL     1      -5.794   0.678  -3.149  0.00  0.00    +0.134 A 
ATOM     26  F   UNL     1      -6.774  -0.138  -2.703  0.00  0.00    -0.205 F 
ENDBRANCH  18  20
ENDBRANCH  11  15
BRANCH   1  28
ATOM     27  N   UNL     1      -2.345  -3.744   1.169  0.00  0.00    -0.315 N 
ATOM     28  C   UNL     1      -3.015  -3.899   0.010  0.00  0.00    +0.218 C 
ATOM     29  O   UNL     1      -2.480  -3.618  -1.042  0.00  0.00    -0.275 OA
ATOM     30  H   UNL     1      -2.773  -3.969   2.010  0.00  0.00    +0.149 HD
BRANCH  27  31
ATOM     31  C   UNL     1      -0.971  -3.237   1.159  0.00  0.00    +0.104 C 
BRANCH  31  32
ATOM     32  C   UNL     1      -0.445  -3.158   2.594  0.00  0.00    +0.018 C 
BRANCH  32  34
ATOM     33  C   UNL     1       1.515  -2.550   4.017  0.00  0.00    +0.004 C 
ATOM     34  C   UNL     1       0.990  -2.629   2.583  0.00  0.00    -0.002 C 
ENDBRANCH  32  34
ENDBRANCH  31  32
ENDBRANCH  27  31
ENDBRANCH   1  28
TORSDOF 6
