REMARK  Name = ZINC01060581
REMARK  4 active torsions:
REMARK  status: ('A' for Active; 'I' for Inactive)
REMARK    1  A    between atoms: C_1  and  C_2
REMARK    2  A    between atoms: C_5  and  C_26
REMARK    3  A    between atoms: C_10  and  C_12
REMARK    4  A    between atoms: C_16  and  N_23
REMARK                            x       y       z     vdW  Elec       q    Type
REMARK                         _______ _______ _______ _____ _____    ______ ____
ROOT
ATOM      1  C   UNL     1       3.667  -2.008  -0.064  0.00  0.00    +0.122 A 
ATOM      2  C   UNL     1       3.367  -1.127  -1.088  0.00  0.00    +0.031 A 
ATOM      3  C   UNL     1       2.131  -0.433  -1.048  0.00  0.00    +0.020 A 
ATOM      4  C   UNL     1       1.794   0.467  -2.071  0.00  0.00    +0.044 A 
ATOM      5  C   UNL     1       0.602   1.131  -2.027  0.00  0.00    +0.127 A 
ATOM      6  C   UNL     1      -0.281   0.922  -0.977  0.00  0.00    +0.036 A 
ATOM      7  C   UNL     1       0.029   0.043   0.038  0.00  0.00    +0.049 A 
ATOM      8  C   UNL     1       1.237  -0.646   0.017  0.00  0.00    +0.139 A 
ATOM      9  O   UNL     1       1.539  -1.507   1.012  0.00  0.00    -0.422 OA
ATOM     10  C   UNL     1       2.696  -2.189   1.021  0.00  0.00    +0.350 A 
ATOM     11  O   UNL     1       2.939  -2.959   1.931  0.00  0.00    -0.244 OA
ENDROOT
BRANCH   1  19
ATOM     12  C   UNL     1       6.585  -0.550   2.294  0.00  0.00    +0.009 C 
ATOM     13  C   UNL     1       7.115  -0.149   0.916  0.00  0.00    +0.004 C 
ATOM     14  C   UNL     1       8.479  -0.803   0.682  0.00  0.00    +0.009 C 
ATOM     15  C   UNL     1       8.340  -2.324   0.783  0.00  0.00    +0.004 C 
ATOM     16  C   UNL     1       7.375  -2.818  -0.299  0.00  0.00    +0.111 C 
ATOM     17  N   UNL     1       6.107  -2.086  -0.171  0.00  0.00    -0.297 N 
ATOM     18  C   UNL     1       6.136  -0.618  -0.171  0.00  0.00    +0.111 C 
ATOM     19  C   UNL     1       4.939  -2.751  -0.062  0.00  0.00    +0.254 C 
ATOM     20  O   UNL     1       4.936  -3.963   0.037  0.00  0.00    -0.270 OA
ATOM     21  C   UNL     1       9.710  -2.976   0.582  0.00  0.00    +0.009 C 
ENDBRANCH   1  19
BRANCH   5  22
ATOM     22  N   UNL     1       0.249   2.079  -3.107  0.00  0.00    +0.056 N 
ATOM     23  O   UNL     1      -0.814   2.673  -3.072  0.00  0.00    -0.126 OA
ATOM     24  O   UNL     1       1.021   2.265  -4.030  0.00  0.00    -0.126 OA
ENDBRANCH   5  22
TORSDOF 2
