REMARK  Name = ZINC39964595
REMARK  2 active torsions:
REMARK  status: ('A' for Active; 'I' for Inactive)
REMARK    1  A    between atoms: C_12  and  C_14
REMARK    2  A    between atoms: C_14  and  C_15
REMARK                            x       y       z     vdW  Elec       q    Type
REMARK                         _______ _______ _______ _____ _____    ______ ____
ROOT
ATOM      1  C   UNL     1      -0.669   0.386  -2.107  0.00  0.00    +0.025 C 
ATOM      2  C   UNL     1       0.174   0.571  -3.142  0.00  0.00    +0.032 C 
ATOM      3  C   UNL     1       1.468  -0.118  -3.167  0.00  0.00    +0.095 C 
ATOM      4  N   UNL     1       2.481  -0.144  -4.013  0.00  0.00    -0.190 NA
ATOM      5  C   UNL     1       3.435  -0.961  -3.537  0.00  0.00    +0.369 C 
ATOM      6  O   UNL     1       4.609  -1.209  -4.166  0.00  0.00    -0.243 OA
ATOM      7  N   UNL     1       3.088  -1.488  -2.386  0.00  0.00    -0.190 NA
ATOM      8  C   UNL     1       1.849  -1.016  -2.060  0.00  0.00    +0.097 C 
ATOM      9  C   UNL     1       1.002  -1.204  -1.016  0.00  0.00    +0.053 C 
ATOM     10  C   UNL     1      -0.300  -0.504  -1.000  0.00  0.00    +0.036 C 
ATOM     11  N   UNL     1      -1.131  -0.679   0.010  0.00  0.00    -0.285 N 
ATOM     12  C   UNL     1      -2.263   0.048   0.085  0.00  0.00    +0.218 C 
ATOM     13  O   UNL     1      -2.208   1.260   0.071  0.00  0.00    -0.275 OA
ATOM     14  H   UNL     1      -0.927  -1.331   0.698  0.00  0.00    +0.155 HD
ENDROOT
BRANCH  12  15
ATOM     15  C   UNL     1      -3.598  -0.644   0.187  0.00  0.00    +0.103 C 
BRANCH  15  16
ATOM     16  C   UNL     1      -4.711   0.403   0.258  0.00  0.00    -0.020 C 
ATOM     17  C   UNL     1      -4.501   1.288   1.488  0.00  0.00    +0.011 C 
ATOM     18  C   UNL     1      -5.614   2.335   1.559  0.00  0.00    -0.010 C 
ATOM     19  C   UNL     1      -6.970   1.633   1.662  0.00  0.00    +0.007 C 
ATOM     20  C   UNL     1      -7.180   0.747   0.432  0.00  0.00    -0.010 C 
ATOM     21  C   UNL     1      -6.067  -0.300   0.361  0.00  0.00    +0.011 C 
ATOM     22  C   UNL     1      -7.149   1.612  -0.830  0.00  0.00    +0.007 C 
ATOM     23  C   UNL     1      -5.793   2.314  -0.933  0.00  0.00    -0.010 C 
ATOM     24  C   UNL     1      -5.583   3.200   0.297  0.00  0.00    +0.007 C 
ATOM     25  C   UNL     1      -4.680   1.267  -1.004  0.00  0.00    +0.011 C 
ENDBRANCH  15  16
ENDBRANCH  12  15
TORSDOF 2
