REMARK  Name = ZINC11763962
REMARK  8 active torsions:
REMARK  status: ('A' for Active; 'I' for Inactive)
REMARK    1  A    between atoms: C_1  and  C_2
REMARK    2  A    between atoms: C_4  and  C_10
REMARK    3  A    between atoms: C_7  and  O_8
REMARK    4  A    between atoms: O_8  and  C_9
REMARK    5  A    between atoms: C_24  and  C_25
REMARK    6  A    between atoms: C_24  and  N_58
REMARK    7  A    between atoms: C_25  and  C_26
REMARK    8  A    between atoms: C_26  and  N_27
REMARK                            x       y       z     vdW  Elec       q    Type
REMARK                         _______ _______ _______ _____ _____    ______ ____
ROOT
ATOM      1  C   UNL     1       0.020  -3.127   2.641  0.00  0.00    +0.010 C 
ATOM      2  C   UNL     1      -1.275  -3.803   3.024  0.00  0.00    +0.011 A 
ATOM      3  C   UNL     1      -1.337  -5.080   3.466  0.00  0.00    -0.022 A 
ATOM      4  C   UNL     1      -2.728  -5.374   3.728  0.00  0.00    +0.003 A 
ATOM      5  C   UNL     1      -3.388  -6.517   4.192  0.00  0.00    +0.010 A 
ATOM      6  C   UNL     1      -4.752  -6.436   4.324  0.00  0.00    +0.001 A 
ATOM      7  C   UNL     1      -5.455  -5.283   4.015  0.00  0.00    +0.002 A 
ATOM      8  C   UNL     1      -4.828  -4.138   3.553  0.00  0.00    +0.026 A 
ATOM      9  C   UNL     1      -3.443  -4.191   3.409  0.00  0.00    +0.047 A 
ATOM     10  N   UNL     1      -2.532  -3.264   2.989  0.00  0.00    -0.359 N 
ATOM     11  H   UNL     1      -2.744  -2.360   2.708  0.00  0.00    +0.166 HD
ATOM     12  C   UNL     1      -0.126  -5.964   3.626  0.00  0.00    +0.019 C 
ATOM     13  C   UNL     1       1.121  -5.070   3.598  0.00  0.00    -0.073 C 
ATOM     14  N   UNL     1       1.040  -4.179   2.418  0.00  0.00    +0.388 N 
ATOM     15  H   UNL     1       0.770  -4.736   1.599  0.00  0.00    -0.080 HD
ENDROOT
BRANCH   1  19
ATOM     16  C   UNL     1      -0.726   1.220   0.277  0.00  0.00    +0.047 C 
ATOM     17  C   UNL     1      -0.529  -0.274   0.231  0.00  0.00    -0.009 A 
ATOM     18  C   UNL     1      -0.353  -0.984   1.403  0.00  0.00    +0.009 A 
ATOM     19  C   UNL     1      -0.172  -2.354   1.361  0.00  0.00    -0.055 A 
ATOM     20  C   UNL     1      -0.166  -3.017   0.147  0.00  0.00    +0.006 A 
ATOM     21  C   UNL     1      -0.343  -2.311  -1.027  0.00  0.00    +0.046 A 
ATOM     22  C   UNL     1      -0.529  -0.937  -0.988  0.00  0.00    +0.123 A 
BRANCH  22  23
ATOM     23  O   UNL     1      -0.708  -0.241  -2.141  0.00  0.00    -0.495 OA
ATOM     24  C   UNL     1      -0.696  -0.989  -3.358  0.00  0.00    +0.277 C 
ENDBRANCH  22  23
ENDBRANCH   1  19
BRANCH  14  25
ATOM     25  C   UNL     1       2.357  -3.559   2.163  0.00  0.00    -0.076 C 
BRANCH  25  26
ATOM     26  C   UNL     1       2.847  -2.806   3.402  0.00  0.00    +0.005 C 
BRANCH  26  27
ATOM     27  C   UNL     1       4.244  -2.243   3.136  0.00  0.00    +0.141 C 
BRANCH  27  28
ATOM     28  N   UNL     1       4.714  -1.522   4.322  0.00  0.00    -0.272 N 
ATOM     29  C   UNL     1       5.867  -1.749   4.984  0.00  0.00    +0.108 A 
ATOM     30  C   UNL     1       5.929  -0.876   6.016  0.00  0.00    +0.041 A 
ATOM     31  C   UNL     1       4.774  -0.088   5.983  0.00  0.00    +0.134 A 
ATOM     32  N   UNL     1       4.048  -0.470   4.964  0.00  0.00    -0.180 NA
ENDBRANCH  27  28
ENDBRANCH  26  27
ENDBRANCH  25  26
ENDBRANCH  14  25
TORSDOF 6
