REMARK  Name = ZINC27794545
REMARK  5 active torsions:
REMARK  status: ('A' for Active; 'I' for Inactive)
REMARK    1  A    between atoms: C_1  and  C_2
REMARK    2  A    between atoms: C_6  and  C_25
REMARK    3  A    between atoms: C_7  and  C_11
REMARK    4  A    between atoms: N_13  and  C_14
REMARK    5  A    between atoms: C_21  and  C_24
REMARK                            x       y       z     vdW  Elec       q    Type
REMARK                         _______ _______ _______ _____ _____    ______ ____
ROOT
ATOM      1  C   UNL     1       0.198   0.275   6.954  0.00  0.00    +0.286 C 
ATOM      2  O   UNL     1      -0.407   1.069   7.649  0.00  0.00    -0.266 OA
ATOM      3  N   UNL     1       0.207   0.423   5.614  0.00  0.00    -0.247 N 
ATOM      4  H   UNL     1       0.755  -0.294   4.985  0.00  0.00    +0.158 HD
ENDROOT
BRANCH   1  11
ATOM      5  C   UNL     1       4.234  -5.750   8.467  0.00  0.00    +0.044 C 
ATOM      6  C   UNL     1       3.373  -4.530   8.668  0.00  0.00    -0.047 A 
ATOM      7  C   UNL     1       3.006  -4.153   9.953  0.00  0.00    +0.004 A 
ATOM      8  C   UNL     1       2.227  -3.049  10.155  0.00  0.00    +0.012 A 
ATOM      9  C   UNL     1       1.797  -2.295   9.060  0.00  0.00    +0.024 A 
ATOM     10  C   UNL     1       0.980  -1.092   8.908  0.00  0.00    +0.008 A 
ATOM     11  C   UNL     1       0.919  -0.844   7.574  0.00  0.00    +0.194 A 
ATOM     12  O   UNL     1       1.618  -1.785   6.904  0.00  0.00    -0.450 OA
ATOM     13  C   UNL     1       2.166  -2.673   7.755  0.00  0.00    +0.136 A 
ATOM     14  C   UNL     1       2.960  -3.800   7.575  0.00  0.00    +0.050 A 
ATOM     15  C   UNL     1       0.335  -0.290  10.009  0.00  0.00    +0.048 C 
ENDBRANCH   1  11
BRANCH   3  16
ATOM     16  C   UNL     1      -0.473   1.479   5.029  0.00  0.00    +0.228 A 
ATOM     17  C   UNL     1      -0.560   1.763   3.712  0.00  0.00    +0.037 A 
ATOM     18  C   UNL     1      -1.356   2.927   3.651  0.00  0.00    +0.089 A 
ATOM     19  N   UNL     1      -1.666   3.225   4.870  0.00  0.00    -0.081 NA
ATOM     20  O   UNL     1      -1.186   2.435   5.658  0.00  0.00    -0.339 OA
ATOM     21  C   UNL     1      -1.712   3.615   2.358  0.00  0.00    +0.059 C 
ATOM     22  C   UNL     1      -0.756   3.109   1.270  0.00  0.00    +0.010 C 
ATOM     23  C   UNL     1      -0.729   1.579   1.267  0.00  0.00    -0.009 C 
ATOM     24  C   UNL     1       0.015   1.070   2.510  0.00  0.00    +0.045 C 
ATOM     25  C   UNL     1      -0.013   1.086   0.008  0.00  0.00    +0.008 C 
ENDBRANCH   3  16
TORSDOF 2
