REMARK  Name = ZINC36128958
REMARK  8 active torsions:
REMARK  status: ('A' for Active; 'I' for Inactive)
REMARK    1  A    between atoms: C_1  and  C_2
REMARK    2  A    between atoms: C_2  and  C_3
REMARK    3  A    between atoms: C_7  and  C_23
REMARK    4  A    between atoms: N_10  and  S_11
REMARK    5  A    between atoms: S_11  and  C_14
REMARK    6  A    between atoms: C_15  and  C_22
REMARK    7  A    between atoms: C_18  and  N_21
REMARK    8  A    between atoms: C_19  and  C_20
REMARK                            x       y       z     vdW  Elec       q    Type
REMARK                         _______ _______ _______ _____ _____    ______ ____
ROOT
ATOM      1  S   UNL     1       3.092   0.490   1.897  0.00  0.00    +0.062 S 
ATOM      2  O   UNL     1       4.362   0.537   1.263  0.00  0.00    -0.153 OA
ATOM      3  O   UNL     1       2.240   1.624   1.982  0.00  0.00    -0.153 OA
ENDROOT
BRANCH   1   4
ATOM      4  C   UNL     1       3.374  -0.053   3.550  0.00  0.00    +0.113 A 
ATOM      5  C   UNL     1       2.372   0.064   4.496  0.00  0.00    -0.024 A 
ATOM      6  C   UNL     1       2.589  -0.360   5.794  0.00  0.00    +0.007 A 
ATOM      7  C   UNL     1       3.808  -0.903   6.149  0.00  0.00    +0.023 A 
ATOM      8  C   UNL     1       4.816  -1.023   5.202  0.00  0.00    +0.029 A 
ATOM      9  C   UNL     1       4.593  -0.600   3.897  0.00  0.00    -0.003 A 
ATOM     10  C   UNL     1       5.682  -0.733   2.864  0.00  0.00    +0.048 C 
ATOM     11  C   UNL     1       1.040   0.656   4.111  0.00  0.00    +0.046 C 
BRANCH   8  12
ATOM     12  N   UNL     1       6.051  -1.571   5.558  0.00  0.00    -0.358 N 
ATOM     13  H   UNL     1       6.204  -1.870   6.468  0.00  0.00    +0.142 HD
ATOM     14  H   UNL     1       6.754  -1.654   4.895  0.00  0.00    +0.142 HD
ENDBRANCH   8  12
ENDBRANCH   1   4
BRANCH   1  20
ATOM     15  C   UNL     1       0.760  -0.612   1.022  0.00  0.00    +0.105 C 
ATOM     16  C   UNL     1       0.160  -1.937   1.504  0.00  0.00    +0.180 C 
ATOM     17  O   UNL     1       0.787  -3.018   0.810  0.00  0.00    -0.374 OA
ATOM     18  C   UNL     1       2.191  -3.133   1.052  0.00  0.00    +0.131 C 
ATOM     19  C   UNL     1       2.896  -1.869   0.547  0.00  0.00    +0.141 C 
ATOM     20  N   UNL     1       2.225  -0.697   1.133  0.00  0.00    -0.169 NA
ATOM     21  C   UNL     1       2.740  -4.355   0.313  0.00  0.00    +0.039 C 
BRANCH  15  23
ATOM     22  C   UNL     1       0.874   1.005  -0.880  0.00  0.00    +0.005 C 
ATOM     23  C   UNL     1       0.368  -0.369  -0.437  0.00  0.00    +0.019 C 
ENDBRANCH  15  23
ENDBRANCH   1  20
TORSDOF 4
