REMARK  Name = ZINC43879145
REMARK  4 active torsions:
REMARK  status: ('A' for Active; 'I' for Inactive)
REMARK    1  A    between atoms: C_1  and  C_2
REMARK    2  A    between atoms: N_11  and  C_12
REMARK    3  A    between atoms: C_17  and  O_18
REMARK    4  A    between atoms: O_18  and  C_19
REMARK                            x       y       z     vdW  Elec       q    Type
REMARK                         _______ _______ _______ _____ _____    ______ ____
ROOT
ATOM      1  C   UNL     1      -0.669   1.226   0.407  0.00  0.00    +0.039 C 
ATOM      2  C   UNL     1      -0.398  -0.276   0.309  0.00  0.00    +0.133 C 
ATOM      3  C   UNL     1       0.232  -0.595  -1.051  0.00  0.00    +0.140 C 
ATOM      4  N   UNL     1       0.653  -2.005  -1.049  0.00  0.00    -0.281 N 
ATOM      5  C   UNL     1       1.471  -2.481   0.078  0.00  0.00    +0.137 C 
ATOM      6  C   UNL     1       0.781  -2.070   1.384  0.00  0.00    +0.179 C 
ATOM      7  O   UNL     1       0.501  -0.668   1.349  0.00  0.00    -0.374 OA
ATOM      8  C   UNL     1       0.299  -2.837  -2.049  0.00  0.00    +0.307 C 
ATOM      9  O   UNL     1      -0.453  -2.451  -2.922  0.00  0.00    -0.252 OA
ATOM     10  N   UNL     1       0.780  -4.096  -2.080  0.00  0.00    -0.266 N 
ATOM     11  H   UNL     1       1.327  -4.424  -1.350  0.00  0.00    +0.156 HD
ENDROOT
BRANCH  10  12
ATOM     12  C   UNL     1       0.489  -4.930  -3.168  0.00  0.00    +0.077 A 
ATOM     13  C   UNL     1       0.038  -4.385  -4.362  0.00  0.00    +0.027 A 
ATOM     14  C   UNL     1      -0.249  -5.209  -5.433  0.00  0.00    +0.002 A 
ATOM     15  C   UNL     1      -0.087  -6.578  -5.319  0.00  0.00    +0.004 A 
ATOM     16  C   UNL     1       0.362  -7.128  -4.133  0.00  0.00    +0.048 A 
ATOM     17  C   UNL     1       0.657  -6.308  -3.056  0.00  0.00    +0.151 A 
BRANCH  17  18
ATOM     18  O   UNL     1       1.104  -6.847  -1.891  0.00  0.00    -0.404 OA
BRANCH  18  19
ATOM     19  C   UNL     1       1.252  -8.268  -1.848  0.00  0.00    +0.575 C 
ATOM     20  F   UNL     1       2.169  -8.671  -2.825  0.00  0.00    -0.133 F 
ATOM     21  F   UNL     1       1.717  -8.651  -0.585  0.00  0.00    -0.133 F 
ATOM     22  F   UNL     1       0.015  -8.874  -2.092  0.00  0.00    -0.133 F 
ENDBRANCH  18  19
ENDBRANCH  17  18
ENDBRANCH  10  12
TORSDOF 3
