REMARK  Name = ZINC12793485
REMARK  7 active torsions:
REMARK  status: ('A' for Active; 'I' for Inactive)
REMARK    1  A    between atoms: C_1  and  C_2
REMARK    2  A    between atoms: C_2  and  O_3
REMARK    3  A    between atoms: O_3  and  C_4
REMARK    4  A    between atoms: C_9  and  C_12
REMARK    5  A    between atoms: N_17  and  S_20
REMARK    6  A    between atoms: S_20  and  C_23
REMARK    7  A    between atoms: C_28  and  C_29
REMARK                            x       y       z     vdW  Elec       q    Type
REMARK                         _______ _______ _______ _____ _____    ______ ____
ROOT
ATOM      1  C   UNL     1      -1.535   3.251   4.494  0.00  0.00    +0.219 C 
ATOM      2  O   UNL     1      -1.841   2.803   5.579  0.00  0.00    -0.275 OA
ATOM      3  N   UNL     1      -1.743   2.522   3.380  0.00  0.00    -0.299 N 
ATOM      4  C   UNL     1      -1.456   3.085   2.053  0.00  0.00    +0.125 C 
ATOM      5  C   UNL     1      -2.721   2.982   1.193  0.00  0.00    +0.128 C 
ATOM      6  N   UNL     1      -3.240   1.609   1.283  0.00  0.00    -0.174 NA
ATOM      7  C   UNL     1      -3.532   1.048   2.609  0.00  0.00    +0.128 C 
ATOM      8  C   UNL     1      -2.261   1.150   3.470  0.00  0.00    +0.125 C 
ENDROOT
BRANCH   1  14
ATOM      9  C   UNL     1       2.060   7.151   5.660  0.00  0.00    +0.403 C 
ATOM     10  O   UNL     1       1.925   7.731   6.719  0.00  0.00    -0.226 OA
ATOM     11  N   UNL     1       0.989   6.604   5.051  0.00  0.00    -0.267 N 
ATOM     12  C   UNL     1      -0.347   6.702   5.655  0.00  0.00    +0.112 C 
ATOM     13  C   UNL     1      -0.940   5.294   5.769  0.00  0.00    +0.032 C 
ATOM     14  C   UNL     1      -0.920   4.623   4.393  0.00  0.00    +0.078 C 
ATOM     15  C   UNL     1       0.525   4.500   3.905  0.00  0.00    +0.032 C 
ATOM     16  C   UNL     1       1.135   5.899   3.770  0.00  0.00    +0.112 C 
BRANCH   9  17
ATOM     17  O   UNL     1       3.278   7.054   5.095  0.00  0.00    -0.451 OA
BRANCH  17  19
ATOM     18  C   UNL     1       5.679   7.455   5.017  0.00  0.00    +0.048 C 
ATOM     19  C   UNL     1       4.385   7.667   5.806  0.00  0.00    +0.230 C 
ENDBRANCH  17  19
ENDBRANCH   9  17
ENDBRANCH   1  14
BRANCH   6  20
ATOM     20  S   UNL     1      -3.496   0.714  -0.086  0.00  0.00    +0.061 S 
ATOM     21  O   UNL     1      -3.527   1.631  -1.171  0.00  0.00    -0.153 OA
ATOM     22  O   UNL     1      -4.576  -0.165   0.200  0.00  0.00    -0.153 OA
BRANCH  20  23
ATOM     23  C   UNL     1      -2.072  -0.297  -0.322  0.00  0.00    +0.117 A 
ATOM     24  C   UNL     1      -0.918  -0.043   0.396  0.00  0.00    +0.029 A 
ATOM     25  C   UNL     1       0.199  -0.837   0.211  0.00  0.00    +0.002 A 
ATOM     26  C   UNL     1       0.161  -1.885  -0.690  0.00  0.00    +0.001 A 
ATOM     27  C   UNL     1      -0.995  -2.142  -1.403  0.00  0.00    +0.014 A 
ATOM     28  C   UNL     1      -2.110  -1.345  -1.222  0.00  0.00    +0.081 A 
BRANCH  28  29
ATOM     29  C   UNL     1      -3.369  -1.622  -2.004  0.00  0.00    +0.419 C 
ATOM     30  F   UNL     1      -3.124  -2.635  -2.937  0.00  0.00    -0.166 F 
ATOM     31  F   UNL     1      -4.381  -2.028  -1.128  0.00  0.00    -0.166 F 
ATOM     32  F   UNL     1      -3.768  -0.459  -2.671  0.00  0.00    -0.166 F 
ENDBRANCH  28  29
ENDBRANCH  20  23
ENDBRANCH   6  20
TORSDOF 6
