REMARK  Name = ZINC26457260
REMARK  6 active torsions:
REMARK  status: ('A' for Active; 'I' for Inactive)
REMARK    1  A    between atoms: C_3  and  N_9
REMARK    2  A    between atoms: C_10  and  C_12
REMARK    3  A    between atoms: N_17  and  C_18
REMARK    4  A    between atoms: C_18  and  C_19
REMARK    5  A    between atoms: N_21  and  C_22
REMARK    6  A    between atoms: C_23  and  C_27
REMARK                            x       y       z     vdW  Elec       q    Type
REMARK                         _______ _______ _______ _____ _____    ______ ____
ROOT
ATOM      1  C   UNL     1       2.296   5.676   0.225  0.00  0.00    +0.020 C 
ATOM      2  C   UNL     1       1.622   6.099   1.554  0.00  0.00    -0.008 C 
ATOM      3  C   UNL     1       2.239   7.504   1.784  0.00  0.00    -0.020 C 
ATOM      4  C   UNL     1       3.678   7.343   1.252  0.00  0.00    -0.077 C 
ATOM      5  N   UNL     1       3.673   6.206   0.314  0.00  0.00    +0.393 N 
ATOM      6  H   UNL     1       4.352   5.422   0.680  0.00  0.00    -0.080 HD
ENDROOT
BRANCH   1   8
ATOM      7  N   UNL     1       1.163   3.487   0.009  0.00  0.00    -0.286 N 
ATOM      8  C   UNL     1       2.319   4.174   0.104  0.00  0.00    +0.204 C 
ATOM      9  O   UNL     1       3.378   3.583   0.091  0.00  0.00    -0.277 OA
ATOM     10  H   UNL     1       0.208   4.027  -0.071  0.00  0.00    +0.155 HD
BRANCH   7  13
ATOM     11  C   UNL     1       2.242   0.023   0.610  0.00  0.00    +0.022 A 
ATOM     12  C   UNL     1       2.230   1.405   0.608  0.00  0.00    +0.026 A 
ATOM     13  C   UNL     1       1.177   2.087   0.013  0.00  0.00    +0.052 A 
ATOM     14  C   UNL     1       0.139   1.378  -0.579  0.00  0.00    +0.064 A 
ATOM     15  C   UNL     1       0.157  -0.003  -0.574  0.00  0.00    +0.041 A 
ATOM     16  C   UNL     1       1.207  -0.681   0.020  0.00  0.00    +0.042 A 
ATOM     17 CL   UNL     1       1.227  -2.417   0.025  0.00  0.00    -0.083 Cl
ATOM     18 CL   UNL     1      -1.175   2.228  -1.331  0.00  0.00    -0.082 Cl
ENDBRANCH   7  13
ENDBRANCH   1   8
BRANCH   5  19
ATOM     19  C   UNL     1       4.167   6.612  -1.008  0.00  0.00    +0.020 C 
BRANCH  19  20
ATOM     20  C   UNL     1       5.462   7.367  -0.851  0.00  0.00    +0.201 C 
ATOM     21  O   UNL     1       5.927   7.549   0.255  0.00  0.00    -0.278 OA
ATOM     22  N   UNL     1       6.103   7.841  -1.938  0.00  0.00    -0.281 N 
ATOM     23  H   UNL     1       5.681   7.676  -2.940  0.00  0.00    +0.155 HD
BRANCH  22  24
ATOM     24  C   UNL     1       7.295   8.536  -1.792  0.00  0.00    +0.089 A 
ATOM     25  C   UNL     1       8.094   9.095  -2.781  0.00  0.00    +0.080 A 
ATOM     26  C   UNL     1       9.293   9.770  -2.345  0.00  0.00    +0.028 A 
ATOM     27  C   UNL     1       9.533   9.800  -1.021  0.00  0.00    +0.048 A 
ATOM     28  S   UNL     1       8.143   8.924  -0.333  0.00  0.00    -0.081 S 
BRANCH  25  29
ATOM     29  C   UNL     1       7.745   9.006  -4.168  0.00  0.00    +0.102 C 
ATOM     30  N   UNL     1       7.469   8.935  -5.267  0.00  0.00    -0.191 NA
ENDBRANCH  25  29
ENDBRANCH  22  24
ENDBRANCH  19  20
ENDBRANCH   5  19
TORSDOF 6
