REMARK  Name = ZINC40713867
REMARK  3 active torsions:
REMARK  status: ('A' for Active; 'I' for Inactive)
REMARK    1  A    between atoms: C_1  and  C_2
REMARK    2  A    between atoms: C_7  and  C_8
REMARK    3  A    between atoms: C_13  and  N_19
REMARK                            x       y       z     vdW  Elec       q    Type
REMARK                         _______ _______ _______ _____ _____    ______ ____
ROOT
ATOM      1  C   UNL     1       0.341   1.460  -0.188  0.00  0.00    +0.044 C 
ATOM      2  C   UNL     1       0.257  -0.044  -0.155  0.00  0.00    -0.045 A 
ATOM      3  C   UNL     1       0.069  -0.743  -1.326  0.00  0.00    +0.033 A 
ATOM      4  C   UNL     1      -0.009  -2.138  -1.297  0.00  0.00    +0.090 A 
ATOM      5  C   UNL     1       0.105  -2.811  -0.069  0.00  0.00    +0.075 A 
ATOM      6  C   UNL     1       0.293  -2.090   1.102  0.00  0.00    +0.032 A 
ATOM      7  C   UNL     1       0.375  -0.714   1.054  0.00  0.00    -0.045 A 
ATOM      8  C   UNL     1       0.586   0.067   2.325  0.00  0.00    +0.044 C 
ATOM      9  N   UNL     1      -0.011  -4.158  -0.360  0.00  0.00    -0.281 N 
ATOM     10  C   UNL     1      -0.186  -4.266  -1.708  0.00  0.00    +0.206 A 
ATOM     11  N   UNL     1      -0.184  -3.085  -2.254  0.00  0.00    -0.235 NA
ATOM     12  C   UNL     1       0.042  -5.213   0.557  0.00  0.00    +0.160 A 
ATOM     13  C   UNL     1       0.873  -6.306   0.307  0.00  0.00    +0.069 A 
ATOM     14  C   UNL     1       0.914  -7.346   1.228  0.00  0.00    +0.043 A 
ATOM     15  C   UNL     1       0.122  -7.252   2.365  0.00  0.00    +0.038 A 
ATOM     16  C   UNL     1      -0.676  -6.138   2.545  0.00  0.00    +0.128 A 
ATOM     17  N   UNL     1      -0.692  -5.163   1.655  0.00  0.00    -0.235 NA
ATOM     18 BR   UNL     1       0.135  -8.636   3.654  0.00  0.00    -0.049 Br
ENDROOT
BRANCH  13  19
ATOM     19  N   UNL     1       1.653  -6.356  -0.853  0.00  0.00    -0.355 N 
ATOM     20  H   UNL     1       1.698  -5.584  -1.440  0.00  0.00    +0.142 HD
ATOM     21  H   UNL     1       2.147  -7.161  -1.072  0.00  0.00    +0.142 HD
ENDBRANCH  13  19
TORSDOF 1
