REMARK  Name = ZINC08711528
REMARK  6 active torsions:
REMARK  status: ('A' for Active; 'I' for Inactive)
REMARK    1  A    between atoms: C_1  and  C_2
REMARK    2  A    between atoms: C_5  and  C_8
REMARK    3  A    between atoms: C_11  and  C_13
REMARK    4  A    between atoms: C_11  and  O_17
REMARK    5  A    between atoms: C_20  and  C_23
REMARK    6  A    between atoms: C_26  and  N_29
REMARK                            x       y       z     vdW  Elec       q    Type
REMARK                         _______ _______ _______ _____ _____    ______ ____
ROOT
ATOM      1  C   UNL     1      -4.178  -3.536  -0.346  0.00  0.00    +0.071 C 
ATOM      2  N   UNL     1      -3.312  -2.555  -0.273  0.00  0.00    -0.179 NA
ATOM      3  N   UNL     1      -2.084  -2.895  -0.179  0.00  0.00    -0.160 N 
ATOM      4  C   UNL     1      -1.950  -4.360  -0.185  0.00  0.00    +0.256 C 
ATOM      5  C   UNL     1      -3.413  -4.844  -0.295  0.00  0.00    +0.124 C 
ATOM      6  C   UNL     1      -1.059  -2.036  -0.094  0.00  0.00    +0.184 A 
ATOM      7  N   UNL     1      -1.093  -0.700  -0.088  0.00  0.00    -0.223 NA
ATOM      8  C   UNL     1       0.002  -0.004   0.002  0.00  0.00    +0.080 A 
ATOM      9  C   UNL     1       1.266  -0.761   0.089  0.00  0.00    +0.077 A 
ATOM     10  S   UNL     1       0.684  -2.397   0.038  0.00  0.00    -0.058 S 
ENDROOT
BRANCH   1  15
ATOM     11  C   UNL     1      -9.876  -2.977  -0.782  0.00  0.00    +0.044 C 
ATOM     12  C   UNL     1      -8.380  -3.124  -0.668  0.00  0.00    -0.050 A 
ATOM     13  C   UNL     1      -7.581  -1.993  -0.599  0.00  0.00    +0.004 A 
ATOM     14  C   UNL     1      -6.214  -2.115  -0.494  0.00  0.00    +0.010 A 
ATOM     15  C   UNL     1      -5.629  -3.393  -0.457  0.00  0.00    -0.002 A 
ATOM     16  C   UNL     1      -6.448  -4.533  -0.534  0.00  0.00    +0.010 A 
ATOM     17  C   UNL     1      -7.813  -4.388  -0.632  0.00  0.00    +0.004 A 
ENDBRANCH   1  15
BRANCH   8  18
ATOM     18  C   UNL     1      -0.018   1.470   0.010  0.00  0.00    +0.001 A 
ATOM     19  C   UNL     1      -1.238   2.158   0.020  0.00  0.00    +0.012 A 
ATOM     20  C   UNL     1      -1.248   3.535   0.032  0.00  0.00    +0.033 A 
ATOM     21  C   UNL     1      -0.056   4.240   0.024  0.00  0.00    +0.126 A 
ATOM     22  C   UNL     1       1.156   3.568   0.010  0.00  0.00    +0.033 A 
ATOM     23  C   UNL     1       1.183   2.191   0.003  0.00  0.00    +0.012 A 
BRANCH  21  24
ATOM     24  N   UNL     1      -0.076   5.721   0.033  0.00  0.00    +0.056 N 
ATOM     25  O   UNL     1       1.056   6.395   0.026  0.00  0.00    -0.126 OA
ATOM     26  O   UNL     1      -1.225   6.364   0.046  0.00  0.00    -0.126 OA
ENDBRANCH  21  24
ENDBRANCH   8  18
BRANCH   4  27
ATOM     27  C   UNL     1      -1.131  -4.824  -1.392  0.00  0.00    +0.438 C 
ATOM     28  F   UNL     1       0.155  -4.279  -1.320  0.00  0.00    -0.166 F 
ATOM     29  F   UNL     1      -1.048  -6.220  -1.390  0.00  0.00    -0.166 F 
ATOM     30  F   UNL     1      -1.753  -4.395  -2.570  0.00  0.00    -0.166 F 
ENDBRANCH   4  27
BRANCH   4  31
ATOM     31  O   UNL     1      -1.359  -4.818   1.033  0.00  0.00    -0.363 OA
ATOM     32  H   UNL     1      -0.467  -4.480   1.189  0.00  0.00    +0.212 HD
ENDBRANCH   4  31
TORSDOF 5
