REMARK  Name = ZINC64416483
REMARK  4 active torsions:
REMARK  status: ('A' for Active; 'I' for Inactive)
REMARK    1  A    between atoms: C_1  and  C_2
REMARK    2  A    between atoms: C_2  and  C_4
REMARK    3  A    between atoms: C_2  and  N_11
REMARK    4  A    between atoms: C_20  and  C_22
REMARK                            x       y       z     vdW  Elec       q    Type
REMARK                         _______ _______ _______ _____ _____    ______ ____
ROOT
ATOM      1  N   UNL     1      -1.102  -0.679   0.014  0.00  0.00    -0.288 N 
ATOM      2  C   UNL     1      -1.802  -0.819  -1.129  0.00  0.00    +0.303 C 
ATOM      3  O   UNL     1      -1.424  -0.268  -2.145  0.00  0.00    -0.253 OA
ATOM      4  N   UNL     1      -2.921  -1.570  -1.147  0.00  0.00    -0.283 N 
ATOM      5  C   UNL     1      -3.449  -2.155   0.094  0.00  0.00    +0.128 C 
ATOM      6  C   UNL     1      -4.907  -1.712   0.263  0.00  0.00    +0.127 C 
ATOM      7  N   UNL     1      -5.623  -1.960  -0.996  0.00  0.00    -0.297 N 
ATOM      8  C   UNL     1      -5.095  -1.375  -2.237  0.00  0.00    +0.127 C 
ATOM      9  C   UNL     1      -3.640  -1.813  -2.405  0.00  0.00    +0.128 C 
ATOM     10  C   UNL     1      -6.742  -2.711  -1.014  0.00  0.00    +0.242 C 
ATOM     11  O   UNL     1      -7.167  -3.189   0.017  0.00  0.00    -0.273 OA
ATOM     12  H   UNL     1      -1.441  -1.058   0.840  0.00  0.00    +0.151 HD
ENDROOT
BRANCH  10  13
ATOM     13  C   UNL     1      -7.464  -2.957  -2.313  0.00  0.00    +0.190 C 
ATOM     14  C   UNL     1      -6.571  -3.712  -3.271  0.00  0.00    +0.016 C 
ATOM     15  C   UNL     1      -7.206  -4.877  -3.536  0.00  0.00    -0.004 A 
ATOM     16  C   UNL     1      -6.863  -6.026  -4.382  0.00  0.00    +0.010 A 
ATOM     17  C   UNL     1      -7.719  -7.071  -4.448  0.00  0.00    +0.001 A 
ATOM     18  C   UNL     1      -8.923  -7.084  -3.730  0.00  0.00    +0.002 A 
ATOM     19  C   UNL     1      -9.307  -6.065  -2.931  0.00  0.00    +0.026 A 
ATOM     20  C   UNL     1      -8.483  -4.915  -2.788  0.00  0.00    +0.043 A 
ATOM     21  N   UNL     1      -8.633  -3.815  -2.087  0.00  0.00    -0.370 N 
ATOM     22  H   UNL     1      -9.388  -3.605  -1.516  0.00  0.00    +0.161 HD
ENDBRANCH  10  13
BRANCH   1  24
ATOM     23  C   UNL     1      -0.093   1.544   0.160  0.00  0.00    +0.038 C 
ATOM     24  C   UNL     1       0.172   0.045   0.009  0.00  0.00    +0.157 C 
BRANCH  24  25
ATOM     25  C   UNL     1       1.026  -0.433   1.155  0.00  0.00    +0.236 C 
ATOM     26  O   UNL     1       0.505  -0.907   2.142  0.00  0.00    -0.274 OA
ATOM     27  N   UNL     1       2.368  -0.333   1.083  0.00  0.00    -0.300 N 
ATOM     28  C   UNL     1       3.121   0.321   0.003  0.00  0.00    +0.108 C 
ATOM     29  C   UNL     1       4.621   0.167   0.333  0.00  0.00    +0.020 C 
ATOM     30  C   UNL     1       4.643  -1.056   1.288  0.00  0.00    +0.020 C 
ATOM     31  C   UNL     1       3.323  -0.855   2.077  0.00  0.00    +0.108 C 
ENDBRANCH  24  25
ENDBRANCH   1  24
TORSDOF 3
