REMARK  Name = ZINC25507048
REMARK  6 active torsions:
REMARK  status: ('A' for Active; 'I' for Inactive)
REMARK    1  A    between atoms: C_1  and  C_2
REMARK    2  A    between atoms: C_2  and  C_4
REMARK    3  A    between atoms: C_2  and  N_17
REMARK    4  A    between atoms: N_6  and  C_7
REMARK    5  A    between atoms: C_8  and  C_15
REMARK    6  A    between atoms: N_20  and  C_23
REMARK                            x       y       z     vdW  Elec       q    Type
REMARK                         _______ _______ _______ _____ _____    ______ ____
ROOT
ATOM      1  C   UNL     1      -0.845   1.714  -1.111  0.00  0.00    -0.004 C 
ATOM      2  C   UNL     1      -0.013   1.086   0.008  0.00  0.00    +0.017 C 
ENDROOT
BRANCH   2   3
ATOM      3  N   UNL     1      -0.665   1.333   1.301  0.00  0.00    +0.389 N 
ATOM      4  C   UNL     1      -1.827   0.452   1.482  0.00  0.00    -0.059 C 
ATOM      5  C   UNL     1      -2.428   0.684   2.870  0.00  0.00    +0.086 C 
ATOM      6  N   UNL     1      -2.816   2.095   3.003  0.00  0.00    -0.331 N 
ATOM      7  C   UNL     1      -1.654   2.977   2.822  0.00  0.00    +0.086 C 
ATOM      8  C   UNL     1      -1.052   2.744   1.434  0.00  0.00    -0.059 C 
ATOM      9  H   UNL     1       0.062   1.104   2.094  0.00  0.00    -0.081 HD
BRANCH   6  10
ATOM     10  C   UNL     1      -3.437   2.331   4.234  0.00  0.00    +0.065 A 
ATOM     11  C   UNL     1      -3.945   3.589   4.527  0.00  0.00    +0.026 A 
ATOM     12  C   UNL     1      -4.561   3.817   5.743  0.00  0.00    +0.002 A 
ATOM     13  C   UNL     1      -4.664   2.797   6.671  0.00  0.00    +0.003 A 
ATOM     14  C   UNL     1      -4.155   1.544   6.385  0.00  0.00    +0.040 A 
ATOM     15  C   UNL     1      -3.541   1.307   5.169  0.00  0.00    +0.144 A 
ATOM     16  F   UNL     1      -3.042   0.082   4.890  0.00  0.00    -0.204 F 
ENDBRANCH   6  10
ENDBRANCH   2   3
BRANCH   2  17
ATOM     17  C   UNL     1       1.364   1.698   0.015  0.00  0.00    +0.204 C 
ATOM     18  O   UNL     1       1.667   2.502   0.871  0.00  0.00    -0.277 OA
ATOM     19  N   UNL     1       2.260   1.352  -0.931  0.00  0.00    -0.280 N 
ATOM     20  H   UNL     1       1.986   0.623  -1.708  0.00  0.00    +0.155 HD
BRANCH  19  21
ATOM     21  C   UNL     1       3.528   1.916  -0.925  0.00  0.00    +0.090 A 
ATOM     22  C   UNL     1       4.574   1.690  -1.802  0.00  0.00    +0.084 A 
ATOM     23  C   UNL     1       5.820   2.420  -1.574  0.00  0.00    -0.018 A 
ATOM     24  C   UNL     1       5.811   3.246  -0.512  0.00  0.00    -0.004 A 
ATOM     25  S   UNL     1       4.183   3.078   0.177  0.00  0.00    -0.077 S 
ATOM     26  C   UNL     1       7.126   3.958  -0.341  0.00  0.00    +0.043 C 
ATOM     27  C   UNL     1       8.123   3.144  -1.194  0.00  0.00    +0.010 C 
ATOM     28  C   UNL     1       7.192   2.506  -2.245  0.00  0.00    +0.037 C 
BRANCH  22  29
ATOM     29  C   UNL     1       4.441   0.773  -2.894  0.00  0.00    +0.102 C 
ATOM     30  N   UNL     1       4.335   0.046  -3.761  0.00  0.00    -0.191 NA
ENDBRANCH  22  29
ENDBRANCH  19  21
ENDBRANCH   2  17
TORSDOF 5
