REMARK  Name = ZINC15675482
REMARK  7 active torsions:
REMARK  status: ('A' for Active; 'I' for Inactive)
REMARK    1  A    between atoms: C_1  and  N_2
REMARK    2  A    between atoms: N_2  and  C_3
REMARK    3  A    between atoms: N_2  and  C_4
REMARK    4  A    between atoms: C_7  and  C_10
REMARK    5  A    between atoms: C_10  and  N_11
REMARK    6  A    between atoms: C_20  and  C_22
REMARK    7  A    between atoms: C_24  and  C_27
REMARK                            x       y       z     vdW  Elec       q    Type
REMARK                         _______ _______ _______ _____ _____    ______ ____
ROOT
ATOM      1  N   UNL     1      -1.392  -3.069  -5.340  0.00  0.00    -0.281 NA
ATOM      2  C   UNL     1      -2.065  -3.981  -4.400  0.00  0.00    +0.140 C 
ATOM      3  C   UNL     1      -3.441  -4.285  -4.939  0.00  0.00    +0.051 A 
ATOM      4  C   UNL     1      -3.804  -4.052  -6.220  0.00  0.00    +0.040 A 
ATOM      5  N   UNL     1      -5.100  -4.440  -6.347  0.00  0.00    -0.349 N 
ATOM      6  H   UNL     1      -5.640  -4.395  -7.151  0.00  0.00    +0.166 HD
ATOM      7  C   UNL     1      -5.493  -4.903  -5.137  0.00  0.00    +0.171 A 
ATOM      8  N   UNL     1      -4.491  -4.806  -4.302  0.00  0.00    -0.349 N 
ATOM      9  C   UNL     1      -2.876  -3.469  -7.255  0.00  0.00    +0.083 C 
ATOM     10  C   UNL     1      -1.442  -3.580  -6.717  0.00  0.00    +0.152 C 
ATOM     11  H   UNL     1      -4.508  -5.070  -3.369  0.00  0.00    +0.166 HD
ENDROOT
BRANCH  10  12
ATOM     12  C   UNL     1      -0.516  -2.771  -7.587  0.00  0.00    +0.245 A 
ATOM     13  N   UNL     1       0.317  -3.252  -8.466  0.00  0.00    -0.189 NA
ATOM     14  C   UNL     1       0.987  -2.250  -9.062  0.00  0.00    +0.222 A 
ATOM     15  N   UNL     1       0.577  -1.113  -8.557  0.00  0.00    -0.054 NA
ATOM     16  O   UNL     1      -0.413  -1.436  -7.592  0.00  0.00    -0.336 OA
BRANCH  14  17
ATOM     17  C   UNL     1       2.021  -2.406 -10.116  0.00  0.00    +0.129 A 
ATOM     18  C   UNL     1       2.649  -1.283 -10.652  0.00  0.00    +0.142 A 
ATOM     19  N   UNL     1       3.567  -1.427 -11.589  0.00  0.00    -0.260 NA
ATOM     20  C   UNL     1       3.891  -2.634 -12.020  0.00  0.00    +0.130 A 
ATOM     21  C   UNL     1       3.269  -3.753 -11.490  0.00  0.00    +0.131 A 
ATOM     22  N   UNL     1       2.354  -3.618 -10.548  0.00  0.00    -0.249 NA
ENDBRANCH  14  17
ENDBRANCH  10  12
BRANCH   1  23
ATOM     23  C   UNL     1      -0.006  -2.813  -4.924  0.00  0.00    +0.120 C 
BRANCH  23  27
ATOM     24  C   UNL     1       0.000  -0.696  -1.211  0.00  0.00    +0.029 A 
ATOM     25  C   UNL     1       0.013  -2.085  -1.221  0.00  0.00    +0.023 A 
ATOM     26  C   UNL     1       0.010  -2.766  -2.422  0.00  0.00    +0.007 A 
ATOM     27  C   UNL     1      -0.005  -2.066  -3.615  0.00  0.00    -0.033 A 
ATOM     28  C   UNL     1      -0.018  -0.684  -3.609  0.00  0.00    +0.007 A 
ATOM     29  C   UNL     1      -0.021   0.004  -2.411  0.00  0.00    +0.023 A 
BRANCH  24  31
ATOM     30  C   UNL     1      -0.018   1.461   0.010  0.00  0.00    +0.129 C 
ATOM     31  N   UNL     1       0.002  -0.004   0.002  0.00  0.00    -0.336 N 
ATOM     32  C   UNL     1       0.024  -0.743   1.267  0.00  0.00    +0.129 C 
ENDBRANCH  24  31
ENDBRANCH  23  27
ENDBRANCH   1  23
TORSDOF 5
