REMARK  Name = ZINC35033269
REMARK  9 active torsions:
REMARK  status: ('A' for Active; 'I' for Inactive)
REMARK    1  A    between atoms: C_1  and  C_2
REMARK    2  A    between atoms: C_2  and  N_3
REMARK    3  A    between atoms: C_13  and  C_14
REMARK    4  A    between atoms: C_14  and  C_16
REMARK    5  A    between atoms: C_14  and  N_17
REMARK    6  A    between atoms: N_20  and  S_25
REMARK    7  A    between atoms: C_21  and  C_24
REMARK    8  A    between atoms: S_25  and  C_28
REMARK    9  A    between atoms: C_31  and  C_34
REMARK                            x       y       z     vdW  Elec       q    Type
REMARK                         _______ _______ _______ _____ _____    ______ ____
ROOT
ATOM      1  N   UNL     1      -2.158  -0.929  -3.909  0.00  0.00    -0.290 NA
ATOM      2  C   UNL     1      -2.624  -2.305  -3.693  0.00  0.00    +0.102 C 
ATOM      3  C   UNL     1      -3.963  -2.507  -4.410  0.00  0.00    +0.125 C 
ATOM      4  N   UNL     1      -3.801  -2.119  -5.820  0.00  0.00    -0.171 NA
ATOM      5  C   UNL     1      -3.211  -0.805  -6.117  0.00  0.00    +0.091 C 
ATOM      6  C   UNL     1      -1.902  -0.671  -5.332  0.00  0.00    +0.105 C 
ATOM      7  C   UNL     1      -2.930  -0.695  -7.617  0.00  0.00    +0.027 C 
ENDROOT
BRANCH   4   8
ATOM      8  S   UNL     1      -4.271  -3.135  -7.040  0.00  0.00    +0.061 S 
ATOM      9  O   UNL     1      -3.395  -2.890  -8.132  0.00  0.00    -0.153 OA
ATOM     10  O   UNL     1      -4.423  -4.423  -6.460  0.00  0.00    -0.153 OA
BRANCH   8  11
ATOM     11  C   UNL     1      -5.875  -2.622  -7.557  0.00  0.00    +0.106 A 
ATOM     12  C   UNL     1      -6.999  -3.154  -6.952  0.00  0.00    +0.029 A 
ATOM     13  C   UNL     1      -8.258  -2.751  -7.357  0.00  0.00    +0.005 A 
ATOM     14  C   UNL     1      -8.393  -1.817  -8.366  0.00  0.00    -0.050 A 
ATOM     15  C   UNL     1      -7.270  -1.285  -8.971  0.00  0.00    +0.005 A 
ATOM     16  C   UNL     1      -6.011  -1.684  -8.563  0.00  0.00    +0.029 A 
ATOM     17  C   UNL     1      -9.766  -1.379  -8.809  0.00  0.00    +0.044 C 
ENDBRANCH   8  11
ENDBRANCH   4   8
BRANCH   1  18
ATOM     18  C   UNL     1      -0.967  -0.643  -3.099  0.00  0.00    +0.120 C 
ATOM     19  C   UNL     1       0.151  -1.619  -3.474  0.00  0.00    +0.032 C 
BRANCH  18  30
ATOM     20  N   UNL     1      -2.046   0.166  -1.040  0.00  0.00    -0.295 N 
ATOM     21  C   UNL     1      -2.380   0.068   0.268  0.00  0.00    +0.262 A 
ATOM     22  O   UNL     1      -3.050   0.924   0.815  0.00  0.00    -0.267 OA
ATOM     23  C   UNL     1      -1.902  -1.113   1.002  0.00  0.00    +0.065 A 
ATOM     24  C   UNL     1      -2.190  -1.309   2.351  0.00  0.00    +0.015 A 
ATOM     25  C   UNL     1      -1.717  -2.434   2.989  0.00  0.00    +0.001 A 
ATOM     26  C   UNL     1      -0.957  -3.370   2.300  0.00  0.00    +0.002 A 
ATOM     27  C   UNL     1      -0.661  -3.195   0.967  0.00  0.00    +0.028 A 
ATOM     28  C   UNL     1      -1.130  -2.063   0.298  0.00  0.00    +0.078 A 
ATOM     29  N   UNL     1      -0.862  -1.851  -1.015  0.00  0.00    -0.232 NA
ATOM     30  C   UNL     1      -1.303  -0.801  -1.639  0.00  0.00    +0.130 A 
BRANCH  20  32
ATOM     31  C   UNL     1      -3.920   1.076  -2.322  0.00  0.00    +0.027 C 
ATOM     32  C   UNL     1      -2.496   1.322  -1.820  0.00  0.00    +0.123 C 
ENDBRANCH  20  32
ENDBRANCH  18  30
ENDBRANCH   1  18
TORSDOF 5
