REMARK  Name = ZINC32858021
REMARK  1 active torsions:
REMARK  status: ('A' for Active; 'I' for Inactive)
REMARK    1  A    between atoms: C_12  and  C_14
REMARK                            x       y       z     vdW  Elec       q    Type
REMARK                         _______ _______ _______ _____ _____    ______ ____
ROOT
ATOM      1  C   UNL     1      -0.162   1.092   0.151  0.00  0.00    +0.002 A 
ATOM      2  C   UNL     1       1.006   1.788  -0.103  0.00  0.00    +0.002 A 
ATOM      3  C   UNL     1       1.012   3.171  -0.076  0.00  0.00    +0.025 A 
ATOM      4  C   UNL     1      -0.156   3.857   0.206  0.00  0.00    +0.058 A 
ATOM      5  C   UNL     1      -1.336   3.157   0.467  0.00  0.00    +0.055 A 
ATOM      6  C   UNL     1      -1.334   1.771   0.430  0.00  0.00    +0.025 A 
ATOM      7  N   UNL     1      -2.508   3.863   0.759  0.00  0.00    -0.283 N 
ATOM      8  C   UNL     1      -2.592   5.185   0.516  0.00  0.00    +0.235 C 
ATOM      9  O   UNL     1      -3.602   5.786   0.817  0.00  0.00    -0.274 OA
ATOM     10  C   UNL     1      -1.447   5.927  -0.124  0.00  0.00    +0.210 C 
ATOM     11  N   UNL     1      -0.185   5.259   0.230  0.00  0.00    -0.254 N 
ATOM     12  C   UNL     1       0.908   5.971   0.568  0.00  0.00    +0.287 C 
ATOM     13  O   UNL     1       1.906   5.401   0.968  0.00  0.00    -0.266 OA
ATOM     14  H   UNL     1      -3.373   3.339   1.191  0.00  0.00    +0.155 HD
ENDROOT
BRANCH  12  15
ATOM     15  C   UNL     1       0.894   7.432   0.454  0.00  0.00    +0.192 A 
ATOM     16  C   UNL     1       1.876   8.279   0.882  0.00  0.00    +0.056 A 
ATOM     17  C   UNL     1       1.451   9.580   0.573  0.00  0.00    +0.063 A 
ATOM     18  C   UNL     1       0.240   9.471  -0.024  0.00  0.00    +0.195 A 
ATOM     19  O   UNL     1      -0.089   8.175  -0.098  0.00  0.00    -0.439 OA
ATOM     20 CL   UNL     1      -0.724  10.794  -0.602  0.00  0.00    -0.043 Cl
ENDBRANCH  12  15
TORSDOF 1
