REMARK  Name = ZINC12615591
REMARK  8 active torsions:
REMARK  status: ('A' for Active; 'I' for Inactive)
REMARK    1  A    between atoms: C_1  and  C_2
REMARK    2  A    between atoms: C_5  and  C_8
REMARK    3  A    between atoms: C_8  and  C_9
REMARK    4  A    between atoms: C_9  and  C_10
REMARK    5  A    between atoms: C_15  and  N_16
REMARK    6  A    between atoms: C_15  and  N_58
REMARK    7  A    between atoms: C_19  and  C_23
REMARK    8  A    between atoms: C_19  and  C_24
REMARK                            x       y       z     vdW  Elec       q    Type
REMARK                         _______ _______ _______ _____ _____    ______ ____
ROOT
ATOM      1  C   UNL     1      -2.816   9.203  -4.298  0.00  0.00    -0.014 C 
ATOM      2  C   UNL     1      -3.654   8.029  -4.811  0.00  0.00    -0.015 C 
ATOM      3  C   UNL     1      -4.130   7.191  -3.622  0.00  0.00    -0.076 C 
ATOM      4  C   UNL     1      -2.174   7.806  -2.331  0.00  0.00    -0.076 C 
ATOM      5  C   UNL     1      -1.639   8.662  -3.482  0.00  0.00    -0.015 C 
ATOM      6  N   UNL     1      -2.951   6.680  -2.892  0.00  0.00    +0.390 N 
ATOM      7  H   UNL     1      -2.356   6.157  -3.545  0.00  0.00    -0.079 HD
ENDROOT
BRANCH   1   8
ATOM      8  C   UNL     1      -2.287  10.011  -5.486  0.00  0.00    +0.008 C 
BRANCH   8   9
ATOM      9  C   UNL     1      -1.555  11.252  -4.973  0.00  0.00    +0.035 C 
BRANCH   9  14
ATOM     10  C   UNL     1       0.441  14.302  -9.457  0.00  0.00    +0.044 C 
ATOM     11  C   UNL     1      -0.079  13.507  -8.287  0.00  0.00    -0.050 A 
ATOM     12  C   UNL     1      -1.343  13.761  -7.786  0.00  0.00    +0.003 A 
ATOM     13  C   UNL     1      -1.820  13.031  -6.714  0.00  0.00    +0.004 A 
ATOM     14  C   UNL     1      -1.034  12.048  -6.142  0.00  0.00    -0.047 A 
ATOM     15  C   UNL     1       0.231  11.798  -6.639  0.00  0.00    +0.004 A 
ATOM     16  C   UNL     1       0.707  12.524  -7.715  0.00  0.00    +0.003 A 
ENDBRANCH   9  14
ENDBRANCH   8   9
ENDBRANCH   1   8
BRANCH   6  17
ATOM     17  C   UNL     1      -3.382   5.775  -1.806  0.00  0.00    +0.043 C 
BRANCH  17  18
ATOM     18  N   UNL     1      -2.277   4.869  -1.487  0.00  0.00    -0.241 N 
ATOM     19  C   UNL     1      -2.074   3.678  -2.092  0.00  0.00    +0.245 C 
ATOM     20  O   UNL     1      -2.744   3.174  -2.967  0.00  0.00    -0.273 OA
ATOM     21  C   UNL     1      -0.830   3.102  -1.445  0.00  0.00    +0.112 C 
ATOM     22  N   UNL     1      -0.438   4.129  -0.464  0.00  0.00    -0.285 N 
ATOM     23  C   UNL     1      -1.342   5.120  -0.563  0.00  0.00    +0.308 C 
ATOM     24  O   UNL     1      -1.313   6.131   0.112  0.00  0.00    -0.252 OA
ATOM     25  C   UNL     1       0.275   2.902  -2.485  0.00  0.00    +0.042 C 
ATOM     26  H   UNL     1       0.323   4.096   0.136  0.00  0.00    +0.151 HD
BRANCH  21  27
ATOM     27  C   UNL     1      -1.150   1.781  -0.743  0.00  0.00    +0.021 C 
ATOM     28  C   UNL     1      -0.013   1.086   0.008  0.00  0.00    +0.006 C 
ATOM     29  C   UNL     1      -1.136   1.773   0.788  0.00  0.00    +0.006 C 
ENDBRANCH  21  27
ENDBRANCH  17  18
ENDBRANCH   6  17
TORSDOF 6
