REMARK  Name = ZINC57406144
REMARK  5 active torsions:
REMARK  status: ('A' for Active; 'I' for Inactive)
REMARK    1  A    between atoms: C_1  and  C_2
REMARK    2  A    between atoms: C_5  and  C_24
REMARK    3  A    between atoms: N_8  and  C_10
REMARK    4  A    between atoms: C_10  and  C_12
REMARK    5  A    between atoms: C_10  and  C_18
REMARK                            x       y       z     vdW  Elec       q    Type
REMARK                         _______ _______ _______ _____ _____    ______ ____
ROOT
ATOM      1  C   UNL     1       1.366  -2.507   2.463  0.00  0.00    +0.174 C 
ENDROOT
BRANCH   1   2
ATOM      2  C   UNL     1       1.295  -4.012   2.452  0.00  0.00    +0.242 C 
ATOM      3  O   UNL     1       0.806  -4.589   1.504  0.00  0.00    -0.273 OA
ATOM      4  N   UNL     1       1.774  -4.717   3.496  0.00  0.00    -0.239 N 
ATOM      5  C   UNL     1       1.710  -6.063   3.486  0.00  0.00    +0.303 C 
ATOM      6  O   UNL     1       1.220  -6.641   2.536  0.00  0.00    -0.253 OA
ATOM      7  N   UNL     1       2.189  -6.768   4.530  0.00  0.00    -0.313 N 
ATOM      8  H   UNL     1       2.165  -4.255   4.254  0.00  0.00    +0.159 HD
ATOM      9  H   UNL     1       2.580  -6.307   5.288  0.00  0.00    +0.146 HD
ATOM     10  H   UNL     1       2.143  -7.737   4.523  0.00  0.00    +0.146 HD
ENDBRANCH   1   2
BRANCH   1  16
ATOM     11  C   UNL     1      -0.019   1.526   0.010  0.00  0.00    +0.009 C 
ATOM     12  C   UNL     1       0.002  -0.004   0.002  0.00  0.00    +0.000 C 
ATOM     13  C   UNL     1       0.720  -0.499  -1.256  0.00  0.00    +0.009 C 
ATOM     14  C   UNL     1       0.790  -2.028  -1.227  0.00  0.00    +0.000 C 
ATOM     15  C   UNL     1       1.509  -2.477   0.046  0.00  0.00    +0.088 C 
ATOM     16  N   UNL     1       0.783  -1.980   1.222  0.00  0.00    -0.287 NA
ATOM     17  C   UNL     1       0.744  -0.512   1.241  0.00  0.00    +0.088 C 
ATOM     18  C   UNL     1      -0.628  -2.604  -1.244  0.00  0.00    +0.009 C 
ENDBRANCH   1  16
BRANCH   1  19
ATOM     19  C   UNL     1       0.597  -1.976   3.644  0.00  0.00    -0.021 A 
ATOM     20  C   UNL     1      -0.781  -1.881   3.586  0.00  0.00    +0.005 A 
ATOM     21  C   UNL     1      -1.487  -1.393   4.670  0.00  0.00    +0.000 A 
ATOM     22  C   UNL     1      -0.816  -1.002   5.813  0.00  0.00    +0.000 A 
ATOM     23  C   UNL     1       0.562  -1.098   5.872  0.00  0.00    +0.000 A 
ATOM     24  C   UNL     1       1.268  -1.589   4.789  0.00  0.00    +0.005 A 
ENDBRANCH   1  19
TORSDOF 3
