REMARK  Name = ZINC09794955
REMARK  6 active torsions:
REMARK  status: ('A' for Active; 'I' for Inactive)
REMARK    1  A    between atoms: C_1  and  C_2
REMARK    2  A    between atoms: C_2  and  C_22
REMARK    3  A    between atoms: N_5  and  C_9
REMARK    4  A    between atoms: C_9  and  C_10
REMARK    5  A    between atoms: N_12  and  C_13
REMARK    6  A    between atoms: N_12  and  C_14
REMARK                            x       y       z     vdW  Elec       q    Type
REMARK                         _______ _______ _______ _____ _____    ______ ____
ROOT
ATOM      1  C   UNL     1      -1.886   5.917   1.356  0.00  0.00    +0.047 C 
ATOM      2  C   UNL     1      -2.480   5.380   0.053  0.00  0.00    +0.136 C 
ATOM      3  C   UNL     1      -1.932   6.141  -1.137  0.00  0.00    +0.251 C 
ATOM      4  O   UNL     1      -0.774   6.216  -1.488  0.00  0.00    -0.272 OA
ATOM      5  N   UNL     1      -3.005   6.718  -1.723  0.00  0.00    -0.215 N 
ATOM      6  C   UNL     1      -4.137   6.430  -1.072  0.00  0.00    +0.310 C 
ATOM      7  O   UNL     1      -5.232   6.836  -1.409  0.00  0.00    -0.252 OA
ATOM      8  N   UNL     1      -3.929   5.640  -0.002  0.00  0.00    -0.281 N 
ATOM      9  H   UNL     1      -4.602   5.307   0.612  0.00  0.00    +0.152 HD
ENDROOT
BRANCH   2  10
ATOM     10  C   UNL     1      -2.201   3.905  -0.087  0.00  0.00    -0.008 A 
ATOM     11  C   UNL     1      -3.231   3.020  -0.184  0.00  0.00    +0.007 A 
ATOM     12  C   UNL     1      -2.993   1.654  -0.313  0.00  0.00    +0.001 A 
ATOM     13  C   UNL     1      -1.723   1.164  -0.347  0.00  0.00    +0.008 A 
ATOM     14  C   UNL     1      -0.634   2.047  -0.254  0.00  0.00    -0.018 A 
ATOM     15  C   UNL     1      -0.877   3.437  -0.117  0.00  0.00    -0.012 A 
ATOM     16  C   UNL     1       0.212   4.320  -0.020  0.00  0.00    +0.009 A 
ATOM     17  C   UNL     1       1.481   3.830  -0.052  0.00  0.00    +0.001 A 
ATOM     18  C   UNL     1       1.720   2.463  -0.182  0.00  0.00    +0.001 A 
ATOM     19  C   UNL     1       0.691   1.578  -0.279  0.00  0.00    +0.008 A 
ENDBRANCH   2  10
BRANCH   5  20
ATOM     20  C   UNL     1      -2.935   7.556  -2.922  0.00  0.00    +0.213 C 
BRANCH  20  21
ATOM     21  C   UNL     1      -2.735   8.994  -2.519  0.00  0.00    +0.234 C 
ATOM     22  O   UNL     1      -2.658   9.290  -1.345  0.00  0.00    -0.274 OA
ATOM     23  N   UNL     1      -2.642   9.952  -3.463  0.00  0.00    -0.299 N 
ATOM     24  C   UNL     1      -2.735   9.595  -4.880  0.00  0.00    +0.132 C 
BRANCH  23  25
ATOM     25  C   UNL     1      -2.447  11.350  -3.071  0.00  0.00    +0.098 C 
ATOM     26  C   UNL     1      -1.134  11.879  -3.670  0.00  0.00    +0.046 C 
ATOM     27  C   UNL     1      -1.076  13.420  -3.536  0.00  0.00    +0.168 C 
ATOM     28  S   UNL     1      -2.853  13.893  -3.549  0.00  0.00    -0.029 S 
ATOM     29  O   UNL     1      -3.181  14.496  -2.305  0.00  0.00    -0.174 OA
ATOM     30  O   UNL     1      -3.139  14.584  -4.758  0.00  0.00    -0.174 OA
ATOM     31  C   UNL     1      -3.615  12.217  -3.622  0.00  0.00    +0.188 C 
ENDBRANCH  23  25
ENDBRANCH  20  21
ENDBRANCH   5  20
TORSDOF 4
