REMARK  Name = ZINC40984030
REMARK  9 active torsions:
REMARK  status: ('A' for Active; 'I' for Inactive)
REMARK    1  A    between atoms: C_1  and  C_2
REMARK    2  A    between atoms: C_3  and  C_16
REMARK    3  A    between atoms: C_5  and  C_7
REMARK    4  A    between atoms: C_12  and  O_13
REMARK    5  A    between atoms: O_13  and  C_14
REMARK    6  A    between atoms: C_16  and  N_17
REMARK    7  A    between atoms: C_20  and  C_23
REMARK    8  A    between atoms: N_25  and  C_26
REMARK    9  A    between atoms: N_25  and  C_27
REMARK                            x       y       z     vdW  Elec       q    Type
REMARK                         _______ _______ _______ _____ _____    ______ ____
ROOT
ATOM      1  C   UNL     1      -0.180   3.434  -0.242  0.00  0.00    +0.088 C 
ATOM      2  C   UNL     1       0.340   2.020  -0.210  0.00  0.00    +0.124 A 
ATOM      3  C   UNL     1      -0.401   0.900  -0.140  0.00  0.00    +0.066 A 
ATOM      4  N   UNL     1       0.438  -0.148  -0.134  0.00  0.00    -0.216 NA
ATOM      5  C   UNL     1       1.670   0.300  -0.199  0.00  0.00    +0.231 A 
ATOM      6  O   UNL     1       1.633   1.643  -0.252  0.00  0.00    -0.440 OA
ENDROOT
BRANCH   5   7
ATOM      7  C   UNL     1       2.890  -0.531  -0.217  0.00  0.00    +0.079 A 
ATOM      8  C   UNL     1       2.792  -1.923  -0.168  0.00  0.00    +0.032 A 
ATOM      9  C   UNL     1       3.936  -2.694  -0.185  0.00  0.00    +0.019 A 
ATOM     10  C   UNL     1       5.182  -2.092  -0.249  0.00  0.00    +0.019 A 
ATOM     11  C   UNL     1       5.292  -0.716  -0.298  0.00  0.00    +0.047 A 
ATOM     12  C   UNL     1       4.152   0.072  -0.288  0.00  0.00    +0.132 A 
ATOM     13 BR   UNL     1       3.803  -4.579  -0.118  0.00  0.00    -0.050 Br
BRANCH  12  14
ATOM     14  O   UNL     1       4.258   1.425  -0.342  0.00  0.00    -0.494 OA
ATOM     15  C   UNL     1       5.577   1.970  -0.414  0.00  0.00    +0.277 C 
ENDBRANCH  12  14
ENDBRANCH   5   7
BRANCH   3  16
ATOM     16  C   UNL     1      -1.905   0.833  -0.078  0.00  0.00    -0.019 C 
BRANCH  16  17
ATOM     17  N   UNL     1      -2.449   0.760  -1.441  0.00  0.00    +0.383 N 
ATOM     18  C   UNL     1      -2.136   2.003  -2.157  0.00  0.00    -0.078 C 
ATOM     19  C   UNL     1      -2.628   1.901  -3.602  0.00  0.00    -0.006 C 
ATOM     20  C   UNL     1      -4.143   1.676  -3.605  0.00  0.00    +0.072 C 
ATOM     21  C   UNL     1      -4.464   0.418  -2.792  0.00  0.00    -0.006 C 
ATOM     22  C   UNL     1      -3.903   0.575  -1.377  0.00  0.00    -0.078 C 
ATOM     23  H   UNL     1      -2.032  -0.020  -1.927  0.00  0.00    -0.081 HD
BRANCH  20  24
ATOM     24  C   UNL     1      -4.623   1.496  -5.022  0.00  0.00    +0.218 C 
ATOM     25  O   UNL     1      -3.822   1.417  -5.928  0.00  0.00    -0.275 OA
ATOM     26  N   UNL     1      -5.944   1.424  -5.282  0.00  0.00    -0.307 N 
ATOM     27  C   UNL     1      -6.408   1.111  -6.636  0.00  0.00    +0.131 C 
ATOM     28  C   UNL     1      -6.915   1.657  -4.210  0.00  0.00    +0.131 C 
ENDBRANCH  20  24
ENDBRANCH  16  17
ENDBRANCH   3  16
TORSDOF 5
