REMARK  Name = ZINC02585281
REMARK  2 active torsions:
REMARK  status: ('A' for Active; 'I' for Inactive)
REMARK    1  A    between atoms: C_6  and  C_7
REMARK    2  A    between atoms: C_7  and  N_8
REMARK                            x       y       z     vdW  Elec       q    Type
REMARK                         _______ _______ _______ _____ _____    ______ ____
ROOT
ATOM      1  N   UNL     1       0.087   1.601   0.025  0.00  0.00    -0.309 N 
ATOM      2  C   UNL     1       0.346   0.259  -0.074  0.00  0.00    +0.031 A 
ATOM      3  C   UNL     1       1.620  -0.173  -0.089  0.00  0.00    +0.038 A 
ATOM      4  C   UNL     1       2.674   0.769   0.014  0.00  0.00    +0.279 A 
ATOM      5  O   UNL     1       3.832   0.388   0.008  0.00  0.00    -0.265 OA
ATOM      6  N   UNL     1       2.402   2.078   0.118  0.00  0.00    -0.161 N 
ATOM      7  C   UNL     1       1.111   2.510   0.123  0.00  0.00    +0.237 A 
ATOM      8  N   UNL     1       1.133   3.822   0.232  0.00  0.00    -0.199 NA
ATOM      9  C   UNL     1       2.394   4.248   0.298  0.00  0.00    +0.247 A 
ATOM     10  N   UNL     1       3.203   3.223   0.232  0.00  0.00    -0.149 NA
ATOM     11  C   UNL     1       1.991  -1.627  -0.211  0.00  0.00    +0.042 C 
ATOM     12  C   UNL     1       0.799  -2.519   0.131  0.00  0.00    +0.005 C 
ATOM     13  C   UNL     1      -0.408  -2.040  -0.685  0.00  0.00    +0.006 C 
ATOM     14  C   UNL     1      -0.834  -0.674  -0.153  0.00  0.00    +0.054 C 
ENDROOT
BRANCH   1  15
ATOM     15  C   UNL     1      -1.300   2.072   0.019  0.00  0.00    +0.160 C 
BRANCH  15  21
ATOM     16  C   UNL     1      -2.512   1.167   2.013  0.00  0.00    +0.007 A 
ATOM     17  C   UNL     1      -2.960   1.280   3.316  0.00  0.00    +0.020 A 
ATOM     18  C   UNL     1      -2.698   2.429   4.041  0.00  0.00    +0.041 A 
ATOM     19  C   UNL     1      -1.983   3.463   3.462  0.00  0.00    +0.020 A 
ATOM     20  C   UNL     1      -1.531   3.347   2.161  0.00  0.00    +0.007 A 
ATOM     21  C   UNL     1      -1.793   2.198   1.438  0.00  0.00    -0.028 A 
ATOM     22 CL   UNL     1      -3.266   2.574   5.675  0.00  0.00    -0.084 Cl
ENDBRANCH  15  21
ENDBRANCH   1  15
TORSDOF 2
