REMARK  Name = ZINC63113823
REMARK  4 active torsions:
REMARK  status: ('A' for Active; 'I' for Inactive)
REMARK    1  A    between atoms: C_1  and  C_2
REMARK    2  A    between atoms: C_4  and  C_7
REMARK    3  A    between atoms: C_11  and  C_21
REMARK    4  A    between atoms: C_13  and  C_15
REMARK                            x       y       z     vdW  Elec       q    Type
REMARK                         _______ _______ _______ _____ _____    ______ ____
ROOT
ATOM      1  C   UNL     1      -1.482  -3.360  -0.010  0.00  0.00    +0.268 C 
ATOM      2  O   UNL     1      -0.782  -2.374  -0.130  0.00  0.00    -0.268 OA
ATOM      3  N   UNL     1      -0.917  -4.580   0.082  0.00  0.00    -0.291 N 
ATOM      4  C   UNL     1       0.542  -4.733   0.191  0.00  0.00    +0.139 C 
ATOM      5  C   UNL     1       1.002  -5.750  -0.860  0.00  0.00    +0.133 C 
ATOM      6  O   UNL     1       0.227  -6.944  -0.730  0.00  0.00    -0.366 OA
ATOM      7  C   UNL     1      -1.171  -6.764  -0.970  0.00  0.00    +0.166 C 
ATOM      8  C   UNL     1      -1.742  -5.798   0.081  0.00  0.00    +0.144 C 
ATOM      9  C   UNL     1       0.805  -5.163  -2.259  0.00  0.00    +0.039 C 
ENDROOT
BRANCH   1  13
ATOM     10  C   UNL     1      -6.136  -1.337  -0.210  0.00  0.00    +0.089 C 
ATOM     11  C   UNL     1      -4.999  -2.315  -0.057  0.00  0.00    +0.135 A 
ATOM     12  C   UNL     1      -3.690  -2.029  -0.186  0.00  0.00    +0.080 A 
ATOM     13  C   UNL     1      -2.958  -3.220   0.036  0.00  0.00    +0.168 A 
ATOM     14  N   UNL     1      -3.817  -4.178   0.288  0.00  0.00    -0.073 NA
ATOM     15  O   UNL     1      -5.117  -3.618   0.238  0.00  0.00    -0.359 OA
ENDBRANCH   1  13
BRANCH   7  16
ATOM     16  C   UNL     1      -1.875  -8.092  -0.866  0.00  0.00    -0.017 A 
ATOM     17  C   UNL     1      -1.516  -8.989   0.122  0.00  0.00    +0.006 A 
ATOM     18  C   UNL     1      -2.162 -10.208   0.217  0.00  0.00    +0.000 A 
ATOM     19  C   UNL     1      -3.168 -10.529  -0.676  0.00  0.00    +0.000 A 
ATOM     20  C   UNL     1      -3.527  -9.631  -1.664  0.00  0.00    +0.000 A 
ATOM     21  C   UNL     1      -2.884  -8.411  -1.756  0.00  0.00    +0.006 A 
ENDBRANCH   7  16
TORSDOF 2
