REMARK  Name = ZINC38818393
REMARK  3 active torsions:
REMARK  status: ('A' for Active; 'I' for Inactive)
REMARK    1  A    between atoms: C_6  and  C_7
REMARK    2  A    between atoms: N_8  and  N_9
REMARK    3  A    between atoms: N_9  and  C_10
REMARK                            x       y       z     vdW  Elec       q    Type
REMARK                         _______ _______ _______ _____ _____    ______ ____
ROOT
ATOM      1  N   UNL     1      -0.022  -2.741  -0.111  0.00  0.00    -0.238 N 
ATOM      2  H   UNL     1       0.806  -2.258   0.029  0.00  0.00    +0.174 HD
ENDROOT
BRANCH   1   3
ATOM      3  C   UNL     1       0.001  -4.076  -0.321  0.00  0.00    +0.072 C 
ATOM      4  C   UNL     1      -1.156  -4.801  -0.531  0.00  0.00    +0.154 C 
ATOM      5  N   UNL     1      -1.123  -6.102  -0.735  0.00  0.00    -0.164 NA
ATOM      6  N   UNL     1      -0.078  -6.833  -0.766  0.00  0.00    -0.079 NA
ATOM      7  C   UNL     1       1.160  -6.352  -0.590  0.00  0.00    +0.277 C 
ATOM      8  O   UNL     1       2.131  -7.081  -0.627  0.00  0.00    -0.270 OA
ATOM      9  C   UNL     1       1.303  -4.860  -0.347  0.00  0.00    +0.216 C 
ATOM     10 CL   UNL     1       2.355  -4.169  -1.639  0.00  0.00    -0.105 Cl
ENDBRANCH   1   3
BRANCH   1  12
ATOM     11  C   UNL     1      -1.261  -0.759  -0.018  0.00  0.00    +0.138 C 
ATOM     12  N   UNL     1      -1.244  -2.056  -0.095  0.00  0.00    -0.190 NA
BRANCH  11  18
ATOM     13  C   UNL     1       0.867  -0.582  -1.296  0.00  0.00    +0.012 A 
ATOM     14  C   UNL     1       1.945   0.154  -1.739  0.00  0.00    +0.039 A 
ATOM     15  C   UNL     1       2.064   1.491  -1.393  0.00  0.00    +0.123 A 
ATOM     16  C   UNL     1       1.102   2.096  -0.599  0.00  0.00    +0.039 A 
ATOM     17  C   UNL     1       0.020   1.370  -0.149  0.00  0.00    +0.012 A 
ATOM     18  C   UNL     1      -0.107   0.022  -0.495  0.00  0.00    -0.005 A 
ATOM     19  F   UNL     1       3.123   2.207  -1.830  0.00  0.00    -0.205 F 
ENDBRANCH  11  18
ENDBRANCH   1  12
TORSDOF 3
