REMARK  Name = ZINC41270808
REMARK  5 active torsions:
REMARK  status: ('A' for Active; 'I' for Inactive)
REMARK    1  A    between atoms: C_2  and  N_12
REMARK    2  A    between atoms: C_6  and  N_7
REMARK    3  A    between atoms: C_13  and  C_15
REMARK    4  A    between atoms: N_17  and  C_18
REMARK    5  A    between atoms: C_23  and  C_26
REMARK                            x       y       z     vdW  Elec       q    Type
REMARK                         _______ _______ _______ _____ _____    ______ ____
ROOT
ATOM      1  N   UNL     1       1.160   3.486   0.009  0.00  0.00    -0.275 N 
ATOM      2  C   UNL     1      -0.012   4.146  -0.078  0.00  0.00    +0.303 C 
ATOM      3  O   UNL     1      -1.058   3.530  -0.072  0.00  0.00    -0.265 OA
ATOM      4  H   UNL     1       1.992   3.981   0.069  0.00  0.00    +0.155 HD
ENDROOT
BRANCH   1   6
ATOM      5  C   UNL     1       0.148   1.381   0.625  0.00  0.00    +0.062 A 
ATOM      6  C   UNL     1       1.176   2.087   0.013  0.00  0.00    +0.072 A 
ATOM      7  C   UNL     1       2.221   1.400  -0.595  0.00  0.00    +0.147 A 
ATOM      8  C   UNL     1       2.234   0.017  -0.589  0.00  0.00    +0.081 A 
ATOM      9  C   UNL     1       1.206  -0.682   0.021  0.00  0.00    +0.156 A 
ATOM     10  C   UNL     1       0.165   0.000   0.627  0.00  0.00    +0.163 A 
ATOM     11  F   UNL     1       1.220  -2.033   0.025  0.00  0.00    -0.203 F 
ATOM     12  F   UNL     1       3.223   2.083  -1.191  0.00  0.00    -0.203 F 
BRANCH  10  13
ATOM     13  N   UNL     1      -0.931  -0.751   1.279  0.00  0.00    +0.059 N 
ATOM     14  O   UNL     1      -1.841  -0.156   1.809  0.00  0.00    -0.126 OA
ATOM     15  O   UNL     1      -0.917  -1.960   1.282  0.00  0.00    -0.126 OA
ENDBRANCH  10  13
ENDBRANCH   1   6
BRANCH   2  16
ATOM     16  C   UNL     1      -0.024   5.636  -0.183  0.00  0.00    +0.300 C 
ATOM     17  O   UNL     1       1.022   6.252  -0.190  0.00  0.00    -0.265 OA
ATOM     18  N   UNL     1      -1.195   6.296  -0.271  0.00  0.00    -0.305 N 
ATOM     19  H   UNL     1      -2.031   5.804  -0.265  0.00  0.00    +0.149 HD
BRANCH  18  20
ATOM     20  C   UNL     1      -1.207   7.757  -0.373  0.00  0.00    +0.074 C 
ATOM     21  C   UNL     1      -1.035   8.167  -1.838  0.00  0.00    +0.022 C 
ATOM     22  C   UNL     1      -1.047   9.693  -1.945  0.00  0.00    +0.002 C 
ATOM     23  C   UNL     1      -2.378  10.231  -1.418  0.00  0.00    +0.012 C 
ATOM     24  C   UNL     1      -2.550   9.822   0.046  0.00  0.00    +0.095 C 
ATOM     25  C   UNL     1      -2.538   8.295   0.154  0.00  0.00    +0.034 C 
BRANCH  24  26
ATOM     26  C   UNL     1      -3.882  10.360   0.573  0.00  0.00    +0.393 C 
ATOM     27  F   UNL     1      -4.932   9.830  -0.185  0.00  0.00    -0.170 F 
ATOM     28  F   UNL     1      -4.039   9.985   1.912  0.00  0.00    -0.170 F 
ATOM     29  F   UNL     1      -3.893  11.755   0.475  0.00  0.00    -0.170 F 
ENDBRANCH  24  26
ENDBRANCH  18  20
ENDBRANCH   2  16
TORSDOF 5
