REMARK  Name = ZINC21327824
REMARK  7 active torsions:
REMARK  status: ('A' for Active; 'I' for Inactive)
REMARK    1  A    between atoms: C_6  and  C_27
REMARK    2  A    between atoms: C_7  and  N_9
REMARK    3  A    between atoms: C_10  and  C_12
REMARK    4  A    between atoms: C_12  and  S_13
REMARK    5  A    between atoms: S_13  and  C_14
REMARK    6  A    between atoms: N_18  and  N_19
REMARK    7  A    between atoms: N_20  and  N_21
REMARK                            x       y       z     vdW  Elec       q    Type
REMARK                         _______ _______ _______ _____ _____    ______ ____
ROOT
ATOM      1  S   UNL     1      -1.409  -1.059   0.010  0.00  0.00    -0.075 S 
ENDROOT
BRANCH   1   2
ATOM      2  C   UNL     1       0.002  -0.004   0.002  0.00  0.00    +0.210 A 
ATOM      3  N   UNL     1       1.255  -0.392  -0.012  0.00  0.00    -0.119 NA
ATOM      4  N   UNL     1       2.063   0.752  -0.014  0.00  0.00    -0.109 NA
ATOM      5  C   UNL     1       1.278   1.802  -0.001  0.00  0.00    +0.254 A 
ATOM      6  N   UNL     1      -0.017   1.362   0.009  0.00  0.00    -0.211 N 
ATOM      7  N   UNL     1       1.689   3.128   0.002  0.00  0.00    -0.204 N 
ATOM      8  H   UNL     1       0.942   3.936   0.013  0.00  0.00    +0.177 HD
BRANCH   7   9
ATOM      9  N   UNL     1       3.055   3.438  -0.009  0.00  0.00    -0.189 NA
ATOM     10  C   UNL     1       3.434   4.661  -0.006  0.00  0.00    +0.037 C 
ATOM     11  C   UNL     1       2.534   5.880   0.002  0.00  0.00    +0.052 C 
ATOM     12  C   UNL     1       3.456   7.116  -0.004  0.00  0.00    +0.006 C 
ATOM     13  C   UNL     1       4.778   6.585  -0.615  0.00  0.00    +0.006 C 
ATOM     14  C   UNL     1       4.868   5.159  -0.018  0.00  0.00    +0.052 C 
ENDBRANCH   7   9
BRANCH   6  15
ATOM     15  N   UNL     1      -1.132   2.150   0.019  0.00  0.00    -0.294 N 
ATOM     16  H   UNL     1      -1.032   3.245   0.025  0.00  0.00    +0.163 HD
ATOM     17  H   UNL     1      -2.131   1.689   0.022  0.00  0.00    +0.163 HD
ENDBRANCH   6  15
ENDBRANCH   1   2
BRANCH   1  18
ATOM     18  C   UNL     1      -0.707  -2.732  -0.006  0.00  0.00    +0.173 C 
BRANCH  18  20
ATOM     19  N   UNL     1      -1.536  -5.062  -0.011  0.00  0.00    -0.278 N 
ATOM     20  C   UNL     1      -1.822  -3.745  -0.001  0.00  0.00    +0.228 C 
ATOM     21  O   UNL     1      -2.977  -3.375   0.012  0.00  0.00    -0.275 OA
ATOM     22  H   UNL     1      -0.489  -5.397  -0.022  0.00  0.00    +0.155 HD
BRANCH  19  29
ATOM     23  C   UNL     1      -5.165 -10.094   0.453  0.00  0.00    +0.005 C 
ATOM     24  C   UNL     1      -6.239  -9.378  -0.370  0.00  0.00    +0.005 C 
ATOM     25  C   UNL     1      -6.250  -7.892   0.017  0.00  0.00    +0.043 C 
ATOM     26  C   UNL     1      -4.839  -7.392   0.008  0.00  0.00    -0.004 A 
ATOM     27  C   UNL     1      -3.711  -8.136  -0.007  0.00  0.00    -0.018 A 
ATOM     28  C   UNL     1      -2.471  -7.379  -0.020  0.00  0.00    +0.084 A 
ATOM     29  C   UNL     1      -2.564  -5.995  -0.006  0.00  0.00    +0.090 A 
ATOM     30  S   UNL     1      -4.273  -5.714   0.012  0.00  0.00    -0.077 S 
ATOM     31  C   UNL     1      -3.775  -9.658  -0.014  0.00  0.00    +0.037 C 
BRANCH  28  32
ATOM     32  C   UNL     1      -1.200  -8.037  -0.042  0.00  0.00    +0.102 C 
ATOM     33  N   UNL     1      -0.191  -8.559  -0.060  0.00  0.00    -0.191 NA
ENDBRANCH  28  32
ENDBRANCH  19  29
ENDBRANCH  18  20
ENDBRANCH   1  18
TORSDOF 7
