REMARK  Name = ZINC39782142
REMARK  9 active torsions:
REMARK  status: ('A' for Active; 'I' for Inactive)
REMARK    1  A    between atoms: C_1  and  C_2
REMARK    2  A    between atoms: C_5  and  C_32
REMARK    3  A    between atoms: C_11  and  N_13
REMARK    4  A    between atoms: C_14  and  C_16
REMARK    5  A    between atoms: C_16  and  S_17
REMARK    6  A    between atoms: S_17  and  C_18
REMARK    7  A    between atoms: N_28  and  C_29
REMARK    8  A    between atoms: C_29  and  C_30
REMARK    9  A    between atoms: C_29  and  C_31
REMARK                            x       y       z     vdW  Elec       q    Type
REMARK                         _______ _______ _______ _____ _____    ______ ____
ROOT
ATOM      1  N   UNL     1       2.702  -1.815   1.486  0.00  0.00    -0.255 N 
ATOM      2  C   UNL     1       2.586  -1.723   2.825  0.00  0.00    +0.230 C 
ATOM      3  O   UNL     1       1.668  -1.097   3.312  0.00  0.00    -0.274 OA
ATOM      4  H   UNL     1       3.436  -2.316   1.096  0.00  0.00    +0.158 HD
ENDROOT
BRANCH   1  14
ATOM      5  C   UNL     1      -0.019   1.526   0.010  0.00  0.00    +0.057 C 
ATOM      6  C   UNL     1       0.002  -0.004   0.002  0.00  0.00    +0.205 C 
ATOM      7  C   UNL     1       0.730  -0.508  -1.215  0.00  0.00    +0.032 C 
ATOM      8  C   UNL     1       0.557  -0.406  -2.572  0.00  0.00    +0.066 C 
ATOM      9  N   UNL     1       1.413  -0.994  -3.394  0.00  0.00    -0.161 NA
ATOM     10  N   UNL     1       2.422  -1.671  -2.982  0.00  0.00    -0.076 NA
ATOM     11  C   UNL     1       2.690  -1.839  -1.680  0.00  0.00    +0.290 C 
ATOM     12  O   UNL     1       3.660  -2.492  -1.323  0.00  0.00    -0.266 OA
ATOM     13  C   UNL     1       1.825  -1.244  -0.724  0.00  0.00    +0.106 C 
ATOM     14  C   UNL     1       1.790  -1.207   0.680  0.00  0.00    +0.200 C 
ATOM     15  O   UNL     1       0.745  -0.497   1.125  0.00  0.00    -0.471 OA
ATOM     16  C   UNL     1      -0.607   0.375  -3.127  0.00  0.00    +0.068 C 
ENDBRANCH   1  14
BRANCH   2  17
ATOM     17  C   UNL     1       3.596  -2.397   3.718  0.00  0.00    +0.173 C 
BRANCH  17  18
ATOM     18  S   UNL     1       3.168  -2.090   5.454  0.00  0.00    -0.078 S 
BRANCH  18  19
ATOM     19  C   UNL     1       4.425  -2.932   6.357  0.00  0.00    +0.173 A 
ATOM     20  N   UNL     1       5.359  -3.563   5.689  0.00  0.00    -0.223 NA
ATOM     21  C   UNL     1       6.350  -4.227   6.315  0.00  0.00    +0.079 A 
ATOM     22  C   UNL     1       7.346  -4.901   5.602  0.00  0.00    +0.028 A 
ATOM     23  C   UNL     1       8.334  -5.561   6.278  0.00  0.00    +0.002 A 
ATOM     24  C   UNL     1       8.363  -5.574   7.667  0.00  0.00    +0.001 A 
ATOM     25  C   UNL     1       7.403  -4.924   8.392  0.00  0.00    +0.015 A 
ATOM     26  C   UNL     1       6.384  -4.242   7.729  0.00  0.00    +0.065 A 
ATOM     27  C   UNL     1       5.327  -3.527   8.456  0.00  0.00    +0.263 A 
ATOM     28  O   UNL     1       5.302  -3.503   9.672  0.00  0.00    -0.267 OA
ATOM     29  N   UNL     1       4.385  -2.890   7.722  0.00  0.00    -0.285 N 
BRANCH  29  30
ATOM     30  C   UNL     1       3.311  -2.156   8.396  0.00  0.00    +0.087 C 
ATOM     31  C   UNL     1       2.514  -3.117   9.281  0.00  0.00    +0.031 C 
ATOM     32  C   UNL     1       3.915  -1.048   9.260  0.00  0.00    +0.031 C 
ENDBRANCH  29  30
ENDBRANCH  18  19
ENDBRANCH  17  18
ENDBRANCH   2  17
TORSDOF 5
