REMARK  Name = ZINC64056453
REMARK  9 active torsions:
REMARK  status: ('A' for Active; 'I' for Inactive)
REMARK    1  A    between atoms: C_1  and  C_2
REMARK    2  A    between atoms: C_2  and  C_4
REMARK    3  A    between atoms: C_2  and  O_29
REMARK    4  A    between atoms: C_7  and  S_9
REMARK    5  A    between atoms: S_9  and  C_10
REMARK    6  A    between atoms: C_10  and  C_12
REMARK    7  A    between atoms: C_10  and  C_18
REMARK    8  A    between atoms: C_18  and  C_20
REMARK    9  A    between atoms: O_29  and  C_30
REMARK                            x       y       z     vdW  Elec       q    Type
REMARK                         _______ _______ _______ _____ _____    ______ ____
ROOT
ATOM      1  C   UNL     1       2.956  -1.286  -5.519  0.00  0.00    +0.156 C 
ENDROOT
BRANCH   1   2
ATOM      2  C   UNL     1       2.780   0.172  -5.858  0.00  0.00    -0.027 A 
ATOM      3  C   UNL     1       3.839   1.048  -5.711  0.00  0.00    +0.005 A 
ATOM      4  C   UNL     1       3.678   2.385  -6.022  0.00  0.00    +0.000 A 
ATOM      5  C   UNL     1       2.457   2.846  -6.479  0.00  0.00    +0.000 A 
ATOM      6  C   UNL     1       1.399   1.970  -6.626  0.00  0.00    +0.000 A 
ATOM      7  C   UNL     1       1.561   0.632  -6.320  0.00  0.00    +0.005 A 
ENDBRANCH   1   2
BRANCH   1   8
ATOM      8  C   UNL     1       4.043  -1.874  -6.381  0.00  0.00    +0.179 C 
ATOM      9  O   UNL     1       5.181  -1.938  -5.963  0.00  0.00    -0.291 OA
BRANCH   8  10
ATOM     10  C   UNL     1       3.739  -2.350  -7.674  0.00  0.00    +0.025 C 
ATOM     11  C   UNL     1       4.612  -2.919  -8.584  0.00  0.00    +0.006 A 
ATOM     12  C   UNL     1       5.999  -3.199  -8.541  0.00  0.00    +0.010 A 
ATOM     13  C   UNL     1       6.611  -3.774  -9.600  0.00  0.00    +0.001 A 
ATOM     14  C   UNL     1       5.921  -4.118 -10.774  0.00  0.00    +0.002 A 
ATOM     15  C   UNL     1       4.597  -3.893 -10.917  0.00  0.00    +0.026 A 
ATOM     16  C   UNL     1       3.853  -3.270  -9.809  0.00  0.00    +0.043 A 
ATOM     17  N   UNL     1       2.599  -2.945  -9.678  0.00  0.00    -0.380 N 
ATOM     18  C   UNL     1       2.387  -2.351  -8.354  0.00  0.00    +0.152 C 
ATOM     19  H   UNL     1       1.912  -3.078 -10.350  0.00  0.00    +0.160 HD
ENDBRANCH   8  10
ENDBRANCH   1   8
BRANCH   1  20
ATOM     20  S   UNL     1       3.414  -1.450  -3.772  0.00  0.00    -0.049 S 
BRANCH  20  24
ATOM     21  C   UNL     1       0.626  -0.283  -1.345  0.00  0.00    +0.258 A 
ATOM     22  N   UNL     1       0.073  -0.073  -2.503  0.00  0.00    -0.108 NA
ATOM     23  N   UNL     1       0.887  -0.417  -3.438  0.00  0.00    -0.101 NA
ATOM     24  C   UNL     1       1.998  -0.862  -2.903  0.00  0.00    +0.278 A 
ATOM     25  O   UNL     1       1.859  -0.781  -1.566  0.00  0.00    -0.412 OA
BRANCH  21  27
ATOM     26  C   UNL     1       0.004   1.495   0.268  0.00  0.00    +0.062 C 
ATOM     27  C   UNL     1       0.005  -0.012   0.001  0.00  0.00    +0.257 C 
BRANCH  27  28
ATOM     28  O   UNL     1      -1.339  -0.499   0.012  0.00  0.00    -0.480 OA
BRANCH  28  29
ATOM     29  C   UNL     1      -1.869  -0.818   1.222  0.00  0.00    +0.122 A 
ATOM     30  C   UNL     1      -3.124  -1.405   1.297  0.00  0.00    +0.048 A 
ATOM     31  C   UNL     1      -3.662  -1.729   2.527  0.00  0.00    +0.042 A 
ATOM     32  C   UNL     1      -2.951  -1.467   3.686  0.00  0.00    +0.124 A 
ATOM     33  C   UNL     1      -1.699  -0.880   3.613  0.00  0.00    +0.042 A 
ATOM     34  C   UNL     1      -1.155  -0.561   2.383  0.00  0.00    +0.048 A 
ATOM     35  F   UNL     1      -3.478  -1.784   4.888  0.00  0.00    -0.205 F 
ENDBRANCH  28  29
ENDBRANCH  27  28
ENDBRANCH  21  27
ENDBRANCH  20  24
ENDBRANCH   1  20
TORSDOF 8
