REMARK  Name = ZINC51734449
REMARK  3 active torsions:
REMARK  status: ('A' for Active; 'I' for Inactive)
REMARK    1  A    between atoms: C_1  and  C_2
REMARK    2  A    between atoms: C_7  and  C_10
REMARK    3  A    between atoms: C_11  and  C_13
REMARK                            x       y       z     vdW  Elec       q    Type
REMARK                         _______ _______ _______ _____ _____    ______ ____
ROOT
ATOM      1  C   UNL     1       2.864  -3.890  -1.351  0.00  0.00    +0.157 C 
ATOM      2  C   UNL     1       1.972  -5.006  -1.914  0.00  0.00    +0.036 C 
ATOM      3  C   UNL     1       2.518  -5.433  -3.276  0.00  0.00    +0.039 C 
ATOM      4  C   UNL     1       3.989  -5.743  -3.181  0.00  0.00    -0.026 A 
ATOM      5  C   UNL     1       4.570  -6.540  -4.154  0.00  0.00    +0.005 A 
ATOM      6  C   UNL     1       5.917  -6.839  -4.096  0.00  0.00    +0.000 A 
ATOM      7  C   UNL     1       6.696  -6.344  -3.066  0.00  0.00    +0.002 A 
ATOM      8  C   UNL     1       6.124  -5.550  -2.092  0.00  0.00    +0.023 A 
ATOM      9  C   UNL     1       4.768  -5.249  -2.147  0.00  0.00    +0.031 A 
ATOM     10  N   UNL     1       4.207  -4.448  -1.145  0.00  0.00    -0.333 N 
ATOM     11  H   UNL     1       4.697  -4.265  -0.328  0.00  0.00    +0.147 HD
ENDROOT
BRANCH   1  20
ATOM     12  C   UNL     1      -0.019   1.526   0.010  0.00  0.00    +0.007 C 
ATOM     13  C   UNL     1       0.002  -0.004   0.002  0.00  0.00    -0.011 C 
ATOM     14  C   UNL     1       0.718  -0.497  -1.258  0.00  0.00    +0.022 C 
ATOM     15  C   UNL     1       0.706  -2.029  -1.280  0.00  0.00    +0.108 C 
ATOM     16  N   UNL     1       1.285  -2.525  -0.024  0.00  0.00    -0.297 N 
ATOM     17  C   UNL     1       0.730  -2.043   1.248  0.00  0.00    +0.073 C 
ATOM     18  C   UNL     1       0.742  -0.511   1.242  0.00  0.00    +0.025 C 
ATOM     19  C   UNL     1      -0.706  -2.547   1.406  0.00  0.00    +0.028 C 
ATOM     20  C   UNL     1       2.305  -3.405  -0.038  0.00  0.00    +0.236 C 
ATOM     21  O   UNL     1       2.775  -3.807   1.006  0.00  0.00    -0.274 OA
ENDBRANCH   1  20
TORSDOF 1
