REMARK  Name = ZINC08445553
REMARK  5 active torsions:
REMARK  status: ('A' for Active; 'I' for Inactive)
REMARK    1  A    between atoms: C_4  and  O_7
REMARK    2  A    between atoms: O_7  and  C_8
REMARK    3  A    between atoms: N_10  and  C_11
REMARK    4  A    between atoms: C_11  and  C_17
REMARK    5  A    between atoms: N_21  and  C_22
REMARK                            x       y       z     vdW  Elec       q    Type
REMARK                         _______ _______ _______ _____ _____    ______ ____
ROOT
ATOM      1  C   UNL     1       1.269  -1.185   0.830  0.00  0.00    +0.099 C 
ATOM      2  C   UNL     1       2.537  -1.389  -0.002  0.00  0.00    +0.034 C 
ATOM      3  C   UNL     1       2.208  -2.234  -1.234  0.00  0.00    +0.003 C 
ATOM      4  C   UNL     1       1.665  -3.594  -0.789  0.00  0.00    +0.000 C 
ATOM      5  C   UNL     1       0.398  -3.390   0.043  0.00  0.00    +0.003 C 
ATOM      6  C   UNL     1       0.727  -2.544   1.275  0.00  0.00    +0.034 C 
ENDROOT
BRANCH   1   7
ATOM      7  C   UNL     1       1.593  -0.352   2.043  0.00  0.00    +0.180 A 
ATOM      8  N   UNL     1       2.723   0.262   2.283  0.00  0.00    -0.111 NA
ATOM      9  N   UNL     1       2.670   0.886   3.404  0.00  0.00    -0.023 NA
ATOM     10  N   UNL     1       1.518   0.711   3.958  0.00  0.00    -0.039 NA
ATOM     11  N   UNL     1       0.773  -0.105   3.088  0.00  0.00    -0.195 N 
BRANCH  11  12
ATOM     12  C   UNL     1      -0.540  -0.565   3.267  0.00  0.00    +0.069 A 
ATOM     13  C   UNL     1      -1.468  -0.433   2.244  0.00  0.00    +0.029 A 
ATOM     14  C   UNL     1      -2.760  -0.890   2.421  0.00  0.00    +0.017 A 
ATOM     15  C   UNL     1      -3.130  -1.472   3.621  0.00  0.00    +0.018 A 
ATOM     16  C   UNL     1      -2.208  -1.600   4.644  0.00  0.00    +0.017 A 
ATOM     17  C   UNL     1      -0.914  -1.149   4.470  0.00  0.00    +0.029 A 
ATOM     18 BR   UNL     1      -4.900  -2.091   3.862  0.00  0.00    -0.050 Br
ENDBRANCH  11  12
ENDBRANCH   1   7
BRANCH   1  21
ATOM     19  C   UNL     1       0.475   0.767  -0.393  0.00  0.00    +0.406 C 
ATOM     20  O   UNL     1       1.464   1.369  -0.022  0.00  0.00    -0.226 OA
ATOM     21  N   UNL     1       0.260  -0.497   0.021  0.00  0.00    -0.268 N 
ATOM     22  H   UNL     1      -0.564  -0.951  -0.216  0.00  0.00    +0.153 HD
BRANCH  19  23
ATOM     23  O   UNL     1      -0.402   1.362  -1.224  0.00  0.00    -0.412 OA
BRANCH  23  27
ATOM     24  C   UNL     1       0.407   5.254  -2.328  0.00  0.00    +0.000 A 
ATOM     25  C   UNL     1      -0.892   4.782  -2.366  0.00  0.00    +0.004 A 
ATOM     26  C   UNL     1      -1.165   3.479  -1.997  0.00  0.00    +0.046 A 
ATOM     27  C   UNL     1      -0.136   2.645  -1.588  0.00  0.00    +0.133 A 
ATOM     28  C   UNL     1       1.166   3.123  -1.544  0.00  0.00    +0.046 A 
ATOM     29  C   UNL     1       1.435   4.425  -1.920  0.00  0.00    +0.004 A 
ENDBRANCH  23  27
ENDBRANCH  19  23
ENDBRANCH   1  21
TORSDOF 5
