REMARK  Name = ZINC66313292
REMARK  5 active torsions:
REMARK  status: ('A' for Active; 'I' for Inactive)
REMARK    1  A    between atoms: C_1  and  C_2
REMARK    2  A    between atoms: C_2  and  C_4
REMARK    3  A    between atoms: C_2  and  N_14
REMARK    4  A    between atoms: N_6  and  C_7
REMARK    5  A    between atoms: C_7  and  C_8
REMARK                            x       y       z     vdW  Elec       q    Type
REMARK                         _______ _______ _______ _____ _____    ______ ____
ROOT
ATOM      1  C   UNL     1      -0.019   1.526   0.010  0.00  0.00    +0.038 C 
ATOM      2  C   UNL     1       0.002  -0.004   0.002  0.00  0.00    +0.168 C 
ENDROOT
BRANCH   2   3
ATOM      3  N   UNL     1      -1.372  -0.511   0.012  0.00  0.00    -0.212 N 
ATOM      4  C   UNL     1      -1.884  -1.299   0.983  0.00  0.00    +0.247 C 
ATOM      5  O   UNL     1      -1.317  -1.706   1.974  0.00  0.00    -0.273 OA
ATOM      6  C   UNL     1      -3.310  -1.562   0.571  0.00  0.00    +0.113 C 
ATOM      7  C   UNL     1      -4.293  -1.049   1.631  0.00  0.00    +0.035 C 
ATOM      8  C   UNL     1      -5.452  -2.080   1.597  0.00  0.00    +0.003 C 
ATOM      9  C   UNL     1      -4.713  -3.422   1.363  0.00  0.00    +0.003 C 
ATOM     10  C   UNL     1      -3.568  -3.060   0.391  0.00  0.00    +0.035 C 
ATOM     11  N   UNL     1      -3.467  -0.837  -0.691  0.00  0.00    -0.285 N 
ATOM     12  C   UNL     1      -2.280  -0.247  -0.936  0.00  0.00    +0.310 C 
ATOM     13  O   UNL     1      -2.057   0.445  -1.911  0.00  0.00    -0.252 OA
ATOM     14  H   UNL     1      -4.265  -0.789  -1.239  0.00  0.00    +0.151 HD
ENDBRANCH   2   3
BRANCH   2  15
ATOM     15  C   UNL     1       0.707  -0.490  -1.238  0.00  0.00    +0.234 C 
ATOM     16  O   UNL     1       0.120  -1.191  -2.034  0.00  0.00    -0.274 OA
ATOM     17  N   UNL     1       1.991  -0.146  -1.462  0.00  0.00    -0.311 N 
ATOM     18  H   UNL     1       2.461   0.415  -0.825  0.00  0.00    +0.149 HD
BRANCH  17  19
ATOM     19  C   UNL     1       2.677  -0.618  -2.667  0.00  0.00    +0.135 C 
BRANCH  19  20
ATOM     20  C   UNL     1       4.112  -0.089  -2.678  0.00  0.00    +0.135 C 
ATOM     21  C   UNL     1       4.805  -0.480  -4.001  0.00  0.00    +0.035 C 
ATOM     22  C   UNL     1       6.240  -0.838  -3.528  0.00  0.00    +0.031 C 
ATOM     23  C   UNL     1       5.947  -1.454  -2.136  0.00  0.00    +0.160 C 
ATOM     24  O   UNL     1       4.856  -0.680  -1.606  0.00  0.00    -0.375 OA
ENDBRANCH  19  20
ENDBRANCH  17  19
ENDBRANCH   2  15
TORSDOF 4
