REMARK  Name = ZINC25468832
REMARK  8 active torsions:
REMARK  status: ('A' for Active; 'I' for Inactive)
REMARK    1  A    between atoms: C_1  and  C_2
REMARK    2  A    between atoms: C_7  and  C_8
REMARK    3  A    between atoms: N_10  and  C_11
REMARK    4  A    between atoms: C_11  and  C_13
REMARK    5  A    between atoms: C_11  and  C_20
REMARK    6  A    between atoms: N_24  and  C_25
REMARK    7  A    between atoms: C_27  and  C_31
REMARK    8  A    between atoms: C_27  and  C_32
REMARK                            x       y       z     vdW  Elec       q    Type
REMARK                         _______ _______ _______ _____ _____    ______ ____
ROOT
ATOM      1  C   UNL     1      -4.659   1.502  -1.119  0.00  0.00    +0.261 C 
ATOM      2  O   UNL     1      -4.749   0.289  -1.152  0.00  0.00    -0.269 OA
ATOM      3  N   UNL     1      -3.582   2.083  -0.554  0.00  0.00    -0.296 N 
ATOM      4  H   UNL     1      -3.500   3.179  -0.524  0.00  0.00    +0.150 HD
ENDROOT
BRANCH   1  11
ATOM      5  C   UNL     1      -7.251   0.430  -2.497  0.00  0.00    +0.047 C 
ATOM      6  C   UNL     1      -6.860   1.872  -2.298  0.00  0.00    -0.010 A 
ATOM      7  C   UNL     1      -7.590   2.999  -2.693  0.00  0.00    +0.042 A 
ATOM      8  C   UNL     1      -6.860   4.128  -2.322  0.00  0.00    +0.028 A 
ATOM      9  N   UNL     1      -5.743   3.715  -1.722  0.00  0.00    -0.354 N 
ATOM     10  H   UNL     1      -5.017   4.451  -1.345  0.00  0.00    +0.166 HD
ATOM     11  C   UNL     1      -5.724   2.334  -1.694  0.00  0.00    +0.106 A 
ATOM     12  C   UNL     1      -7.331   5.534  -2.597  0.00  0.00    +0.060 C 
ATOM     13  C   UNL     1      -8.370   5.508  -3.721  0.00  0.00    -0.023 C 
ATOM     14  C   UNL     1      -9.486   4.508  -3.403  0.00  0.00    +0.086 C 
ATOM     15  C   UNL     1      -8.887   3.110  -3.378  0.00  0.00    +0.166 C 
ATOM     16  O   UNL     1      -9.440   2.156  -3.885  0.00  0.00    -0.292 OA
ATOM     17  C   UNL     1      -7.687   5.101  -5.029  0.00  0.00    +0.011 C 
ATOM     18  C   UNL     1      -8.974   6.904  -3.881  0.00  0.00    +0.011 C 
ENDBRANCH   1  11
BRANCH   3  19
ATOM     19  C   UNL     1      -2.519   1.253   0.020  0.00  0.00    +0.172 C 
BRANCH  19  20
ATOM     20  C   UNL     1      -1.224   2.023   0.019  0.00  0.00    +0.015 A 
ATOM     21  C   UNL     1      -1.242   3.405   0.032  0.00  0.00    +0.009 A 
ATOM     22  C   UNL     1      -0.054   4.112   0.025  0.00  0.00    +0.001 A 
ATOM     23  C   UNL     1       1.153   3.438   0.010  0.00  0.00    +0.003 A 
ATOM     24  C   UNL     1       1.173   2.056   0.002  0.00  0.00    +0.039 A 
ATOM     25  C   UNL     1      -0.016   1.347   0.009  0.00  0.00    +0.129 A 
ATOM     26  F   UNL     1       0.002  -0.004   0.002  0.00  0.00    -0.205 F 
ENDBRANCH  19  20
BRANCH  19  27
ATOM     27  C   UNL     1      -2.881   0.881   1.435  0.00  0.00    +0.134 A 
ATOM     28  N   UNL     1      -3.353   1.697   2.339  0.00  0.00    -0.238 NA
ATOM     29  C   UNL     1      -3.561   1.021   3.478  0.00  0.00    +0.130 A 
ATOM     30  C   UNL     1      -3.197  -0.260   3.276  0.00  0.00    +0.106 A 
ATOM     31  N   UNL     1      -2.766  -0.349   1.980  0.00  0.00    -0.336 N 
ATOM     32  C   UNL     1      -2.272  -1.554   1.309  0.00  0.00    +0.150 C 
ENDBRANCH  19  27
ENDBRANCH   3  19
TORSDOF 4
