REMARK  Name = ZINC12861905
REMARK  5 active torsions:
REMARK  status: ('A' for Active; 'I' for Inactive)
REMARK    1  A    between atoms: C_1  and  C_2
REMARK    2  A    between atoms: C_2  and  C_3
REMARK    3  A    between atoms: C_12  and  C_13
REMARK    4  A    between atoms: C_12  and  N_50
REMARK    5  A    between atoms: C_17  and  C_26
REMARK                            x       y       z     vdW  Elec       q    Type
REMARK                         _______ _______ _______ _____ _____    ______ ____
ROOT
ATOM      1  C   UNL     1       0.018   4.085  -0.457  0.00  0.00    +0.203 C 
ATOM      2  O   UNL     1       0.111   5.289  -0.573  0.00  0.00    -0.277 OA
ATOM      3  N   UNL     1       1.105   3.351  -0.149  0.00  0.00    -0.266 N 
ATOM      4  C   UNL     1       0.998   1.907   0.121  0.00  0.00    +0.168 C 
ATOM      5  C   UNL     1       1.895   1.592   1.326  0.00  0.00    +0.276 C 
ATOM      6  O   UNL     1       3.235   1.988   1.020  0.00  0.00    -0.476 OA
ATOM      7  C   UNL     1       3.428   3.237   0.521  0.00  0.00    +0.143 A 
ATOM      8  C   UNL     1       2.381   3.936  -0.073  0.00  0.00    +0.078 A 
ATOM      9  C   UNL     1       2.593   5.207  -0.584  0.00  0.00    +0.027 A 
ATOM     10  C   UNL     1       3.848   5.782  -0.500  0.00  0.00    +0.002 A 
ATOM     11  C   UNL     1       4.888   5.091   0.092  0.00  0.00    +0.004 A 
ATOM     12  C   UNL     1       4.682   3.822   0.601  0.00  0.00    +0.047 A 
ENDROOT
BRANCH   5  13
ATOM     13  C   UNL     1       1.859   0.113   1.611  0.00  0.00    +0.253 C 
ATOM     14  O   UNL     1       2.860  -0.557   1.469  0.00  0.00    -0.272 OA
ATOM     15  N   UNL     1       0.713  -0.466   2.023  0.00  0.00    -0.326 N 
ATOM     16  H   UNL     1      -0.087   0.070   2.136  0.00  0.00    +0.145 HD
ATOM     17  H   UNL     1       0.689  -1.418   2.206  0.00  0.00    +0.145 HD
ENDBRANCH   5  13
BRANCH   1  18
ATOM     18  C   UNL     1      -1.315   3.410  -0.659  0.00  0.00    +0.020 C 
BRANCH  18  27
ATOM     19  C   UNL     1      -2.000   5.024  -2.328  0.00  0.00    -0.036 C 
ATOM     20  C   UNL     1      -3.062   6.071  -2.650  0.00  0.00    -0.051 A 
ATOM     21  C   UNL     1      -3.293   6.575  -3.928  0.00  0.00    +0.010 A 
ATOM     22  C   UNL     1      -4.259   7.503  -4.125  0.00  0.00    +0.045 A 
ATOM     23  S   UNL     1      -4.907   7.717  -2.473  0.00  0.00    -0.101 S 
ATOM     24  C   UNL     1      -3.848   6.561  -1.651  0.00  0.00    -0.010 A 
ATOM     25  C   UNL     1      -3.793   6.184  -0.206  0.00  0.00    +0.024 C 
ATOM     26  C   UNL     1      -2.479   5.419   0.029  0.00  0.00    -0.072 C 
ATOM     27  N   UNL     1      -2.350   4.393  -1.034  0.00  0.00    +0.390 N 
ATOM     28  H   UNL     1      -3.249   3.907  -1.135  0.00  0.00    -0.080 HD
BRANCH  19  30
ATOM     29  C   UNL     1      -3.347   3.243  -3.448  0.00  0.00    +0.002 C 
ATOM     30  C   UNL     1      -1.989   3.947  -3.414  0.00  0.00    -0.014 C 
ENDBRANCH  19  30
ENDBRANCH  18  27
ENDBRANCH   1  18
TORSDOF 4
