REMARK  Name = ZINC62436492
REMARK  7 active torsions:
REMARK  status: ('A' for Active; 'I' for Inactive)
REMARK    1  A    between atoms: C_1  and  C_2
REMARK    2  A    between atoms: C_3  and  C_10
REMARK    3  A    between atoms: C_4  and  C_7
REMARK    4  A    between atoms: C_7  and  C_8
REMARK    5  A    between atoms: C_7  and  C_9
REMARK    6  A    between atoms: C_16  and  C_18
REMARK    7  A    between atoms: C_23  and  C_26
REMARK                            x       y       z     vdW  Elec       q    Type
REMARK                         _______ _______ _______ _____ _____    ______ ____
ROOT
ATOM      1  C   UNL     1      -0.005  -0.429  -2.588  0.00  0.00    +0.252 C 
ATOM      2  O   UNL     1       1.043  -0.234  -3.174  0.00  0.00    -0.270 OA
ATOM      3  N   UNL     1      -1.178  -0.245  -3.225  0.00  0.00    -0.286 N 
ATOM      4  C   UNL     1      -2.515  -0.438  -2.636  0.00  0.00    +0.109 C 
ATOM      5  C   UNL     1      -3.455   0.454  -3.485  0.00  0.00    +0.021 C 
ATOM      6  C   UNL     1      -2.850   0.282  -4.903  0.00  0.00    +0.033 C 
ATOM      7  C   UNL     1      -1.336   0.187  -4.621  0.00  0.00    +0.162 C 
ENDROOT
BRANCH   7   8
ATOM      8  C   UNL     1      -0.690   1.535  -4.817  0.00  0.00    +0.236 C 
ATOM      9  O   UNL     1      -0.147   2.088  -3.884  0.00  0.00    -0.274 OA
ATOM     10  N   UNL     1      -0.716   2.125  -6.028  0.00  0.00    -0.300 N 
ATOM     11  C   UNL     1      -1.375   1.470  -7.166  0.00  0.00    +0.108 C 
ATOM     12  C   UNL     1      -0.382   1.389  -8.331  0.00  0.00    +0.022 C 
ATOM     13  C   UNL     1       0.155   2.789  -8.636  0.00  0.00    -0.011 C 
ATOM     14  C   UNL     1       0.892   3.333  -7.410  0.00  0.00    +0.022 C 
ATOM     15  C   UNL     1      -0.090   3.439  -6.234  0.00  0.00    +0.108 C 
ATOM     16  C   UNL     1       1.121   2.717  -9.821  0.00  0.00    +0.007 C 
ENDBRANCH   7   8
BRANCH   1  19
ATOM     17  C   UNL     1      -0.018   1.503   0.010  0.00  0.00    +0.070 C 
ATOM     18  C   UNL     1       0.002  -0.004   0.002  0.00  0.00    +0.093 A 
ATOM     19  C   UNL     1       0.009  -0.867  -1.180  0.00  0.00    +0.102 A 
ATOM     20  C   UNL     1       0.029  -2.155  -0.729  0.00  0.00    +0.152 A 
ATOM     21  O   UNL     1       0.035  -2.126   0.606  0.00  0.00    -0.358 OA
ATOM     22  N   UNL     1       0.023  -0.782   1.044  0.00  0.00    -0.083 NA
BRANCH  20  23
ATOM     23  C   UNL     1       0.042  -3.394  -1.587  0.00  0.00    +0.052 C 
ATOM     24  C   UNL     1       1.304  -4.206  -1.291  0.00  0.00    +0.015 C 
ATOM     25  C   UNL     1      -1.194  -4.242  -1.279  0.00  0.00    +0.015 C 
ENDBRANCH  20  23
ENDBRANCH   1  19
TORSDOF 3
