REMARK  Name = ZINC30994886
REMARK  3 active torsions:
REMARK  status: ('A' for Active; 'I' for Inactive)
REMARK    1  A    between atoms: C_9  and  C_11
REMARK    2  A    between atoms: C_11  and  N_12
REMARK    3  A    between atoms: N_20  and  C_21
REMARK                            x       y       z     vdW  Elec       q    Type
REMARK                         _______ _______ _______ _____ _____    ______ ____
ROOT
ATOM      1  N   UNL     1       1.235  -4.620  -1.292  0.00  0.00    -0.294 NA
ATOM      2  C   UNL     1       0.342  -4.382  -2.434  0.00  0.00    +0.104 C 
ATOM      3  C   UNL     1       1.106  -4.633  -3.738  0.00  0.00    +0.124 C 
ATOM      4  N   UNL     1       1.698  -5.978  -3.681  0.00  0.00    -0.283 N 
ATOM      5  C   UNL     1       2.496  -6.338  -2.499  0.00  0.00    +0.124 C 
ATOM      6  C   UNL     1       1.677  -6.020  -1.243  0.00  0.00    +0.104 C 
ATOM      7  C   UNL     1       1.515  -6.858  -4.686  0.00  0.00    +0.302 C 
ATOM      8  O   UNL     1       0.776  -6.579  -5.610  0.00  0.00    -0.253 OA
ATOM      9  N   UNL     1       2.151  -8.046  -4.665  0.00  0.00    -0.296 N 
ATOM     10  H   UNL     1       2.682  -8.299  -3.894  0.00  0.00    +0.151 HD
ENDROOT
BRANCH   9  11
ATOM     11  C   UNL     1       2.038  -8.957  -5.808  0.00  0.00    +0.074 C 
ATOM     12  C   UNL     1       0.800  -9.862  -5.642  0.00  0.00    +0.022 C 
ATOM     13  C   UNL     1       1.254 -11.232  -6.205  0.00  0.00    +0.002 C 
ATOM     14  C   UNL     1       2.723 -11.329  -5.725  0.00  0.00    +0.002 C 
ATOM     15  C   UNL     1       3.261  -9.889  -5.860  0.00  0.00    +0.022 C 
ENDBRANCH   9  11
BRANCH   1  16
ATOM     16  C   UNL     1       0.594  -4.226  -0.031  0.00  0.00    +0.138 C 
BRANCH  16  25
ATOM     17  C   UNL     1      -0.006   1.376   0.002  0.00  0.00    +0.104 A 
ATOM     18  C   UNL     1       1.128   2.076  -0.002  0.00  0.00    +0.067 A 
ATOM     19  S   UNL     1       2.357   0.781  -0.017  0.00  0.00    -0.059 S 
ATOM     20  C   UNL     1       1.237  -0.602  -0.016  0.00  0.00    +0.158 A 
ATOM     21  N   UNL     1       0.009   0.002  -0.005  0.00  0.00    -0.264 N 
ATOM     22  C   UNL     1      -1.078  -0.827  -0.002  0.00  0.00    +0.259 A 
ATOM     23  O   UNL     1      -2.205  -0.358   0.007  0.00  0.00    -0.267 OA
ATOM     24  C   UNL     1      -0.897  -2.211  -0.011  0.00  0.00    +0.093 A 
ATOM     25  C   UNL     1       0.378  -2.734  -0.022  0.00  0.00    +0.037 A 
ATOM     26  N   UNL     1       1.414  -1.900  -0.024  0.00  0.00    -0.338 N 
ATOM     27  H   UNL     1       2.315  -2.259  -0.032  0.00  0.00    +0.168 HD
ENDBRANCH  16  25
ENDBRANCH   1  16
TORSDOF 3
