REMARK  Name = ZINC47405393
REMARK  3 active torsions:
REMARK  status: ('A' for Active; 'I' for Inactive)
REMARK    1  A    between atoms: C_9  and  C_11
REMARK    2  A    between atoms: N_16  and  C_18
REMARK    3  A    between atoms: C_19  and  C_24
REMARK                            x       y       z     vdW  Elec       q    Type
REMARK                         _______ _______ _______ _____ _____    ______ ____
ROOT
ATOM      1  C   UNL     1       3.821  -3.390  -0.173  0.00  0.00    +0.072 C 
ATOM      2  C   UNL     1       3.035  -4.480  -0.906  0.00  0.00    +0.014 C 
ATOM      3  C   UNL     1       3.819  -5.793  -0.864  0.00  0.00    +0.020 C 
ATOM      4  C   UNL     1       4.002  -6.228   0.594  0.00  0.00    +0.105 C 
ATOM      5  N   UNL     1       4.627  -5.127   1.341  0.00  0.00    -0.322 N 
ATOM      6  C   UNL     1       4.004  -3.797   1.293  0.00  0.00    +0.116 C 
ENDROOT
BRANCH   1  15
ATOM      7  C   UNL     1       0.273   1.473  -0.417  0.00  0.00    +0.002 A 
ATOM      8  C   UNL     1       1.492   2.132  -0.492  0.00  0.00    +0.002 A 
ATOM      9  C   UNL     1       2.665   1.432  -0.474  0.00  0.00    +0.030 A 
ATOM     10  C   UNL     1       2.643   0.038  -0.378  0.00  0.00    +0.089 A 
ATOM     11  C   UNL     1       1.409  -0.630  -0.301  0.00  0.00    +0.066 A 
ATOM     12  C   UNL     1       0.227   0.098  -0.322  0.00  0.00    +0.028 A 
ATOM     13  N   UNL     1       1.709  -1.975  -0.217  0.00  0.00    -0.342 N 
ATOM     14  H   UNL     1       1.071  -2.703  -0.151  0.00  0.00    +0.167 HD
ATOM     15  C   UNL     1       3.064  -2.090  -0.243  0.00  0.00    +0.113 A 
ATOM     16  N   UNL     1       3.611  -0.913  -0.337  0.00  0.00    -0.232 NA
ENDBRANCH   1  15
BRANCH   5  17
ATOM     17  C   UNL     1       5.779  -5.339   2.074  0.00  0.00    +0.107 A 
ATOM     18  C   UNL     1       5.902  -5.726   3.410  0.00  0.00    +0.118 A 
ATOM     19  C   UNL     1       7.220  -5.853   3.852  0.00  0.00    +0.157 A 
ATOM     20  N   UNL     1       8.167  -5.604   2.993  0.00  0.00    -0.196 NA
ATOM     21  S   UNL     1       7.375  -5.202   1.576  0.00  0.00    +0.030 S 
ATOM     22 CL   UNL     1       7.582  -6.324   5.483  0.00  0.00    -0.060 Cl
BRANCH  18  23
ATOM     23  C   UNL     1       4.771  -5.970   4.255  0.00  0.00    +0.105 C 
ATOM     24  N   UNL     1       3.875  -6.163   4.925  0.00  0.00    -0.191 NA
ENDBRANCH  18  23
ENDBRANCH   5  17
TORSDOF 3
