REMARK  Name = ZINC39928304
REMARK  6 active torsions:
REMARK  status: ('A' for Active; 'I' for Inactive)
REMARK    1  A    between atoms: C_1  and  O_2
REMARK    2  A    between atoms: O_2  and  C_3
REMARK    3  A    between atoms: C_10  and  C_15
REMARK    4  A    between atoms: C_15  and  N_16
REMARK    5  A    between atoms: N_16  and  C_17
REMARK    6  A    between atoms: C_23  and  C_25
REMARK                            x       y       z     vdW  Elec       q    Type
REMARK                         _______ _______ _______ _____ _____    ______ ____
ROOT
ATOM      1  C   UNL     1       3.767  -5.662   2.819  0.00  0.00    +0.125 C 
ENDROOT
BRANCH   1   9
ATOM      2  C   UNL     1       0.297  -1.911  -0.004  0.00  0.00    +0.121 A 
ATOM      3  C   UNL     1       0.101  -1.149   1.155  0.00  0.00    +0.047 A 
ATOM      4  C   UNL     1       0.465  -1.586   2.387  0.00  0.00    +0.027 A 
ATOM      5  C   UNL     1       1.067  -2.847   2.551  0.00  0.00    +0.041 A 
ATOM      6  N   UNL     1       1.419  -3.263   3.768  0.00  0.00    -0.284 N 
ATOM      7  C   UNL     1       1.988  -4.435   3.993  0.00  0.00    +0.226 C 
ATOM      8  O   UNL     1       2.288  -4.761   5.127  0.00  0.00    -0.275 OA
ATOM      9  C   UNL     1       2.265  -5.370   2.837  0.00  0.00    +0.116 C 
ATOM     10  C   UNL     1       1.866  -4.902   1.452  0.00  0.00    -0.003 C 
ATOM     11  C   UNL     1       1.286  -3.672   1.350  0.00  0.00    -0.004 A 
ATOM     12  C   UNL     1       0.866  -3.147   0.051  0.00  0.00    +0.055 A 
ATOM     13  H   UNL     1       1.251  -2.678   4.523  0.00  0.00    +0.155 HD
BRANCH   2  15
ATOM     14  C   UNL     1      -0.684  -0.108  -1.204  0.00  0.00    +0.277 C 
ATOM     15  O   UNL     1      -0.093  -1.409  -1.205  0.00  0.00    -0.495 OA
ENDBRANCH   2  15
ENDBRANCH   1   9
BRANCH   1  16
ATOM     16  N   UNL     1       4.161  -6.273   4.091  0.00  0.00    -0.295 N 
ATOM     17  C   UNL     1       4.889  -5.569   4.980  0.00  0.00    +0.245 C 
ATOM     18  O   UNL     1       5.104  -6.023   6.084  0.00  0.00    -0.273 OA
BRANCH  16  19
ATOM     19  C   UNL     1       3.764  -7.649   4.397  0.00  0.00    +0.076 C 
ATOM     20  C   UNL     1       2.874  -7.659   5.642  0.00  0.00    +0.022 C 
ATOM     21  C   UNL     1       2.459  -9.096   5.962  0.00  0.00    +0.002 C 
ATOM     22  C   UNL     1       3.708  -9.942   6.220  0.00  0.00    +0.000 C 
ATOM     23  C   UNL     1       4.597  -9.933   4.975  0.00  0.00    +0.002 C 
ATOM     24  C   UNL     1       5.012  -8.495   4.656  0.00  0.00    +0.022 C 
ENDBRANCH  16  19
BRANCH  17  25
ATOM     25  C   UNL     1       5.438  -4.217   4.601  0.00  0.00    +0.204 C 
ATOM     26  C   UNL     1       4.356  -3.124   4.796  0.00  0.00    +0.043 C 
ATOM     27  C   UNL     1       5.242  -1.865   4.996  0.00  0.00    +0.031 C 
ATOM     28  C   UNL     1       6.464  -2.439   5.745  0.00  0.00    +0.161 C 
ATOM     29  O   UNL     1       6.509  -3.848   5.485  0.00  0.00    -0.367 OA
ENDBRANCH  17  25
ENDBRANCH   1  16
TORSDOF 5
