REMARK  Name = ZINC12309253
REMARK  7 active torsions:
REMARK  status: ('A' for Active; 'I' for Inactive)
REMARK    1  A    between atoms: C_1  and  C_2
REMARK    2  A    between atoms: C_2  and  C_3
REMARK    3  A    between atoms: C_2  and  S_4
REMARK    4  A    between atoms: S_4  and  C_7
REMARK    5  A    between atoms: C_10  and  C_13
REMARK    6  A    between atoms: C_13  and  N_15
REMARK    7  A    between atoms: N_17  and  C_26
REMARK                            x       y       z     vdW  Elec       q    Type
REMARK                         _______ _______ _______ _____ _____    ______ ____
ROOT
ATOM      1  C   UNL     1      -1.135  -6.632   0.477  0.00  0.00    +0.269 C 
ATOM      2  O   UNL     1      -1.137  -7.284  -0.553  0.00  0.00    -0.268 OA
ENDROOT
BRANCH   1   3
ATOM      3  N   UNL     1      -1.113  -7.252   1.661  0.00  0.00    -0.152 NA
ATOM      4  C   UNL     1      -2.241  -7.426   2.341  0.00  0.00    +0.166 A 
ATOM      5  N   UNL     1      -3.511  -7.180   1.925  0.00  0.00    -0.324 N 
ATOM      6  C   UNL     1      -4.572  -7.423   2.778  0.00  0.00    +0.057 A 
ATOM      7  C   UNL     1      -5.944  -7.241   2.557  0.00  0.00    +0.030 A 
ATOM      8  C   UNL     1      -6.859  -7.543   3.539  0.00  0.00    +0.040 A 
ATOM      9  C   UNL     1      -6.453  -8.033   4.771  0.00  0.00    +0.125 A 
ATOM     10  C   UNL     1      -5.102  -8.222   5.014  0.00  0.00    +0.055 A 
ATOM     11  C   UNL     1      -4.188  -7.920   4.032  0.00  0.00    +0.042 A 
ATOM     12  S   UNL     1      -2.421  -8.008   3.907  0.00  0.00    -0.052 S 
ATOM     13  F   UNL     1      -7.365  -8.323   5.725  0.00  0.00    -0.205 F 
ATOM     14  C   UNL     1      -3.755  -6.657   0.579  0.00  0.00    +0.151 C 
ENDBRANCH   1   3
BRANCH   1  18
ATOM     15  C   UNL     1      -1.202  -2.386   0.303  0.00  0.00    +0.088 A 
ATOM     16  C   UNL     1      -1.203  -3.124  -0.868  0.00  0.00    +0.028 A 
ATOM     17  C   UNL     1      -1.182  -4.502  -0.818  0.00  0.00    +0.015 A 
ATOM     18  C   UNL     1      -1.158  -5.152   0.416  0.00  0.00    +0.039 A 
ATOM     19  C   UNL     1      -1.157  -4.403   1.593  0.00  0.00    +0.015 A 
ATOM     20  C   UNL     1      -1.174  -3.025   1.530  0.00  0.00    +0.028 A 
BRANCH  15  21
ATOM     21  S   UNL     1      -1.230  -0.626   0.231  0.00  0.00    -0.001 S 
ATOM     22  O   UNL     1      -1.821  -0.222   1.459  0.00  0.00    -0.169 OA
ATOM     23  O   UNL     1      -1.857  -0.324  -1.008  0.00  0.00    -0.169 OA
BRANCH  21  25
ATOM     24  C   UNL     1       0.616   1.392   0.246  0.00  0.00    +0.032 C 
ATOM     25  C   UNL     1       0.515  -0.133   0.185  0.00  0.00    +0.130 C 
ATOM     26  C   UNL     1       1.248  -0.742   1.382  0.00  0.00    +0.032 C 
ENDBRANCH  21  25
ENDBRANCH  15  21
ENDBRANCH   1  18
TORSDOF 4
