REMARK  Name = ZINC44353557
REMARK  7 active torsions:
REMARK  status: ('A' for Active; 'I' for Inactive)
REMARK    1  A    between atoms: C_1  and  C_2
REMARK    2  A    between atoms: C_6  and  N_22
REMARK    3  A    between atoms: C_7  and  S_8
REMARK    4  A    between atoms: S_8  and  N_11
REMARK    5  A    between atoms: N_11  and  C_12
REMARK    6  A    between atoms: N_11  and  C_13
REMARK    7  A    between atoms: C_19  and  C_21
REMARK                            x       y       z     vdW  Elec       q    Type
REMARK                         _______ _______ _______ _____ _____    ______ ____
ROOT
ATOM      1  S   UNL     1       0.778  -0.138   3.050  0.00  0.00    +0.063 S 
ATOM      2  O   UNL     1       1.602  -1.216   3.470  0.00  0.00    -0.153 OA
ATOM      3  O   UNL     1       1.305   1.135   2.705  0.00  0.00    -0.153 OA
ENDROOT
BRANCH   1  10
ATOM      4  C   UNL     1      -0.395   1.673   0.932  0.00  0.00    +0.046 C 
ATOM      5  C   UNL     1      -0.619   0.197   0.730  0.00  0.00    -0.022 A 
ATOM      6  C   UNL     1      -1.319  -0.250  -0.376  0.00  0.00    +0.005 A 
ATOM      7  C   UNL     1      -1.528  -1.604  -0.565  0.00  0.00    +0.002 A 
ATOM      8  C   UNL     1      -1.037  -2.514   0.350  0.00  0.00    +0.025 A 
ATOM      9  C   UNL     1      -0.333  -2.069   1.461  0.00  0.00    +0.051 A 
ATOM     10  C   UNL     1      -0.121  -0.708   1.646  0.00  0.00    +0.129 A 
BRANCH   9  11
ATOM     11  N   UNL     1       0.165  -2.987   2.389  0.00  0.00    -0.356 N 
ATOM     12  H   UNL     1       0.289  -3.915   2.134  0.00  0.00    +0.142 HD
ATOM     13  H   UNL     1       0.387  -2.697   3.287  0.00  0.00    +0.142 HD
ENDBRANCH   9  11
ENDBRANCH   1  10
BRANCH   1  14
ATOM     14  N   UNL     1      -0.321   0.118   4.263  0.00  0.00    -0.176 NA
ATOM     15  C   UNL     1      -0.750  -0.998   5.110  0.00  0.00    +0.132 C 
BRANCH  14  16
ATOM     16  C   UNL     1      -0.863   1.460   4.489  0.00  0.00    +0.082 C 
ATOM     17  C   UNL     1      -2.364   1.460   4.193  0.00  0.00    +0.021 C 
ATOM     18  C   UNL     1      -2.930   2.861   4.429  0.00  0.00    +0.002 C 
ATOM     19  C   UNL     1      -2.698   3.266   5.886  0.00  0.00    +0.000 C 
ATOM     20  C   UNL     1      -1.197   3.266   6.183  0.00  0.00    +0.005 C 
ATOM     21  C   UNL     1      -0.631   1.864   5.946  0.00  0.00    +0.005 C 
ATOM     22  C   UNL     1       0.870   1.864   6.243  0.00  0.00    +0.009 C 
ENDBRANCH  14  16
ENDBRANCH   1  14
TORSDOF 4
