REMARK  Name = ZINC40828182
REMARK  3 active torsions:
REMARK  status: ('A' for Active; 'I' for Inactive)
REMARK    1  A    between atoms: C_8  and  S_9
REMARK    2  A    between atoms: S_9  and  N_12
REMARK    3  A    between atoms: N_12  and  C_13
REMARK                            x       y       z     vdW  Elec       q    Type
REMARK                         _______ _______ _______ _____ _____    ______ ____
ROOT
ATOM      1  N   UNL     1      -2.155  -0.797  -1.511  0.00  0.00    -0.187 NA
ATOM      2  H   UNL     1      -2.995  -0.332  -1.649  0.00  0.00    +0.148 HD
ENDROOT
BRANCH   1   3
ATOM      3  C   UNL     1      -1.457  -1.403  -2.647  0.00  0.00    +0.080 C 
ATOM      4  C   UNL     1      -2.054  -2.803  -2.953  0.00  0.00    +0.024 C 
ATOM      5  C   UNL     1      -2.292  -2.730  -4.518  0.00  0.00    -0.006 C 
ATOM      6  C   UNL     1      -2.933  -1.278  -4.525  0.00  0.00    +0.009 C 
ATOM      7  C   UNL     1      -1.665  -0.547  -3.912  0.00  0.00    +0.011 C 
ATOM      8  C   UNL     1      -0.692  -0.919  -5.021  0.00  0.00    -0.003 C 
ATOM      9  C   UNL     1      -0.882  -2.504  -4.970  0.00  0.00    -0.004 C 
ATOM     10  C   UNL     1       0.071  -3.065  -5.934  0.00  0.00    +0.004 C 
ATOM     11  C   UNL     1       1.302  -2.104  -5.803  0.00  0.00    +0.001 C 
ATOM     12  C   UNL     1       0.820  -0.879  -4.831  0.00  0.00    +0.004 C 
ENDBRANCH   1   3
BRANCH   1  13
ATOM     13  S   UNL     1      -1.511  -0.906   0.011  0.00  0.00    +0.060 S 
ATOM     14  O   UNL     1      -1.169  -2.271   0.210  0.00  0.00    -0.153 OA
ATOM     15  O   UNL     1      -2.395  -0.208   0.877  0.00  0.00    -0.153 OA
BRANCH  13  23
ATOM     16  C   UNL     1      -0.017   1.398   0.010  0.00  0.00    +0.035 A 
ATOM     17  C   UNL     1       1.164   2.081   0.002  0.00  0.00    +0.072 A 
ATOM     18  C   UNL     1       2.373   1.364  -0.013  0.00  0.00    +0.249 A 
ATOM     19  O   UNL     1       3.437   1.963  -0.020  0.00  0.00    -0.268 OA
ATOM     20  N   UNL     1       2.358   0.018  -0.020  0.00  0.00    -0.327 N 
ATOM     21  H   UNL     1       3.196  -0.471  -0.031  0.00  0.00    +0.168 HD
ATOM     22  C   UNL     1       1.184  -0.664  -0.013  0.00  0.00    +0.114 A 
ATOM     23  C   UNL     1       0.002  -0.004   0.002  0.00  0.00    +0.121 A 
ENDBRANCH  13  23
ENDBRANCH   1  13
TORSDOF 3
