REMARK  Name = ZINC20733870
REMARK  2 active torsions:
REMARK  status: ('A' for Active; 'I' for Inactive)
REMARK    1  A    between atoms: C_3  and  C_6
REMARK    2  A    between atoms: C_6  and  N_7
REMARK                            x       y       z     vdW  Elec       q    Type
REMARK                         _______ _______ _______ _____ _____    ______ ____
ROOT
ATOM      1  N   UNL     1       4.102   0.606   1.351  0.00  0.00    -0.259 NA
ATOM      2  C   UNL     1       5.551   0.361   1.380  0.00  0.00    +0.130 C 
ATOM      3  C   UNL     1       6.062   0.526   2.788  0.00  0.00    +0.051 A 
ATOM      4  C   UNL     1       5.314   1.197   3.742  0.00  0.00    +0.130 A 
ATOM      5  C   UNL     1       5.799   1.348   5.041  0.00  0.00    +0.047 A 
ATOM      6  C   UNL     1       7.017   0.837   5.389  0.00  0.00    +0.018 A 
ATOM      7  C   UNL     1       7.780   0.155   4.437  0.00  0.00    +0.060 A 
ATOM      8  C   UNL     1       7.296  -0.008   3.127  0.00  0.00    +0.140 A 
ATOM      9  O   UNL     1       8.015  -0.683   2.201  0.00  0.00    -0.484 OA
ATOM     10  C   UNL     1       9.426  -0.802   2.383  0.00  0.00    +0.118 C 
ATOM     11  C   UNL     1      10.080   0.573   2.240  0.00  0.00    +0.048 C 
ATOM     12  C   UNL     1       9.800   1.128   0.841  0.00  0.00    +0.004 C 
ATOM     13  C   UNL     1      10.374   0.176  -0.210  0.00  0.00    +0.000 C 
ATOM     14  C   UNL     1       9.718  -1.199  -0.066  0.00  0.00    +0.004 C 
ATOM     15  C   UNL     1      10.000  -1.754   1.332  0.00  0.00    +0.048 C 
ATOM     16  C   UNL     1       9.716  -1.358   3.784  0.00  0.00    +0.127 C 
ATOM     17  C   UNL     1       9.097  -0.399   4.785  0.00  0.00    +0.170 C 
ATOM     18  O   UNL     1       9.660  -0.104   5.819  0.00  0.00    -0.292 OA
ATOM     19  O   UNL     1       4.097   1.714   3.431  0.00  0.00    -0.476 OA
ATOM     20  C   UNL     1       3.788   1.867   2.044  0.00  0.00    +0.319 C 
ENDROOT
BRANCH   1  21
ATOM     21  C   UNL     1       3.599   0.625  -0.029  0.00  0.00    +0.162 C 
BRANCH  21  24
ATOM     22  C   UNL     1      -0.016   1.341   0.009  0.00  0.00    +0.041 A 
ATOM     23  C   UNL     1       1.331   1.769  -0.001  0.00  0.00    +0.046 A 
ATOM     24  C   UNL     1       2.092   0.660  -0.014  0.00  0.00    +0.119 A 
ATOM     25  O   UNL     1       1.282  -0.411  -0.012  0.00  0.00    -0.467 OA
ATOM     26  C   UNL     1       0.002  -0.004   0.002  0.00  0.00    +0.195 A 
ENDBRANCH  21  24
ENDBRANCH   1  21
TORSDOF 2
