REMARK  Name = ZINC66240087
REMARK  7 active torsions:
REMARK  status: ('A' for Active; 'I' for Inactive)
REMARK    1  A    between atoms: C_4  and  O_24
REMARK    2  A    between atoms: C_5  and  N_7
REMARK    3  A    between atoms: C_8  and  C_10
REMARK    4  A    between atoms: C_13  and  N_16
REMARK    5  A    between atoms: C_17  and  N_23
REMARK    6  A    between atoms: C_18  and  C_21
REMARK    7  A    between atoms: O_24  and  C_25
REMARK                            x       y       z     vdW  Elec       q    Type
REMARK                         _______ _______ _______ _____ _____    ______ ____
ROOT
ATOM      1  C   UNL     1       0.115  -4.246   0.192  0.00  0.00    +0.037 A 
ATOM      2  C   UNL     1       1.337  -4.923   0.181  0.00  0.00    +0.015 A 
ATOM      3  C   UNL     1       1.362  -6.296   0.278  0.00  0.00    +0.028 A 
ATOM      4  C   UNL     1       0.173  -7.010   0.385  0.00  0.00    +0.067 A 
ATOM      5  C   UNL     1      -1.045  -6.339   0.395  0.00  0.00    +0.028 A 
ATOM      6  C   UNL     1      -1.078  -4.965   0.305  0.00  0.00    +0.015 A 
ENDROOT
BRANCH   4   7
ATOM      7  N   UNL     1       0.203  -8.403   0.482  0.00  0.00    -0.218 N 
ATOM      8  C   UNL     1      -0.655  -9.169   1.206  0.00  0.00    +0.137 A 
ATOM      9  C   UNL     1      -0.271 -10.494   1.024  0.00  0.00    +0.111 A 
ATOM     10  C   UNL     1       0.851 -10.486   0.161  0.00  0.00    +0.155 A 
ATOM     11  N   UNL     1       1.117  -9.250  -0.155  0.00  0.00    -0.172 NA
BRANCH   8  12
ATOM     12  N   UNL     1      -1.708  -8.717   1.978  0.00  0.00    -0.342 N 
ATOM     13  H   UNL     1      -1.891  -7.767   2.039  0.00  0.00    +0.144 HD
ATOM     14  H   UNL     1      -2.263  -9.351   2.459  0.00  0.00    +0.144 HD
ENDBRANCH   8  12
BRANCH   9  15
ATOM     15  C   UNL     1      -0.892 -11.648   1.601  0.00  0.00    +0.104 C 
ATOM     16  N   UNL     1      -1.385 -12.563   2.058  0.00  0.00    -0.191 NA
ENDBRANCH   9  15
ENDBRANCH   4   7
BRANCH   1  18
ATOM     17  N   UNL     1       1.235  -2.081  -0.021  0.00  0.00    -0.279 N 
ATOM     18  C   UNL     1       0.084  -2.774   0.088  0.00  0.00    +0.248 C 
ATOM     19  O   UNL     1      -0.981  -2.186   0.102  0.00  0.00    -0.270 OA
ATOM     20  H   UNL     1       2.077  -2.553  -0.113  0.00  0.00    +0.155 HD
BRANCH  17  25
ATOM     21  C   UNL     1       0.153   1.373   0.637  0.00  0.00    +0.002 A 
ATOM     22  C   UNL     1       1.173   2.088   0.036  0.00  0.00    +0.004 A 
ATOM     23  C   UNL     1       2.215   1.426  -0.585  0.00  0.00    +0.048 A 
ATOM     24  C   UNL     1       2.240   0.041  -0.607  0.00  0.00    +0.148 A 
ATOM     25  C   UNL     1       1.214  -0.681  -0.002  0.00  0.00    +0.076 A 
ATOM     26  C   UNL     1       0.172  -0.009   0.620  0.00  0.00    +0.027 A 
BRANCH  24  27
ATOM     27  O   UNL     1       3.264  -0.612  -1.218  0.00  0.00    -0.432 OA
BRANCH  27  28
ATOM     28  C   UNL     1       4.281   0.193  -1.818  0.00  0.00    +0.541 C 
ATOM     29  F   UNL     1       3.712   1.005  -2.805  0.00  0.00    -0.166 F 
ATOM     30  F   UNL     1       4.878   0.996  -0.840  0.00  0.00    -0.166 F 
ENDBRANCH  27  28
ENDBRANCH  24  27
ENDBRANCH  17  25
ENDBRANCH   1  18
TORSDOF 7
