REMARK  Name = ZINC32975664
REMARK  5 active torsions:
REMARK  status: ('A' for Active; 'I' for Inactive)
REMARK    1  A    between atoms: C_1  and  C_2
REMARK    2  A    between atoms: C_5  and  C_21
REMARK    3  A    between atoms: C_7  and  S_8
REMARK    4  A    between atoms: S_8  and  N_11
REMARK    5  A    between atoms: C_21  and  N_22
REMARK                            x       y       z     vdW  Elec       q    Type
REMARK                         _______ _______ _______ _____ _____    ______ ____
ROOT
ATOM      1  C   UNL     1      -0.018   1.503   0.010  0.00  0.00    +0.046 C 
ATOM      2  C   UNL     1       0.002  -0.004   0.002  0.00  0.00    -0.024 A 
ATOM      3  C   UNL     1       0.006  -0.689  -1.199  0.00  0.00    +0.005 A 
ATOM      4  C   UNL     1       0.025  -2.071  -1.207  0.00  0.00    +0.005 A 
ATOM      5  C   UNL     1       0.040  -2.768  -0.013  0.00  0.00    -0.028 A 
ATOM      6  C   UNL     1       0.037  -2.084   1.188  0.00  0.00    +0.034 A 
ATOM      7  C   UNL     1       0.023  -0.702   1.195  0.00  0.00    +0.109 A 
ENDROOT
BRANCH   7   8
ATOM      8  S   UNL     1       0.026   0.171   2.726  0.00  0.00    +0.061 S 
ATOM      9  O   UNL     1      -1.014   1.137   2.645  0.00  0.00    -0.153 OA
ATOM     10  O   UNL     1       0.076  -0.810   3.753  0.00  0.00    -0.153 OA
BRANCH   8  11
ATOM     11  N   UNL     1       1.449   1.014   2.806  0.00  0.00    -0.176 NA
ATOM     12  C   UNL     1       2.647   0.405   3.400  0.00  0.00    +0.114 C 
ATOM     13  C   UNL     1       3.183   1.335   4.493  0.00  0.00    +0.082 C 
ATOM     14  C   UNL     1       3.408   2.729   3.906  0.00  0.00    +0.173 C 
ATOM     15  C   UNL     1       2.084   3.297   3.389  0.00  0.00    +0.082 C 
ATOM     16  C   UNL     1       1.539   2.383   2.281  0.00  0.00    +0.114 C 
ATOM     17  O   UNL     1       3.941   3.596   4.916  0.00  0.00    -0.346 OA
ATOM     18  C   UNL     1       5.220   4.066   4.445  0.00  0.00    +0.191 C 
ATOM     19  C   UNL     1       5.125   3.865   2.912  0.00  0.00    +0.191 C 
ATOM     20  O   UNL     1       4.348   2.646   2.822  0.00  0.00    -0.346 OA
ENDBRANCH   8  11
ENDBRANCH   7   8
BRANCH   5  21
ATOM     21  C   UNL     1       0.059  -4.275  -0.021  0.00  0.00    +0.151 C 
BRANCH  21  22
ATOM     22  N   UNL     1       1.447  -4.746  -0.032  0.00  0.00    -0.237 N 
ATOM     23  C   UNL     1       2.150  -4.974  -1.174  0.00  0.00    +0.226 C 
ATOM     24  O   UNL     1       1.708  -5.038  -2.302  0.00  0.00    -0.275 OA
ATOM     25  C   UNL     1       3.577  -5.129  -0.756  0.00  0.00    +0.087 C 
ATOM     26  C   UNL     1       4.482  -6.070  -1.515  0.00  0.00    +0.013 C 
ATOM     27  C   UNL     1       5.848  -6.041  -0.804  0.00  0.00    +0.001 C 
ATOM     28  C   UNL     1       5.734  -6.403   0.672  0.00  0.00    +0.001 C 
ATOM     29  C   UNL     1       4.684  -5.537   1.397  0.00  0.00    +0.013 C 
ATOM     30  C   UNL     1       3.380  -5.742   0.663  0.00  0.00    +0.087 C 
ATOM     31  C   UNL     1       2.160  -4.992   1.100  0.00  0.00    +0.226 C 
ATOM     32  O   UNL     1       1.867  -4.671   2.232  0.00  0.00    -0.275 OA
ENDBRANCH  21  22
ENDBRANCH   5  21
TORSDOF 4
