REMARK  Name = ZINC33059071
REMARK  6 active torsions:
REMARK  status: ('A' for Active; 'I' for Inactive)
REMARK    1  A    between atoms: C_1  and  C_2
REMARK    2  A    between atoms: C_3  and  S_17
REMARK    3  A    between atoms: C_4  and  C_7
REMARK    4  A    between atoms: C_8  and  C_9
REMARK    5  A    between atoms: S_17  and  N_20
REMARK    6  A    between atoms: C_23  and  C_26
REMARK                            x       y       z     vdW  Elec       q    Type
REMARK                         _______ _______ _______ _____ _____    ______ ____
ROOT
ATOM      1  S   UNL     1      -0.629  -1.591   1.381  0.00  0.00    +0.066 S 
ATOM      2  O   UNL     1      -0.519  -1.431   2.788  0.00  0.00    -0.153 OA
ATOM      3  O   UNL     1      -1.868  -1.471   0.695  0.00  0.00    -0.153 OA
ENDROOT
BRANCH   1   6
ATOM      4  C   UNL     1      -1.229  -3.672  -1.241  0.00  0.00    +0.071 C 
ATOM      5  C   UNL     1      -0.293  -4.005  -0.107  0.00  0.00    +0.107 A 
ATOM      6  C   UNL     1       0.001  -3.194   1.006  0.00  0.00    +0.174 A 
ATOM      7  C   UNL     1       0.896  -3.954   1.738  0.00  0.00    +0.187 A 
ATOM      8  O   UNL     1       1.064  -5.096   1.044  0.00  0.00    -0.353 OA
ATOM      9  N   UNL     1       0.403  -5.098   0.032  0.00  0.00    -0.081 NA
BRANCH   7  10
ATOM     10  C   UNL     1       1.530  -3.591   3.008  0.00  0.00    +0.052 C 
ATOM     11  C   UNL     1       2.386  -4.446   3.602  0.00  0.00    +0.014 C 
BRANCH  11  12
ATOM     12  C   UNL     1       3.023  -4.081   4.878  0.00  0.00    +0.010 A 
ATOM     13  C   UNL     1       2.747  -2.846   5.473  0.00  0.00    +0.013 A 
ATOM     14  C   UNL     1       3.342  -2.513   6.671  0.00  0.00    +0.039 A 
ATOM     15  C   UNL     1       4.223  -3.394   7.281  0.00  0.00    +0.126 A 
ATOM     16  C   UNL     1       4.507  -4.617   6.695  0.00  0.00    +0.077 A 
ATOM     17  C   UNL     1       3.913  -4.967   5.498  0.00  0.00    +0.133 A 
ATOM     18  F   UNL     1       4.190  -6.160   4.927  0.00  0.00    -0.205 F 
ATOM     19  F   UNL     1       4.807  -3.058   8.452  0.00  0.00    -0.205 F 
ENDBRANCH  11  12
ENDBRANCH   7  10
ENDBRANCH   1   6
BRANCH   1  20
ATOM     20  N   UNL     1       0.399  -0.489   0.697  0.00  0.00    -0.176 NA
ATOM     21  C   UNL     1       0.179  -0.010  -0.675  0.00  0.00    +0.110 C 
ATOM     22  C   UNL     1       0.142   1.521  -0.663  0.00  0.00    +0.030 C 
ATOM     23  C   UNL     1       1.419   2.053  -0.009  0.00  0.00    +0.078 C 
ATOM     24  C   UNL     1       1.497   1.561   1.438  0.00  0.00    +0.030 C 
ATOM     25  C   UNL     1       1.549   0.030   1.450  0.00  0.00    +0.110 C 
BRANCH  23  26
ATOM     26  C   UNL     1       1.402   3.560  -0.027  0.00  0.00    +0.219 C 
ATOM     27  O   UNL     1       0.348   4.153  -0.120  0.00  0.00    -0.275 OA
ATOM     28  N   UNL     1       2.557   4.248   0.062  0.00  0.00    -0.297 N 
ATOM     29  C   UNL     1       3.854   3.553   0.081  0.00  0.00    +0.136 C 
ATOM     30  C   UNL     1       4.762   4.204  -0.975  0.00  0.00    +0.179 C 
ATOM     31  O   UNL     1       4.797   5.616  -0.757  0.00  0.00    -0.377 OA
ATOM     32  C   UNL     1       3.530   6.263  -0.905  0.00  0.00    +0.179 C 
ATOM     33  C   UNL     1       2.559   5.718   0.148  0.00  0.00    +0.136 C 
ENDBRANCH  23  26
ENDBRANCH   1  20
TORSDOF 5
