REMARK  Name = ZINC44450401
REMARK  4 active torsions:
REMARK  status: ('A' for Active; 'I' for Inactive)
REMARK    1  A    between atoms: C_1  and  C_2
REMARK    2  A    between atoms: C_2  and  C_4
REMARK    3  A    between atoms: C_2  and  N_18
REMARK    4  A    between atoms: C_9  and  C_12
REMARK                            x       y       z     vdW  Elec       q    Type
REMARK                         _______ _______ _______ _____ _____    ______ ____
ROOT
ATOM      1  C   UNL     1      -1.412  -0.526   0.013  0.00  0.00    +0.243 C 
ATOM      2  O   UNL     1      -1.808  -1.223  -0.897  0.00  0.00    -0.273 OA
ATOM      3  N   UNL     1      -2.236  -0.217   1.033  0.00  0.00    -0.263 N 
ATOM      4  C   UNL     1      -3.540  -0.698   1.043  0.00  0.00    +0.165 A 
ATOM      5  N   UNL     1      -4.493  -0.508   1.936  0.00  0.00    -0.225 NA
ATOM      6  C   UNL     1      -5.694  -1.048   1.786  0.00  0.00    +0.082 A 
ATOM      7  C   UNL     1      -5.950  -1.817   0.685  0.00  0.00    +0.077 A 
ATOM      8  S   UNL     1      -4.373  -1.732  -0.154  0.00  0.00    -0.060 S 
ATOM      9  H   UNL     1      -1.920   0.341   1.761  0.00  0.00    +0.157 HD
ENDROOT
BRANCH   6  10
ATOM     10  C   UNL     1      -6.749  -0.821   2.803  0.00  0.00    +0.019 A 
ATOM     11  C   UNL     1      -6.529   0.052   3.872  0.00  0.00    +0.013 A 
ATOM     12  C   UNL     1      -7.546   0.231   4.794  0.00  0.00    +0.020 A 
ATOM     13  C   UNL     1      -8.736  -0.455   4.629  0.00  0.00    +0.111 A 
ATOM     14  N   UNL     1      -8.915  -1.272   3.610  0.00  0.00    -0.263 NA
ATOM     15  C   UNL     1      -7.978  -1.469   2.704  0.00  0.00    +0.120 A 
ENDBRANCH   6  10
BRANCH   1  17
ATOM     16  C   UNL     1      -0.019   1.526   0.010  0.00  0.00    +0.043 C 
ATOM     17  C   UNL     1       0.002  -0.004   0.002  0.00  0.00    +0.195 C 
BRANCH  17  18
ATOM     18  N   UNL     1       0.688  -0.476  -1.203  0.00  0.00    -0.199 N 
ATOM     19  C   UNL     1       1.797  -1.245  -1.093  0.00  0.00    +0.278 A 
ATOM     20  O   UNL     1       2.244  -1.558  -0.005  0.00  0.00    -0.265 OA
ATOM     21  C   UNL     1       2.440  -1.688  -2.340  0.00  0.00    +0.068 A 
ATOM     22  C   UNL     1       3.585  -2.482  -2.331  0.00  0.00    +0.015 A 
ATOM     23  C   UNL     1       4.151  -2.872  -3.525  0.00  0.00    +0.001 A 
ATOM     24  C   UNL     1       3.590  -2.480  -4.733  0.00  0.00    +0.002 A 
ATOM     25  C   UNL     1       2.459  -1.696  -4.763  0.00  0.00    +0.030 A 
ATOM     26  C   UNL     1       1.866  -1.288  -3.566  0.00  0.00    +0.100 A 
ATOM     27  N   UNL     1       0.751  -0.515  -3.558  0.00  0.00    -0.131 NA
ATOM     28  N   UNL     1       0.193  -0.138  -2.466  0.00  0.00    -0.061 NA
ENDBRANCH  17  18
ENDBRANCH   1  17
TORSDOF 3
