REMARK  Name = ZINC12658265
REMARK  4 active torsions:
REMARK  status: ('A' for Active; 'I' for Inactive)
REMARK    1  A    between atoms: C_1  and  C_2
REMARK    2  A    between atoms: C_2  and  C_3
REMARK    3  A    between atoms: C_2  and  N_4
REMARK    4  A    between atoms: C_12  and  C_13
REMARK                            x       y       z     vdW  Elec       q    Type
REMARK                         _______ _______ _______ _____ _____    ______ ____
ROOT
ATOM      1  N   UNL     1       1.414   3.362  -0.346  0.00  0.00    -0.264 N 
ATOM      2  C   UNL     1       1.298   2.124  -0.970  0.00  0.00    +0.045 A 
ATOM      3  C   UNL     1       0.212   1.484  -1.556  0.00  0.00    +0.024 A 
ATOM      4  C   UNL     1       0.366   0.232  -2.118  0.00  0.00    +0.002 A 
ATOM      5  C   UNL     1       1.598  -0.401  -2.105  0.00  0.00    +0.001 A 
ATOM      6  C   UNL     1       2.688   0.218  -1.527  0.00  0.00    +0.010 A 
ATOM      7  C   UNL     1       2.543   1.480  -0.958  0.00  0.00    +0.009 A 
ATOM      8  C   UNL     1       3.483   2.397  -0.277  0.00  0.00    +0.050 C 
ATOM      9  C   UNL     1       4.808   2.196  -0.032  0.00  0.00    +0.060 C 
ATOM     10  C   UNL     1       2.669   3.581   0.082  0.00  0.00    +0.252 C 
ATOM     11  O   UNL     1       3.065   4.574   0.660  0.00  0.00    -0.270 OA
ENDROOT
BRANCH   9  12
ATOM     12  C   UNL     1       5.336   0.833   0.068  0.00  0.00    +0.135 A 
ATOM     13  N   UNL     1       6.694   0.662   0.162  0.00  0.00    -0.307 N 
ATOM     14  H   UNL     1       7.279   1.435   0.162  0.00  0.00    +0.170 HD
ATOM     15  C   UNL     1       7.222  -0.581   0.256  0.00  0.00    +0.259 A 
ATOM     16  O   UNL     1       8.424  -0.752   0.341  0.00  0.00    -0.267 OA
ATOM     17  C   UNL     1       6.287  -1.718   0.252  0.00  0.00    +0.065 A 
ATOM     18  C   UNL     1       6.733  -3.034   0.345  0.00  0.00    +0.015 A 
ATOM     19  C   UNL     1       5.818  -4.065   0.338  0.00  0.00    +0.001 A 
ATOM     20  C   UNL     1       4.458  -3.802   0.239  0.00  0.00    +0.002 A 
ATOM     21  C   UNL     1       3.994  -2.509   0.146  0.00  0.00    +0.028 A 
ATOM     22  C   UNL     1       4.903  -1.445   0.151  0.00  0.00    +0.078 A 
ATOM     23  N   UNL     1       4.489  -0.168   0.068  0.00  0.00    -0.230 NA
ENDBRANCH   9  12
BRANCH   1  25
ATOM     24  C   UNL     1       0.084   4.569   1.314  0.00  0.00    +0.028 C 
ATOM     25  C   UNL     1       0.307   4.307  -0.177  0.00  0.00    +0.076 C 
ATOM     26  C   UNL     1       0.648   5.622  -0.881  0.00  0.00    +0.028 C 
ENDBRANCH   1  25
TORSDOF 2
