REMARK  Name = ZINC31846551
REMARK  5 active torsions:
REMARK  status: ('A' for Active; 'I' for Inactive)
REMARK    1  A    between atoms: C_1  and  C_2
REMARK    2  A    between atoms: N_12  and  C_13
REMARK    3  A    between atoms: C_13  and  C_14
REMARK    4  A    between atoms: C_17  and  C_25
REMARK    5  A    between atoms: C_22  and  C_24
REMARK                            x       y       z     vdW  Elec       q    Type
REMARK                         _______ _______ _______ _____ _____    ______ ____
ROOT
ATOM      1  C   UNL     1       1.250   3.981  -0.796  0.00  0.00    +0.044 C 
ATOM      2  C   UNL     1       0.010   3.179  -0.492  0.00  0.00    -0.047 A 
ATOM      3  C   UNL     1       0.062   1.798  -0.495  0.00  0.00    +0.005 A 
ATOM      4  C   UNL     1      -1.072   1.061  -0.222  0.00  0.00    +0.027 A 
ATOM      5  C   UNL     1      -2.278   1.702   0.051  0.00  0.00    +0.074 A 
ATOM      6  C   UNL     1      -2.324   3.091   0.067  0.00  0.00    +0.153 A 
ATOM      7  C   UNL     1      -1.178   3.825  -0.211  0.00  0.00    +0.051 A 
ATOM      8  O   UNL     1      -3.474   3.764   0.352  0.00  0.00    -0.423 OA
ATOM      9  C   UNL     1      -4.590   3.008   0.422  0.00  0.00    +0.330 C 
ATOM     10  O   UNL     1      -5.654   3.402   0.004  0.00  0.00    -0.249 OA
ATOM     11  C   UNL     1      -4.438   1.639   1.054  0.00  0.00    +0.226 C 
ATOM     12  N   UNL     1      -3.403   0.913   0.306  0.00  0.00    -0.308 N 
ENDROOT
BRANCH  12  13
ATOM     13  C   UNL     1      -3.032  -0.331   0.994  0.00  0.00    +0.201 C 
BRANCH  13  14
ATOM     14  C   UNL     1      -2.363  -0.001   2.303  0.00  0.00    +0.233 C 
ATOM     15  O   UNL     1      -2.125   1.153   2.589  0.00  0.00    -0.274 OA
ATOM     16  N   UNL     1      -2.029  -0.989   3.157  0.00  0.00    -0.295 N 
ATOM     17  C   UNL     1      -1.482  -0.678   4.485  0.00  0.00    +0.073 C 
ATOM     18  C   UNL     1      -2.328  -1.403   5.543  0.00  0.00    +0.022 C 
ATOM     19  C   UNL     1      -2.371  -2.897   5.216  0.00  0.00    +0.004 C 
ATOM     20  C   UNL     1      -3.030  -3.104   3.850  0.00  0.00    +0.022 C 
ATOM     21  C   UNL     1      -2.198  -2.398   2.775  0.00  0.00    +0.073 C 
ATOM     22  C   UNL     1      -0.827  -3.068   2.666  0.00  0.00    +0.028 C 
ATOM     23  C   UNL     1      -1.543   0.832   4.724  0.00  0.00    +0.028 C 
ENDBRANCH  13  14
ENDBRANCH  12  13
TORSDOF 2
