REMARK  Name = ZINC06732725
REMARK  9 active torsions:
REMARK  status: ('A' for Active; 'I' for Inactive)
REMARK    1  A    between atoms: C_1  and  C_2
REMARK    2  A    between atoms: C_2  and  CA_3
REMARK    3  A    between atoms: CA_3  and  C_5
REMARK    4  A    between atoms: CA_3  and  N_7
REMARK    5  A    between atoms: C_5  and  O_6
REMARK    6  A    between atoms: C_8  and  C_10
REMARK    7  A    between atoms: N_14  and  C_17
REMARK    8  A    between atoms: C_25  and  C_29
REMARK    9  A    between atoms: C_25  and  C_30
REMARK                            x       y       z     vdW  Elec       q    Type
REMARK                         _______ _______ _______ _____ _____    ______ ____
ROOT
ATOM      1  C   UNL     1       1.562   1.952   0.017  0.00  0.00    +0.102 A 
ATOM      2  C   UNL     1       1.227   3.299   0.048  0.00  0.00    +0.031 A 
ATOM      3  C   UNL     1      -0.136   3.662   0.116  0.00  0.00    +0.038 A 
ATOM      4  C   UNL     1      -1.124   2.692   0.146  0.00  0.00    +0.038 A 
ATOM      5  N   UNL     1      -0.799   1.382   0.115  0.00  0.00    -0.280 N 
ATOM      6  C   UNL     1       0.477   0.968   0.058  0.00  0.00    +0.268 A 
ATOM      7  O   UNL     1       0.733  -0.223   0.035  0.00  0.00    -0.266 OA
ATOM      8  C   UNL     1      -2.584   3.061   0.207  0.00  0.00    +0.061 C 
ATOM      9  C   UNL     1      -2.780   4.459   0.786  0.00  0.00    -0.023 C 
ATOM     10  C   UNL     1      -1.948   5.462  -0.025  0.00  0.00    +0.086 C 
ATOM     11  C   UNL     1      -0.492   5.090   0.160  0.00  0.00    +0.165 C 
ATOM     12  O   UNL     1       0.354   5.941   0.339  0.00  0.00    -0.292 OA
ATOM     13  C   UNL     1      -2.322   4.477   2.246  0.00  0.00    +0.011 C 
ATOM     14  C   UNL     1      -4.259   4.842   0.709  0.00  0.00    +0.011 C 
ENDROOT
BRANCH   5  15
ATOM     15  C   UNL     1      -1.823   0.427   0.149  0.00  0.00    +0.050 A 
ATOM     16  C   UNL     1      -2.717   0.328  -0.909  0.00  0.00    +0.028 A 
ATOM     17  C   UNL     1      -3.722  -0.618  -0.875  0.00  0.00    +0.022 A 
ATOM     18  C   UNL     1      -3.845  -1.460   0.216  0.00  0.00    +0.041 A 
ATOM     19  C   UNL     1      -2.959  -1.360   1.274  0.00  0.00    +0.022 A 
ATOM     20  C   UNL     1      -1.949  -0.419   1.243  0.00  0.00    +0.028 A 
ATOM     21 CL   UNL     1      -5.115  -2.644   0.258  0.00  0.00    -0.084 Cl
ENDBRANCH   5  15
BRANCH   1  23
ATOM     22  N   UNL     1       3.280   0.216   0.026  0.00  0.00    -0.306 N 
ATOM     23  C   UNL     1       2.968   1.524  -0.054  0.00  0.00    +0.250 C 
ATOM     24  O   UNL     1       3.850   2.352  -0.185  0.00  0.00    -0.270 OA
ATOM     25  H   UNL     1       2.574  -0.450   0.049  0.00  0.00    +0.149 HD
BRANCH  22  26
ATOM     26  CA  UNL     1       4.683  -0.202   0.078  0.00  0.00    +0.098 C 
BRANCH  26  28
ATOM     27  C   UNL     1       5.169   1.305   2.011  0.00  0.00    +0.006 C 
ATOM     28  C   UNL     1       5.178  -0.146   1.524  0.00  0.00    +0.021 C 
ENDBRANCH  26  28
BRANCH  26  29
ATOM     29  C   UNL     1       4.809  -1.632  -0.450  0.00  0.00    +0.178 C 
BRANCH  29  30
ATOM     30  O   UNL     1       4.117  -2.525   0.425  0.00  0.00    -0.393 OA
ATOM     31  H   UNL     1       4.155  -3.452   0.151  0.00  0.00    +0.209 HD
ENDBRANCH  29  30
ENDBRANCH  26  29
ENDBRANCH  22  26
ENDBRANCH   1  23
TORSDOF 6
