REMARK  Name = ZINC12999927
REMARK  9 active torsions:
REMARK  status: ('A' for Active; 'I' for Inactive)
REMARK    1  A    between atoms: C_1  and  C_2
REMARK    2  A    between atoms: C_4  and  C_27
REMARK    3  A    between atoms: C_6  and  C_23
REMARK    4  A    between atoms: C_10  and  C_11
REMARK    5  A    between atoms: C_15  and  C_22
REMARK    6  A    between atoms: C_18  and  C_21
REMARK    7  A    between atoms: C_23  and  C_24
REMARK    8  A    between atoms: C_23  and  C_25
REMARK    9  A    between atoms: C_23  and  C_26
REMARK                            x       y       z     vdW  Elec       q    Type
REMARK                         _______ _______ _______ _____ _____    ______ ____
ROOT
ATOM      1  C   UNL     1       3.813  -2.080  -1.279  0.00  0.00    +0.046 C 
ATOM      2  C   UNL     1       3.636  -0.679  -0.754  0.00  0.00    -0.020 A 
ATOM      3  C   UNL     1       2.348  -0.180  -0.499  0.00  0.00    +0.032 A 
ATOM      4  C   UNL     1       1.091  -0.814  -0.662  0.00  0.00    +0.050 A 
ATOM      5  N   UNL     1      -0.006  -0.156  -0.359  0.00  0.00    -0.236 NA
ATOM      6  C   UNL     1       0.014   1.085   0.095  0.00  0.00    +0.136 A 
ATOM      7  N   UNL     1       1.149   1.734   0.271  0.00  0.00    -0.224 NA
ATOM      8  C   UNL     1       2.294   1.151  -0.008  0.00  0.00    +0.113 A 
ATOM      9  S   UNL     1       4.002   1.625   0.072  0.00  0.00    -0.064 S 
ATOM     10  C   UNL     1       4.722   0.106  -0.526  0.00  0.00    +0.080 A 
ATOM     11  C   UNL     1       1.013  -2.228  -1.177  0.00  0.00    +0.066 C 
ENDROOT
BRANCH  10  12
ATOM     12  C   UNL     1       6.143  -0.218  -0.723  0.00  0.00    +0.254 C 
ATOM     13  O   UNL     1       6.478  -1.363  -0.960  0.00  0.00    -0.269 OA
ATOM     14  N   UNL     1       7.073   0.754  -0.642  0.00  0.00    -0.292 N 
ATOM     15  C   UNL     1       8.508   0.429  -0.622  0.00  0.00    +0.139 C 
ATOM     16  C   UNL     1       9.209   1.291  -1.684  0.00  0.00    +0.133 C 
ATOM     17  O   UNL     1       8.866   2.663  -1.475  0.00  0.00    -0.371 OA
ATOM     18  C   UNL     1       7.473   2.948  -1.624  0.00  0.00    +0.133 C 
ATOM     19  C   UNL     1       6.683   2.171  -0.565  0.00  0.00    +0.139 C 
ATOM     20  C   UNL     1       7.236   4.448  -1.440  0.00  0.00    +0.039 C 
ATOM     21  C   UNL     1       8.757   0.859  -3.080  0.00  0.00    +0.039 C 
ENDBRANCH  10  12
BRANCH   6  22
ATOM     22  C   UNL     1      -1.287   1.775   0.415  0.00  0.00    +0.022 C 
ATOM     23  C   UNL     1      -2.031   0.987   1.495  0.00  0.00    +0.019 C 
ATOM     24  C   UNL     1      -1.003   3.191   0.920  0.00  0.00    +0.019 C 
ATOM     25  C   UNL     1      -2.149   1.847  -0.847  0.00  0.00    +0.019 C 
ENDBRANCH   6  22
TORSDOF 2
