REMARK  Name = ZINC31773699
REMARK  10 active torsions:
REMARK  status: ('A' for Active; 'I' for Inactive)
REMARK    1  A    between atoms: C_1  and  C_2
REMARK    2  A    between atoms: C_2  and  C_3
REMARK    3  A    between atoms: C_6  and  N_9
REMARK    4  A    between atoms: N_19  and  C_23
REMARK    5  A    between atoms: C_23  and  C_24
REMARK    6  A    between atoms: C_24  and  C_25
REMARK    7  A    between atoms: C_27  and  O_33
REMARK    8  A    between atoms: C_30  and  O_31
REMARK    9  A    between atoms: O_31  and  C_32
REMARK   10  A    between atoms: O_33  and  C_34
REMARK                            x       y       z     vdW  Elec       q    Type
REMARK                         _______ _______ _______ _____ _____    ______ ____
ROOT
ATOM      1  N   UNL     1      -3.400   1.693  -0.733  0.00  0.00    -0.270 N 
ATOM      2  C   UNL     1      -2.249   2.578  -0.660  0.00  0.00    +0.090 C 
ATOM      3  C   UNL     1      -1.039   1.912  -1.349  0.00  0.00    +0.187 C 
ATOM      4  S   UNL     1      -0.042   1.299   0.068  0.00  0.00    -0.031 S 
ATOM      5  O   UNL     1      -0.076  -0.122   0.074  0.00  0.00    -0.174 OA
ATOM      6  O   UNL     1       1.212   1.967   0.073  0.00  0.00    -0.174 OA
ATOM      7  C   UNL     1      -1.058   1.926   1.466  0.00  0.00    +0.152 C 
ATOM      8  C   UNL     1      -1.927   2.999   0.766  0.00  0.00    -0.024 C 
ATOM      9  N   UNL     1      -3.157   3.197   1.543  0.00  0.00    +0.390 N 
ATOM     10  C   UNL     1      -3.873   1.920   1.691  0.00  0.00    +0.020 C 
ATOM     11  C   UNL     1      -4.159   1.366   0.320  0.00  0.00    +0.203 C 
ATOM     12  O   UNL     1      -5.094   0.609   0.167  0.00  0.00    -0.277 OA
ATOM     13  H   UNL     1      -3.803   3.901   0.998  0.00  0.00    -0.081 HD
ENDROOT
BRANCH   1  17
ATOM     14  C   UNL     1      -4.399   0.079  -4.442  0.00  0.00    -0.048 A 
ATOM     15  C   UNL     1      -3.933  -0.745  -3.433  0.00  0.00    +0.005 A 
ATOM     16  C   UNL     1      -3.601  -0.213  -2.203  0.00  0.00    +0.024 A 
ATOM     17  C   UNL     1      -3.735   1.151  -1.979  0.00  0.00    +0.036 A 
ATOM     18  C   UNL     1      -4.208   1.975  -2.992  0.00  0.00    +0.024 A 
ATOM     19  C   UNL     1      -4.534   1.437  -4.222  0.00  0.00    +0.005 A 
BRANCH  14  21
ATOM     20  C   UNL     1      -6.235  -0.910  -5.782  0.00  0.00    +0.009 C 
ATOM     21  C   UNL     1      -4.760  -0.505  -5.783  0.00  0.00    +0.032 C 
ENDBRANCH  14  21
ENDBRANCH   1  17
BRANCH   9  22
ATOM     22  C   UNL     1      -2.862   3.790   2.854  0.00  0.00    -0.073 C 
BRANCH  22  23
ATOM     23  C   UNL     1      -4.170   4.185   3.542  0.00  0.00    +0.020 C 
BRANCH  23  24
ATOM     24  C   UNL     1      -3.868   4.794   4.886  0.00  0.00    -0.004 A 
ATOM     25  C   UNL     1      -3.898   4.009   6.023  0.00  0.00    +0.052 A 
ATOM     26  C   UNL     1      -3.615   4.568   7.260  0.00  0.00    +0.121 A 
ATOM     27  C   UNL     1      -3.312   5.918   7.357  0.00  0.00    +0.049 A 
ATOM     28  C   UNL     1      -3.286   6.704   6.222  0.00  0.00    +0.049 A 
ATOM     29  C   UNL     1      -3.564   6.143   4.984  0.00  0.00    +0.123 A 
BRANCH  29  30
ATOM     30  O   UNL     1      -3.539   6.917   3.866  0.00  0.00    -0.495 OA
ATOM     31  C   UNL     1      -3.219   8.299   4.041  0.00  0.00    +0.277 C 
ENDBRANCH  29  30
BRANCH  26  32
ATOM     32  O   UNL     1      -3.639   3.794   8.377  0.00  0.00    -0.495 OA
ATOM     33  C   UNL     1      -3.344   4.437   9.619  0.00  0.00    +0.277 C 
ENDBRANCH  26  32
ENDBRANCH  23  24
ENDBRANCH  22  23
ENDBRANCH   9  22
TORSDOF 7
