REMARK  Name = ZINC66710300
REMARK  10 active torsions:
REMARK  status: ('A' for Active; 'I' for Inactive)
REMARK    1  A    between atoms: C_1  and  C_2
REMARK    2  A    between atoms: C_6  and  C_24
REMARK    3  A    between atoms: C_10  and  C_12
REMARK    4  A    between atoms: C_14  and  C_21
REMARK    5  A    between atoms: N_15  and  C_17
REMARK    6  A    between atoms: C_17  and  C_18
REMARK    7  A    between atoms: C_17  and  C_19
REMARK    8  A    between atoms: C_17  and  C_20
REMARK    9  A    between atoms: C_21  and  C_22
REMARK   10  A    between atoms: C_21  and  C_23
REMARK                            x       y       z     vdW  Elec       q    Type
REMARK                         _______ _______ _______ _____ _____    ______ ____
ROOT
ATOM      1  C   UNL     1       0.466   1.200  -0.589  0.00  0.00    +0.030 C 
ATOM      2  C   UNL     1       0.588  -0.323  -0.516  0.00  0.00    +0.099 C 
ATOM      3  C   UNL     1       1.448  -0.829  -1.680  0.00  0.00    +0.183 C 
ATOM      4  O   UNL     1       1.710  -2.223  -1.501  0.00  0.00    -0.369 OA
ATOM      5  C   UNL     1       2.457  -2.531  -0.321  0.00  0.00    +0.166 C 
ATOM      6  C   UNL     1       1.648  -2.113   0.912  0.00  0.00    +0.145 C 
ATOM      7  N   UNL     1       1.240  -0.709   0.745  0.00  0.00    -0.288 N 
ATOM      8  C   UNL     1       1.457   0.198   1.719  0.00  0.00    +0.267 C 
ATOM      9  O   UNL     1       1.026   1.328   1.604  0.00  0.00    -0.268 OA
ENDROOT
BRANCH   5  10
ATOM     10  C   UNL     1       2.727  -4.013  -0.269  0.00  0.00    -0.017 A 
ATOM     11  C   UNL     1       1.786  -4.904  -0.750  0.00  0.00    +0.006 A 
ATOM     12  C   UNL     1       2.033  -6.263  -0.702  0.00  0.00    +0.000 A 
ATOM     13  C   UNL     1       3.221  -6.731  -0.173  0.00  0.00    +0.000 A 
ATOM     14  C   UNL     1       4.162  -5.840   0.307  0.00  0.00    +0.000 A 
ATOM     15  C   UNL     1       3.917  -4.481   0.255  0.00  0.00    +0.006 A 
ENDBRANCH   5  10
BRANCH   8  16
ATOM     16  C   UNL     1       2.218  -0.183   2.926  0.00  0.00    +0.148 A 
ATOM     17  C   UNL     1       2.417   0.609   4.081  0.00  0.00    +0.058 A 
ATOM     18  C   UNL     1       3.168  -0.148   4.915  0.00  0.00    +0.043 A 
ATOM     19  N   UNL     1       3.402  -1.321   4.288  0.00  0.00    -0.262 N 
ATOM     20  N   UNL     1       2.837  -1.328   3.134  0.00  0.00    -0.166 NA
BRANCH  19  21
ATOM     21  C   UNL     1       4.181  -2.429   4.847  0.00  0.00    +0.056 C 
ATOM     22  C   UNL     1       3.618  -2.808   6.218  0.00  0.00    +0.036 C 
ATOM     23  C   UNL     1       4.098  -3.635   3.909  0.00  0.00    +0.036 C 
ATOM     24  C   UNL     1       5.642  -1.999   4.996  0.00  0.00    +0.036 C 
ENDBRANCH  19  21
BRANCH  18  25
ATOM     25  C   UNL     1       3.655   0.246   6.285  0.00  0.00    +0.031 C 
ATOM     26  C   UNL     1       4.080   1.716   6.273  0.00  0.00    +0.014 C 
ATOM     27  C   UNL     1       2.529   0.049   7.302  0.00  0.00    +0.014 C 
ENDBRANCH  18  25
ENDBRANCH   8  16
TORSDOF 4
