REMARK  Name = ZINC19861924
REMARK  5 active torsions:
REMARK  status: ('A' for Active; 'I' for Inactive)
REMARK    1  A    between atoms: C_1  and  C_2
REMARK    2  A    between atoms: C_2  and  O_4
REMARK    3  A    between atoms: O_4  and  C_5
REMARK    4  A    between atoms: C_9  and  C_26
REMARK    5  A    between atoms: C_24  and  O_25
REMARK                            x       y       z     vdW  Elec       q    Type
REMARK                         _______ _______ _______ _____ _____    ______ ____
ROOT
ATOM      1  C   UNL     1       0.680   4.010  -1.370  0.00  0.00    +0.177 C 
ATOM      2  C   UNL     1      -0.766   3.513  -1.293  0.00  0.00    +0.045 C 
ATOM      3  C   UNL     1      -0.768   1.985  -1.237  0.00  0.00    +0.015 C 
ATOM      4  C   UNL     1      -0.018   1.508   0.010  0.00  0.00    -0.007 C 
ATOM      5  C   UNL     1       1.408   2.046  -0.000  0.00  0.00    +0.003 C 
ATOM      6  C   UNL     1       1.427   3.564  -0.111  0.00  0.00    +0.049 C 
ATOM      7  C   UNL     1       2.155   1.408  -1.174  0.00  0.00    +0.009 C 
ATOM      8  C   UNL     1       2.338  -0.076  -0.863  0.00  0.00    +0.036 C 
ATOM      9  C   UNL     1       1.044  -0.699  -0.410  0.00  0.00    -0.040 C 
ATOM     10  C   UNL     1       0.002  -0.004   0.002  0.00  0.00    -0.059 C 
ATOM     11  C   UNL     1      -1.230  -0.712   0.522  0.00  0.00    +0.036 C 
ATOM     12  C   UNL     1      -1.536  -1.950  -0.317  0.00  0.00    +0.044 C 
ATOM     13  C   UNL     1      -0.296  -2.800  -0.417  0.00  0.00    +0.002 A 
ATOM     14  C   UNL     1       0.949  -2.181  -0.468  0.00  0.00    -0.015 A 
ATOM     15  C   UNL     1       2.106  -2.952  -0.571  0.00  0.00    +0.009 A 
ATOM     16  C   UNL     1       2.009  -4.329  -0.620  0.00  0.00    +0.004 A 
ATOM     17  C   UNL     1       0.771  -4.942  -0.565  0.00  0.00    +0.046 A 
ATOM     18  C   UNL     1      -0.386  -4.179  -0.464  0.00  0.00    +0.121 A 
ATOM     19  C   UNL     1      -0.741   2.002   1.265  0.00  0.00    +0.016 C 
ENDROOT
BRANCH  18  20
ATOM     20  O   UNL     1      -1.601  -4.786  -0.410  0.00  0.00    -0.506 OA
ATOM     21  H   UNL     1      -1.670  -5.883  -0.447  0.00  0.00    +0.292 HD
ENDBRANCH  18  20
BRANCH   1  22
ATOM     22  O   UNL     1       0.694   5.459  -1.455  0.00  0.00    -0.462 OA
BRANCH  22  24
ATOM     23  C   UNL     1       0.683   7.495  -2.852  0.00  0.00    +0.136 C 
ATOM     24  C   UNL     1       0.670   5.997  -2.685  0.00  0.00    +0.304 C 
ATOM     25  O   UNL     1       0.639   5.281  -3.657  0.00  0.00    -0.251 OA
ENDBRANCH  22  24
ENDBRANCH   1  22
TORSDOF 3
