REMARK  Name = ZINC32109239
REMARK  6 active torsions:
REMARK  status: ('A' for Active; 'I' for Inactive)
REMARK    1  A    between atoms: C_9  and  C_12
REMARK    2  A    between atoms: N_14  and  N_15
REMARK    3  A    between atoms: C_16  and  C_17
REMARK    4  A    between atoms: C_20  and  O_23
REMARK    5  A    between atoms: O_23  and  C_24
REMARK    6  A    between atoms: C_24  and  C_26
REMARK                            x       y       z     vdW  Elec       q    Type
REMARK                         _______ _______ _______ _____ _____    ______ ____
ROOT
ATOM      1  N   UNL     1      -2.083   9.544  -0.039  0.00  0.00    -0.188 NA
ATOM      2  C   UNL     1      -3.111  10.311  -0.239  0.00  0.00    +0.138 C 
ENDROOT
BRANCH   2   3
ATOM      3  C   UNL     1      -4.284   9.796  -0.968  0.00  0.00    -0.005 A 
ATOM      4  C   UNL     1      -4.417   8.425  -1.203  0.00  0.00    +0.013 A 
ATOM      5  C   UNL     1      -5.518   7.948  -1.881  0.00  0.00    +0.047 A 
ATOM      6  C   UNL     1      -6.489   8.828  -2.339  0.00  0.00    +0.132 A 
ATOM      7  C   UNL     1      -6.359  10.193  -2.111  0.00  0.00    +0.047 A 
ATOM      8  C   UNL     1      -5.264  10.678  -1.430  0.00  0.00    +0.013 A 
BRANCH   6   9
ATOM      9  O   UNL     1      -7.570   8.354  -3.012  0.00  0.00    -0.422 OA
BRANCH   9  10
ATOM     10  C   UNL     1      -7.670   8.680  -4.315  0.00  0.00    +0.344 C 
ATOM     11  O   UNL     1      -6.771   9.289  -4.860  0.00  0.00    -0.245 OA
BRANCH  10  12
ATOM     12  C   UNL     1      -8.873   8.296  -5.082  0.00  0.00    +0.059 A 
ATOM     13  C   UNL     1      -9.905   7.590  -4.460  0.00  0.00    +0.016 A 
ATOM     14  C   UNL     1     -11.028   7.240  -5.179  0.00  0.00    +0.021 A 
ATOM     15  C   UNL     1     -11.128   7.576  -6.519  0.00  0.00    +0.041 A 
ATOM     16  C   UNL     1     -10.105   8.271  -7.144  0.00  0.00    +0.021 A 
ATOM     17  C   UNL     1      -8.980   8.632  -6.433  0.00  0.00    +0.016 A 
ATOM     18 CL   UNL     1     -12.542   7.125  -7.420  0.00  0.00    -0.084 Cl
ENDBRANCH  10  12
ENDBRANCH   9  10
ENDBRANCH   6   9
ENDBRANCH   2   3
BRANCH   1  21
ATOM     19  C   UNL     1      -0.871   7.569  -0.585  0.00  0.00    +0.276 C 
ATOM     20  O   UNL     1      -0.161   7.754   0.380  0.00  0.00    -0.270 OA
ATOM     21  N   UNL     1      -1.868   8.432  -0.864  0.00  0.00    -0.204 N 
ATOM     22  H   UNL     1      -2.513   8.264  -1.739  0.00  0.00    +0.177 HD
BRANCH  19  31
ATOM     23  C   UNL     1       1.083   1.848  -2.521  0.00  0.00    +0.004 A 
ATOM     24  C   UNL     1       2.131   2.527  -1.929  0.00  0.00    +0.004 A 
ATOM     25  C   UNL     1       1.940   3.803  -1.433  0.00  0.00    +0.049 A 
ATOM     26  C   UNL     1       0.695   4.405  -1.528  0.00  0.00    +0.163 A 
ATOM     27  C   UNL     1      -0.359   3.724  -2.126  0.00  0.00    +0.162 A 
ATOM     28  C   UNL     1      -0.159   2.446  -2.625  0.00  0.00    +0.049 A 
ATOM     29  O   UNL     1      -1.588   4.299  -2.234  0.00  0.00    -0.484 OA
ATOM     30  C   UNL     1      -1.847   5.428  -1.392  0.00  0.00    +0.283 C 
ATOM     31  C   UNL     1      -0.640   6.373  -1.472  0.00  0.00    +0.297 C 
ATOM     32  O   UNL     1       0.519   5.659  -1.028  0.00  0.00    -0.472 OA
ENDBRANCH  19  31
ENDBRANCH   1  21
TORSDOF 6
