REMARK  Name = ZINC40087065
REMARK  7 active torsions:
REMARK  status: ('A' for Active; 'I' for Inactive)
REMARK    1  A    between atoms: C_1  and  C_2
REMARK    2  A    between atoms: C_2  and  C_3
REMARK    3  A    between atoms: C_2  and  C_4
REMARK    4  A    between atoms: C_2  and  C_5
REMARK    5  A    between atoms: N_10  and  C_13
REMARK    6  A    between atoms: C_14  and  C_21
REMARK    7  A    between atoms: C_16  and  C_18
REMARK                            x       y       z     vdW  Elec       q    Type
REMARK                         _______ _______ _______ _____ _____    ______ ____
ROOT
ATOM      1  C   UNL     1       0.741  -0.497  -1.215  0.00  0.00    +0.221 C 
ATOM      2  O   UNL     1       1.304   0.296  -1.940  0.00  0.00    -0.275 OA
ATOM      3  N   UNL     1       0.783  -1.814  -1.495  0.00  0.00    -0.298 N 
ATOM      4  C   UNL     1       0.199  -2.795  -0.569  0.00  0.00    +0.127 C 
ATOM      5  C   UNL     1      -0.818  -3.648  -1.336  0.00  0.00    +0.127 C 
ATOM      6  N   UNL     1      -0.189  -4.130  -2.574  0.00  0.00    -0.296 N 
ATOM      7  C   UNL     1       0.395  -3.150  -3.500  0.00  0.00    +0.127 C 
ATOM      8  C   UNL     1       1.407  -2.296  -2.735  0.00  0.00    +0.127 C 
ENDROOT
BRANCH   6   9
ATOM      9  C   UNL     1      -0.146  -5.479  -2.861  0.00  0.00    +0.227 A 
ATOM     10  C   UNL     1      -1.043  -6.188  -3.640  0.00  0.00    +0.201 A 
ATOM     11  N   UNL     1      -0.616  -7.482  -3.652  0.00  0.00    -0.200 NA
ATOM     12  C   UNL     1       0.463  -7.570  -2.935  0.00  0.00    +0.202 A 
ATOM     13  O   UNL     1       0.780  -6.362  -2.443  0.00  0.00    -0.425 OA
BRANCH  12  14
ATOM     14  C   UNL     1       1.245  -8.836  -2.697  0.00  0.00    +0.075 C 
ATOM     15  C   UNL     1       0.852 -10.072  -3.508  0.00  0.00    +0.013 C 
ATOM     16  C   UNL     1       0.519  -9.998  -2.016  0.00  0.00    +0.013 C 
ENDBRANCH  12  14
BRANCH  10  17
ATOM     17  C   UNL     1      -2.198  -5.664  -4.306  0.00  0.00    +0.124 C 
ATOM     18  N   UNL     1      -3.114  -5.248  -4.833  0.00  0.00    -0.189 NA
ENDBRANCH  10  17
ENDBRANCH   6   9
BRANCH   1  20
ATOM     19  C   UNL     1       0.052   1.520   0.053  0.00  0.00    +0.020 C 
ATOM     20  C   UNL     1      -0.006  -0.008  -0.000  0.00  0.00    +0.039 C 
ATOM     21  C   UNL     1       0.637  -0.587   1.261  0.00  0.00    +0.020 C 
ATOM     22  C   UNL     1      -1.465  -0.461  -0.083  0.00  0.00    +0.020 C 
ENDBRANCH   1  20
TORSDOF 4
