REMARK  Name = ZINC36977741
REMARK  4 active torsions:
REMARK  status: ('A' for Active; 'I' for Inactive)
REMARK    1  A    between atoms: C_1  and  C_2
REMARK    2  A    between atoms: C_8  and  N_10
REMARK    3  A    between atoms: N_10  and  C_11
REMARK    4  A    between atoms: C_14  and  N_17
REMARK                            x       y       z     vdW  Elec       q    Type
REMARK                         _______ _______ _______ _____ _____    ______ ____
ROOT
ATOM      1  C   UNL     1       0.763   0.098   3.645  0.00  0.00    +0.027 A 
ATOM      2  C   UNL     1       2.117  -0.209   3.692  0.00  0.00    +0.025 A 
ATOM      3  C   UNL     1       2.815  -0.074   4.875  0.00  0.00    +0.029 A 
ATOM      4  C   UNL     1       2.164   0.368   6.019  0.00  0.00    +0.065 A 
ATOM      5  C   UNL     1       0.810   0.674   5.973  0.00  0.00    +0.029 A 
ATOM      6  C   UNL     1       0.113   0.546   4.788  0.00  0.00    +0.025 A 
ENDROOT
BRANCH   4   7
ATOM      7  N   UNL     1       2.873   0.504   7.222  0.00  0.00    -0.240 N 
ATOM      8  C   UNL     1       2.363   0.917   8.404  0.00  0.00    +0.114 A 
ATOM      9  C   UNL     1       3.368   0.912   9.310  0.00  0.00    +0.041 A 
ATOM     10  C   UNL     1       4.531   0.482   8.662  0.00  0.00    +0.135 A 
ATOM     11  N   UNL     1       4.234   0.232   7.412  0.00  0.00    -0.175 NA
ENDBRANCH   4   7
BRANCH   1  12
ATOM     12  N   UNL     1       0.056  -0.038   2.447  0.00  0.00    -0.341 N 
ATOM     13  H   UNL     1      -0.888   0.180   2.413  0.00  0.00    +0.146 HD
BRANCH  12  20
ATOM     14  C   UNL     1      -0.019   1.526   0.010  0.00  0.00    +0.009 C 
ATOM     15  C   UNL     1       0.002  -0.004   0.002  0.00  0.00    +0.006 C 
ATOM     16  C   UNL     1       0.718  -0.497  -1.257  0.00  0.00    +0.005 C 
ATOM     17  C   UNL     1       0.739  -2.027  -1.265  0.00  0.00    +0.000 C 
ATOM     18  C   UNL     1       1.479  -2.534  -0.026  0.00  0.00    +0.002 C 
ATOM     19  C   UNL     1       0.763  -2.041   1.233  0.00  0.00    +0.022 C 
ATOM     20  C   UNL     1       0.742  -0.511   1.242  0.00  0.00    +0.073 C 
ENDBRANCH  12  20
ENDBRANCH   1  12
TORSDOF 3
