REMARK  Name = ZINC00180224
REMARK  4 active torsions:
REMARK  status: ('A' for Active; 'I' for Inactive)
REMARK    1  A    between atoms: C_1  and  C_2
REMARK    2  A    between atoms: C_5  and  N_9
REMARK    3  A    between atoms: C_10  and  C_16
REMARK    4  A    between atoms: C_19  and  N_22
REMARK                            x       y       z     vdW  Elec       q    Type
REMARK                         _______ _______ _______ _____ _____    ______ ____
ROOT
ATOM      1  N   UNL     1       1.357   1.635  -0.002  0.00  0.00    -0.254 N 
ATOM      2  C   UNL     1      -0.036   1.147   0.023  0.00  0.00    +0.170 C 
ATOM      3  S   UNL     1      -0.673   1.792  -1.583  0.00  0.00    -0.124 S 
ATOM      4  C   UNL     1       0.974   2.047  -2.373  0.00  0.00    +0.167 C 
ATOM      5  C   UNL     1       1.870   2.071  -1.145  0.00  0.00    +0.231 C 
ATOM      6  O   UNL     1       3.012   2.475  -1.208  0.00  0.00    -0.274 OA
ENDROOT
BRANCH   1  11
ATOM      7  C   UNL     1       4.481   1.639   4.734  0.00  0.00    +0.045 C 
ATOM      8  C   UNL     1       3.651   1.638   3.476  0.00  0.00    -0.032 A 
ATOM      9  C   UNL     1       3.106   0.456   3.010  0.00  0.00    +0.006 A 
ATOM     10  C   UNL     1       2.345   0.452   1.858  0.00  0.00    +0.024 A 
ATOM     11  C   UNL     1       2.127   1.636   1.166  0.00  0.00    +0.039 A 
ATOM     12  C   UNL     1       2.679   2.821   1.633  0.00  0.00    +0.043 A 
ATOM     13  C   UNL     1       3.436   2.821   2.790  0.00  0.00    +0.046 A 
ATOM     14 CL   UNL     1       4.122   4.303   3.379  0.00  0.00    -0.083 Cl
ENDBRANCH   1  11
BRANCH   2  15
ATOM     15  C   UNL     1      -0.795   1.737   1.184  0.00  0.00    -0.017 A 
ATOM     16  C   UNL     1      -0.415   2.958   1.709  0.00  0.00    +0.008 A 
ATOM     17  C   UNL     1      -1.115   3.501   2.771  0.00  0.00    +0.033 A 
ATOM     18  C   UNL     1      -2.187   2.818   3.314  0.00  0.00    +0.126 A 
ATOM     19  C   UNL     1      -2.563   1.594   2.792  0.00  0.00    +0.033 A 
ATOM     20  C   UNL     1      -1.867   1.054   1.727  0.00  0.00    +0.008 A 
BRANCH  18  21
ATOM     21  N   UNL     1      -2.932   3.396   4.454  0.00  0.00    +0.056 N 
ATOM     22  O   UNL     1      -3.876   2.795   4.933  0.00  0.00    -0.126 OA
ATOM     23  O   UNL     1      -2.600   4.474   4.914  0.00  0.00    -0.126 OA
ENDBRANCH  18  21
ENDBRANCH   2  15
TORSDOF 3
