REMARK  Name = ZINC40304570
REMARK  6 active torsions:
REMARK  status: ('A' for Active; 'I' for Inactive)
REMARK    1  A    between atoms: C_1  and  C_2
REMARK    2  A    between atoms: C_2  and  C_3
REMARK    3  A    between atoms: C_7  and  C_20
REMARK    4  A    between atoms: C_11  and  C_13
REMARK    5  A    between atoms: C_15  and  N_19
REMARK    6  A    between atoms: C_16  and  C_18
REMARK                            x       y       z     vdW  Elec       q    Type
REMARK                         _______ _______ _______ _____ _____    ______ ____
ROOT
ATOM      1  C   UNL     1      -1.307  -0.811  -0.134  0.00  0.00    +0.102 C 
ATOM      2  C   UNL     1      -0.825  -2.264  -0.069  0.00  0.00    +0.182 C 
ATOM      3  O   UNL     1      -1.884  -3.131  -0.481  0.00  0.00    -0.373 OA
ATOM      4  C   UNL     1      -2.308  -2.937  -1.833  0.00  0.00    +0.133 C 
ATOM      5  C   UNL     1      -2.866  -1.518  -1.988  0.00  0.00    +0.139 C 
ATOM      6  N   UNL     1      -1.869  -0.567  -1.472  0.00  0.00    -0.289 N 
ATOM      7  C   UNL     1      -1.480   0.496  -2.204  0.00  0.00    +0.254 C 
ATOM      8  O   UNL     1      -0.542   1.178  -1.836  0.00  0.00    -0.269 OA
ATOM      9  C   UNL     1      -3.395  -3.956  -2.179  0.00  0.00    +0.039 C 
ENDROOT
BRANCH   7  10
ATOM     10  C   UNL     1      -2.188   0.831  -3.443  0.00  0.00    +0.076 A 
ATOM     11  C   UNL     1      -1.850   1.755  -4.420  0.00  0.00    +0.043 A 
ATOM     12  C   UNL     1      -2.681   1.892  -5.506  0.00  0.00    +0.035 A 
ATOM     13  C   UNL     1      -3.804   1.119  -5.586  0.00  0.00    +0.008 A 
ATOM     14  S   UNL     1      -3.705   0.148  -4.091  0.00  0.00    -0.087 S 
ATOM     15  C   UNL     1      -4.856   1.088  -6.665  0.00  0.00    +0.053 C 
BRANCH  12  16
ATOM     16  N   UNL     1      -2.380   2.818  -6.522  0.00  0.00    -0.357 N 
ATOM     17  H   UNL     1      -1.581   3.364  -6.459  0.00  0.00    +0.142 HD
ATOM     18  H   UNL     1      -2.971   2.910  -7.285  0.00  0.00    +0.142 HD
ENDBRANCH  12  16
ENDBRANCH   7  10
BRANCH   1  20
ATOM     19  C   UNL     1       0.460  -0.134   1.497  0.00  0.00    +0.006 C 
ATOM     20  C   UNL     1      -0.130   0.135   0.111  0.00  0.00    +0.021 C 
ENDBRANCH   1  20
TORSDOF 3
