REMARK  Name = ZINC59321212
REMARK  4 active torsions:
REMARK  status: ('A' for Active; 'I' for Inactive)
REMARK    1  A    between atoms: C_1  and  C_2
REMARK    2  A    between atoms: C_8  and  C_22
REMARK    3  A    between atoms: C_8  and  C_23
REMARK    4  A    between atoms: C_10  and  N_12
REMARK                            x       y       z     vdW  Elec       q    Type
REMARK                         _______ _______ _______ _____ _____    ______ ____
ROOT
ATOM      1  C   UNL     1      -0.018   1.503   0.010  0.00  0.00    +0.086 C 
ATOM      2  C   UNL     1       0.002  -0.004   0.002  0.00  0.00    +0.103 A 
ATOM      3  C   UNL     1      -1.081  -0.806   0.003  0.00  0.00    +0.050 A 
ATOM      4  C   UNL     1      -0.602  -2.129  -0.007  0.00  0.00    +0.014 A 
ATOM      5  C   UNL     1       0.745  -2.064  -0.014  0.00  0.00    +0.111 A 
ATOM      6  O   UNL     1       1.104  -0.775  -0.013  0.00  0.00    -0.464 OA
ATOM      7  C   UNL     1       1.646  -3.276  -0.028  0.00  0.00    +0.081 C 
ATOM      8  C   UNL     1       0.815  -4.493  -0.450  0.00  0.00    -0.026 C 
ATOM      9  C   UNL     1      -0.462  -4.558   0.393  0.00  0.00    +0.034 C 
ATOM     10  C   UNL     1      -1.397  -3.409  -0.008  0.00  0.00    +0.109 C 
ATOM     11  C   UNL     1       0.444  -4.369  -1.929  0.00  0.00    +0.011 C 
ATOM     12  C   UNL     1       1.633  -5.768  -0.235  0.00  0.00    +0.011 C 
ENDROOT
BRANCH  10  13
ATOM     13  N   UNL     1      -2.496  -3.308   0.956  0.00  0.00    -0.292 N 
ATOM     14  C   UNL     1      -3.661  -2.739   0.591  0.00  0.00    +0.303 C 
ATOM     15  O   UNL     1      -3.801  -2.309  -0.538  0.00  0.00    -0.253 OA
ATOM     16  N   UNL     1      -4.673  -2.646   1.477  0.00  0.00    -0.286 N 
ATOM     17  C   UNL     1      -4.473  -3.162   2.813  0.00  0.00    +0.109 C 
ATOM     18  C   UNL     1      -4.879  -4.655   2.859  0.00  0.00    +0.019 C 
ATOM     19  C   UNL     1      -6.341  -4.790   2.759  0.00  0.00    +0.002 C 
ATOM     20  C   UNL     1      -6.931  -4.279   1.449  0.00  0.00    +0.002 C 
ATOM     21  C   UNL     1      -7.169  -2.793   1.554  0.00  0.00    +0.019 C 
ATOM     22  C   UNL     1      -5.936  -2.017   1.045  0.00  0.00    +0.109 C 
ATOM     23  H   UNL     1      -2.384  -3.651   1.856  0.00  0.00    +0.151 HD
ENDBRANCH  10  13
TORSDOF 1
