REMARK  Name = ZINC65195136
REMARK  6 active torsions:
REMARK  status: ('A' for Active; 'I' for Inactive)
REMARK    1  A    between atoms: C_1  and  C_2
REMARK    2  A    between atoms: C_5  and  C_30
REMARK    3  A    between atoms: C_6  and  N_8
REMARK    4  A    between atoms: C_9  and  C_11
REMARK    5  A    between atoms: N_16  and  C_18
REMARK    6  A    between atoms: C_27  and  C_29
REMARK                            x       y       z     vdW  Elec       q    Type
REMARK                         _______ _______ _______ _____ _____    ______ ____
ROOT
ATOM      1  C   UNL     1       0.280  -2.900   4.854  0.00  0.00    +0.102 C 
ATOM      2  C   UNL     1      -0.991  -3.735   5.132  0.00  0.00    +0.110 C 
ATOM      3  C   UNL     1      -1.171  -3.648   6.631  0.00  0.00    +0.221 C 
ATOM      4  O   UNL     1      -1.877  -4.382   7.290  0.00  0.00    -0.275 OA
ATOM      5  N   UNL     1      -0.434  -2.640   7.128  0.00  0.00    -0.271 N 
ATOM      6  C   UNL     1       0.300  -1.942   6.065  0.00  0.00    +0.127 C 
ENDROOT
BRANCH   5   7
ATOM      7  C   UNL     1      -0.373  -2.299   8.485  0.00  0.00    +0.037 A 
ATOM      8  C   UNL     1       0.414  -1.233   8.902  0.00  0.00    +0.025 A 
ATOM      9  C   UNL     1       0.474  -0.898  10.237  0.00  0.00    +0.025 A 
ATOM     10  C   UNL     1      -0.256  -1.624  11.181  0.00  0.00    +0.040 A 
ATOM     11  C   UNL     1      -1.039  -2.686  10.758  0.00  0.00    -0.023 A 
ATOM     12  C   UNL     1      -1.104  -3.020   9.419  0.00  0.00    +0.029 A 
ATOM     13  C   UNL     1      -1.716  -3.296  11.964  0.00  0.00    +0.056 C 
ATOM     14  C   UNL     1      -1.226  -2.452  13.152  0.00  0.00    +0.118 C 
ATOM     15  N   UNL     1      -0.332  -1.449  12.568  0.00  0.00    -0.271 N 
ATOM     16  C   UNL     1       0.320  -0.496  13.263  0.00  0.00    +0.217 C 
ATOM     17  O   UNL     1       1.040   0.291  12.686  0.00  0.00    -0.276 OA
ATOM     18  C   UNL     1       0.156  -0.409  14.759  0.00  0.00    +0.109 C 
ENDBRANCH   5   7
BRANCH   1  20
ATOM     19  N   UNL     1       0.052  -2.797   2.393  0.00  0.00    -0.285 N 
ATOM     20  C   UNL     1       0.150  -2.135   3.562  0.00  0.00    +0.222 C 
ATOM     21  O   UNL     1       0.134  -0.922   3.575  0.00  0.00    -0.275 OA
ATOM     22  H   UNL     1      -0.016  -3.765   2.388  0.00  0.00    +0.155 HD
BRANCH  19  28
ATOM     23  C   UNL     1       1.264   1.227  -0.158  0.00  0.00    +0.044 C 
ATOM     24  C   UNL     1       0.628  -0.137  -0.079  0.00  0.00    -0.049 A 
ATOM     25  C   UNL     1       0.038  -0.690  -1.201  0.00  0.00    +0.004 A 
ATOM     26  C   UNL     1      -0.546  -1.941  -1.133  0.00  0.00    +0.005 A 
ATOM     27  C   UNL     1      -0.543  -2.643   0.057  0.00  0.00    -0.029 A 
ATOM     28  C   UNL     1       0.048  -2.090   1.185  0.00  0.00    +0.037 A 
ATOM     29  C   UNL     1       0.639  -0.835   1.112  0.00  0.00    +0.027 A 
ATOM     30  C   UNL     1      -1.181  -4.006   0.131  0.00  0.00    +0.045 C 
ENDBRANCH  19  28
ENDBRANCH   1  20
TORSDOF 3
