REMARK  Name = ZINC52903055
REMARK  3 active torsions:
REMARK  status: ('A' for Active; 'I' for Inactive)
REMARK    1  A    between atoms: C_3  and  N_10
REMARK    2  A    between atoms: C_4  and  C_8
REMARK    3  A    between atoms: C_20  and  C_22
REMARK                            x       y       z     vdW  Elec       q    Type
REMARK                         _______ _______ _______ _____ _____    ______ ____
ROOT
ATOM      1  N   UNL     1       3.551   2.204   0.007  0.00  0.00    -0.379 NA
ATOM      2  C   UNL     1       3.586   3.185   1.085  0.00  0.00    +0.059 C 
ATOM      3  C   UNL     1       4.190   2.757   2.406  0.00  0.00    +0.021 C 
ATOM      4  C   UNL     1       4.074   3.948   3.371  0.00  0.00    +0.002 C 
ATOM      5  C   UNL     1       4.762   5.188   2.809  0.00  0.00    +0.000 C 
ATOM      6  C   UNL     1       4.229   5.544   1.412  0.00  0.00    +0.005 C 
ATOM      7  C   UNL     1       4.476   4.329   0.526  0.00  0.00    +0.010 C 
ATOM      8  C   UNL     1       3.911   4.446  -0.897  0.00  0.00    +0.037 C 
ATOM      9  C   UNL     1       3.672   2.957  -1.269  0.00  0.00    +0.171 C 
ATOM     10  H   UNL     1       4.321   1.559   0.100  0.00  0.00    +0.127 HD
ENDROOT
BRANCH   1  13
ATOM     11  C   UNL     1      -0.054   1.510   0.132  0.00  0.00    +0.003 A 
ATOM     12  C   UNL     1       1.147   2.197   0.103  0.00  0.00    +0.023 A 
ATOM     13  C   UNL     1       2.339   1.508   0.036  0.00  0.00    +0.033 A 
ATOM     14  C   UNL     1       2.334   0.111  -0.004  0.00  0.00    +0.090 A 
ATOM     15  C   UNL     1       1.118  -0.577   0.025  0.00  0.00    +0.060 A 
ATOM     16  C   UNL     1      -0.069   0.128   0.093  0.00  0.00    +0.021 A 
ATOM     17 CL   UNL     1       1.098  -2.312  -0.024  0.00  0.00    -0.082 Cl
BRANCH  14  18
ATOM     18  C   UNL     1       3.568  -0.611  -0.074  0.00  0.00    +0.102 C 
ATOM     19  N   UNL     1       4.547  -1.185  -0.130  0.00  0.00    -0.191 NA
ENDBRANCH  14  18
ENDBRANCH   1  13
BRANCH   9  20
ATOM     20  C   UNL     1       2.400   2.824  -2.066  0.00  0.00    +0.375 C 
ATOM     21  O   UNL     1       1.783   3.821  -2.401  0.00  0.00    -0.244 OA
ATOM     22  O   UNL     1       1.987   1.720  -2.377  0.00  0.00    -0.244 OA
ENDBRANCH   9  20
TORSDOF 3
