REMARK  Name = ZINC16844986
REMARK  9 active torsions:
REMARK  status: ('A' for Active; 'I' for Inactive)
REMARK    1  A    between atoms: C_1  and  C_2
REMARK    2  A    between atoms: C_2  and  C_3
REMARK    3  A    between atoms: C_3  and  C_22
REMARK    4  A    between atoms: C_10  and  N_16
REMARK    5  A    between atoms: C_12  and  S_14
REMARK    6  A    between atoms: S_14  and  C_15
REMARK    7  A    between atoms: N_16  and  C_17
REMARK    8  A    between atoms: C_17  and  C_18
REMARK    9  A    between atoms: C_17  and  C_19
REMARK                            x       y       z     vdW  Elec       q    Type
REMARK                         _______ _______ _______ _____ _____    ______ ____
ROOT
ATOM      1  C   UNL     1      -2.066  -2.841  -0.827  0.00  0.00    +0.071 C 
ATOM      2  C   UNL     1      -1.515  -1.531  -0.255  0.00  0.00    +0.071 C 
ATOM      3  C   UNL     1      -2.655  -0.516  -0.214  0.00  0.00    -0.020 A 
ATOM      4  C   UNL     1      -3.933  -0.945  -0.298  0.00  0.00    +0.021 A 
ATOM      5  S   UNL     1      -4.918   0.523  -0.215  0.00  0.00    -0.071 S 
ATOM      6  C   UNL     1      -3.612   1.715  -0.068  0.00  0.00    +0.115 A 
ATOM      7  C   UNL     1      -2.443   0.925  -0.094  0.00  0.00    +0.051 A 
ATOM      8  C   UNL     1      -1.218   1.641   0.017  0.00  0.00    +0.132 A 
ATOM      9  N   UNL     1      -1.246   2.959   0.123  0.00  0.00    -0.206 NA
ATOM     10  C   UNL     1      -2.384   3.642   0.136  0.00  0.00    +0.191 A 
ATOM     11  N   UNL     1      -3.556   3.027   0.042  0.00  0.00    -0.215 NA
ATOM     12  C   UNL     1      -4.383  -2.367  -0.431  0.00  0.00    +0.203 C 
ATOM     13  O   UNL     1      -3.261  -3.215  -0.136  0.00  0.00    -0.368 OA
ATOM     14  C   UNL     1      -2.378  -2.651  -2.313  0.00  0.00    +0.042 C 
ENDROOT
BRANCH   1  16
ATOM     15  C   UNL     1      -1.509  -5.217  -1.360  0.00  0.00    +0.007 C 
ATOM     16  C   UNL     1      -1.020  -3.945  -0.665  0.00  0.00    +0.032 C 
ENDBRANCH   1  16
BRANCH  10  17
ATOM     17  S   UNL     1      -2.337   5.397   0.282  0.00  0.00    -0.089 S 
ATOM     18  C   UNL     1      -4.110   5.763   0.245  0.00  0.00    +0.093 C 
ENDBRANCH  10  17
BRANCH   8  19
ATOM     19  N   UNL     1      -0.011   0.966   0.007  0.00  0.00    -0.326 N 
ATOM     20  H   UNL     1       0.002  -0.004   0.002  0.00  0.00    +0.148 HD
BRANCH  19  21
ATOM     21  C   UNL     1       1.248   1.716   0.000  0.00  0.00    +0.066 C 
ATOM     22  C   UNL     1       1.305   2.603  -1.244  0.00  0.00    +0.027 C 
ATOM     23  C   UNL     1       1.328   2.589   1.254  0.00  0.00    +0.027 C 
ENDBRANCH  19  21
ENDBRANCH   8  19
TORSDOF 4
