REMARK  Name = ZINC12735599
REMARK  6 active torsions:
REMARK  status: ('A' for Active; 'I' for Inactive)
REMARK    1  A    between atoms: C_1  and  C_2
REMARK    2  A    between atoms: C_5  and  S_8
REMARK    3  A    between atoms: S_8  and  N_11
REMARK    4  A    between atoms: C_14  and  C_17
REMARK    5  A    between atoms: N_19  and  N_20
REMARK    6  A    between atoms: C_21  and  C_23
REMARK                            x       y       z     vdW  Elec       q    Type
REMARK                         _______ _______ _______ _____ _____    ______ ____
ROOT
ATOM      1  N   UNL     1       0.803  -0.460  -1.143  0.00  0.00    -0.177 NA
ATOM      2  C   UNL     1       0.002  -0.004   0.002  0.00  0.00    +0.110 C 
ATOM      3  C   UNL     1      -0.019   1.528   0.010  0.00  0.00    +0.030 C 
ATOM      4  C   UNL     1       1.419   2.053  -0.001  0.00  0.00    +0.079 C 
ATOM      5  C   UNL     1       2.124   1.587  -1.276  0.00  0.00    +0.030 C 
ATOM      6  C   UNL     1       2.170   0.056  -1.299  0.00  0.00    +0.110 C 
ENDROOT
BRANCH   4   7
ATOM      7  C   UNL     1       1.402   3.560   0.042  0.00  0.00    +0.232 C 
ATOM      8  O   UNL     1       0.346   4.154   0.078  0.00  0.00    -0.274 OA
ATOM      9  N   UNL     1       2.562   4.246   0.041  0.00  0.00    -0.234 N 
ATOM     10  H   UNL     1       3.407   3.771   0.012  0.00  0.00    +0.173 HD
BRANCH   9  11
ATOM     11  N   UNL     1       2.547   5.647   0.080  0.00  0.00    -0.234 N 
ATOM     12  C   UNL     1       3.707   6.333   0.079  0.00  0.00    +0.232 C 
ATOM     13  O   UNL     1       4.763   5.739   0.043  0.00  0.00    -0.274 OA
ATOM     14  H   UNL     1       1.702   6.122   0.109  0.00  0.00    +0.173 HD
BRANCH  12  15
ATOM     15  C   UNL     1       3.691   7.840   0.121  0.00  0.00    +0.080 C 
ATOM     16  C   UNL     1       5.130   8.371   0.111  0.00  0.00    +0.017 C 
ATOM     17  C   UNL     1       5.088   9.884   0.334  0.00  0.00    +0.027 C 
ATOM     18  C   UNL     1       4.095  10.517  -0.596  0.00  0.00    -0.031 C 
ATOM     19  C   UNL     1       3.169   9.864  -1.222  0.00  0.00    -0.030 C 
ATOM     20  C   UNL     1       2.966   8.381  -1.112  0.00  0.00    +0.039 C 
ENDBRANCH  12  15
ENDBRANCH   9  11
ENDBRANCH   4   7
BRANCH   1  21
ATOM     21  S   UNL     1       0.176  -1.534  -2.236  0.00  0.00    +0.061 S 
ATOM     22  O   UNL     1       1.282  -2.187  -2.843  0.00  0.00    -0.153 OA
ATOM     23  O   UNL     1      -0.853  -2.246  -1.562  0.00  0.00    -0.153 OA
BRANCH  21  28
ATOM     24  C   UNL     1      -2.512   1.693  -6.568  0.00  0.00    +0.044 C 
ATOM     25  C   UNL     1      -1.840   0.887  -5.487  0.00  0.00    -0.050 A 
ATOM     26  C   UNL     1      -0.506   0.546  -5.606  0.00  0.00    +0.005 A 
ATOM     27  C   UNL     1       0.110  -0.194  -4.613  0.00  0.00    +0.029 A 
ATOM     28  C   UNL     1      -0.609  -0.592  -3.501  0.00  0.00    +0.105 A 
ATOM     29  C   UNL     1      -1.944  -0.255  -3.384  0.00  0.00    +0.029 A 
ATOM     30  C   UNL     1      -2.559   0.488  -4.375  0.00  0.00    +0.005 A 
ENDBRANCH  21  28
ENDBRANCH   1  21
TORSDOF 5
