REMARK  Name = ZINC09345473
REMARK  6 active torsions:
REMARK  status: ('A' for Active; 'I' for Inactive)
REMARK    1  A    between atoms: C_1  and  O_2
REMARK    2  A    between atoms: O_2  and  C_3
REMARK    3  A    between atoms: C_7  and  C_11
REMARK    4  A    between atoms: C_8  and  O_9
REMARK    5  A    between atoms: O_9  and  C_10
REMARK    6  A    between atoms: C_28  and  C_30
REMARK                            x       y       z     vdW  Elec       q    Type
REMARK                         _______ _______ _______ _____ _____    ______ ____
ROOT
ATOM      1  C   UNL     1      -2.268  -4.163  -0.598  0.00  0.00    +0.238 C 
ATOM      2  C   UNL     1      -2.066  -4.332  -2.075  0.00  0.00    +0.027 C 
ATOM      3  C   UNL     1      -3.122  -4.457  -2.904  0.00  0.00    +0.083 C 
ATOM      4  C   UNL     1      -4.476  -4.431  -2.296  0.00  0.00    +0.042 A 
ATOM      5  C   UNL     1      -5.614  -4.225  -3.064  0.00  0.00    +0.013 A 
ATOM      6  C   UNL     1      -6.854  -4.208  -2.456  0.00  0.00    +0.001 A 
ATOM      7  C   UNL     1      -6.963  -4.394  -1.089  0.00  0.00    +0.004 A 
ATOM      8  C   UNL     1      -5.835  -4.600  -0.316  0.00  0.00    +0.046 A 
ATOM      9  C   UNL     1      -4.586  -4.621  -0.912  0.00  0.00    +0.131 A 
ATOM     10  O   UNL     1      -3.464  -4.827  -0.183  0.00  0.00    -0.479 OA
ATOM     11  N   UNL     1      -2.960  -4.602  -4.242  0.00  0.00    -0.213 NA
ATOM     12  C   UNL     1      -1.795  -4.644  -4.847  0.00  0.00    +0.237 C 
ATOM     13  N   UNL     1      -1.458  -4.784  -6.148  0.00  0.00    -0.205 NA
ATOM     14  C   UNL     1      -0.161  -4.772  -6.285  0.00  0.00    +0.203 C 
ATOM     15  N   UNL     1       0.423  -4.620  -5.064  0.00  0.00    -0.251 N 
ATOM     16  N   UNL     1      -0.617  -4.535  -4.136  0.00  0.00    -0.208 N 
ATOM     17  C   UNL     1      -0.679  -4.368  -2.679  0.00  0.00    +0.162 C 
ATOM     18  H   UNL     1       1.374  -4.579  -4.877  0.00  0.00    +0.171 HD
ENDROOT
BRANCH  17  19
ATOM     19  C   UNL     1       0.082  -5.502  -2.042  0.00  0.00    +0.014 A 
ATOM     20  C   UNL     1       0.092  -6.749  -2.638  0.00  0.00    +0.008 A 
ATOM     21  C   UNL     1       0.790  -7.789  -2.054  0.00  0.00    +0.001 A 
ATOM     22  C   UNL     1       1.479  -7.584  -0.874  0.00  0.00    +0.003 A 
ATOM     23  C   UNL     1       1.471  -6.338  -0.276  0.00  0.00    +0.039 A 
ATOM     24  C   UNL     1       0.776  -5.294  -0.863  0.00  0.00    +0.129 A 
ATOM     25  F   UNL     1       0.772  -4.074  -0.281  0.00  0.00    -0.205 F 
ENDBRANCH  17  19
BRANCH   1  30
ATOM     26  C   UNL     1      -2.122  -0.881   1.282  0.00  0.00    +0.162 A 
ATOM     27  C   UNL     1      -2.574   0.005   0.316  0.00  0.00    +0.049 A 
ATOM     28  C   UNL     1      -2.924  -0.460  -0.938  0.00  0.00    +0.004 A 
ATOM     29  C   UNL     1      -2.825  -1.807  -1.232  0.00  0.00    +0.011 A 
ATOM     30  C   UNL     1      -2.375  -2.696  -0.274  0.00  0.00    +0.042 A 
ATOM     31  C   UNL     1      -2.017  -2.236   0.984  0.00  0.00    +0.168 A 
BRANCH  26  33
ATOM     32  C   UNL     1      -1.911   0.978   2.751  0.00  0.00    +0.277 C 
ATOM     33  O   UNL     1      -1.777  -0.426   2.516  0.00  0.00    -0.491 OA
ENDBRANCH  26  33
BRANCH  31  34
ATOM     34  O   UNL     1      -1.569  -3.108   1.926  0.00  0.00    -0.491 OA
ATOM     35  C   UNL     1      -2.533  -3.618   2.849  0.00  0.00    +0.277 C 
ENDBRANCH  31  34
ENDBRANCH   1  30
TORSDOF 4
