REMARK  Name = ZINC20793041
REMARK  6 active torsions:
REMARK  status: ('A' for Active; 'I' for Inactive)
REMARK    1  A    between atoms: C_1  and  C_2
REMARK    2  A    between atoms: C_8  and  N_10
REMARK    3  A    between atoms: C_11  and  C_13
REMARK    4  A    between atoms: C_13  and  S_14
REMARK    5  A    between atoms: S_14  and  C_15
REMARK    6  A    between atoms: N_19  and  C_30
REMARK                            x       y       z     vdW  Elec       q    Type
REMARK                         _______ _______ _______ _____ _____    ______ ____
ROOT
ATOM      1  C   UNL     1       1.012   3.622  -0.043  0.00  0.00    +0.172 A 
ATOM      2  N   UNL     1      -0.117   4.280  -0.039  0.00  0.00    -0.202 NA
ATOM      3  C   UNL     1      -1.295   3.608   0.003  0.00  0.00    +0.190 A 
ATOM      4  N   UNL     1      -2.557   3.950   0.032  0.00  0.00    -0.143 NA
ATOM      5  N   UNL     1      -3.381   2.822   0.052  0.00  0.00    -0.194 N 
ATOM      6  C   UNL     1      -2.636   1.695   0.047  0.00  0.00    +0.284 A 
ATOM      7  O   UNL     1      -3.045   0.545   0.063  0.00  0.00    -0.265 OA
ATOM      8  C   UNL     1      -1.244   2.131   0.019  0.00  0.00    +0.106 A 
ATOM      9  C   UNL     1      -0.018   1.500   0.010  0.00  0.00    +0.037 A 
ATOM     10  N   UNL     1       1.097   2.247   0.004  0.00  0.00    -0.323 N 
ATOM     11  C   UNL     1       2.455   1.687   0.059  0.00  0.00    +0.124 C 
ATOM     12  C   UNL     1       2.530   0.307  -0.591  0.00  0.00    +0.022 C 
ATOM     13  C   UNL     1       2.298  -0.754   0.490  0.00  0.00    +0.002 C 
ATOM     14  C   UNL     1       0.917  -0.544   1.105  0.00  0.00    +0.006 C 
ATOM     15  C   UNL     1       0.002  -0.004   0.002  0.00  0.00    +0.054 C 
ENDROOT
BRANCH   5  16
ATOM     16  C   UNL     1      -4.780   2.855   0.081  0.00  0.00    +0.069 A 
ATOM     17  C   UNL     1      -5.513   1.884  -0.590  0.00  0.00    +0.028 A 
ATOM     18  C   UNL     1      -6.893   1.916  -0.555  0.00  0.00    +0.002 A 
ATOM     19  C   UNL     1      -7.545   2.921   0.136  0.00  0.00    +0.000 A 
ATOM     20  C   UNL     1      -6.819   3.892   0.800  0.00  0.00    +0.002 A 
ATOM     21  C   UNL     1      -5.438   3.862   0.774  0.00  0.00    +0.028 A 
ENDBRANCH   5  16
BRANCH   1  22
ATOM     22  S   UNL     1       2.511   4.546  -0.114  0.00  0.00    -0.078 S 
BRANCH  22  23
ATOM     23  C   UNL     1       1.843   6.227  -0.158  0.00  0.00    +0.173 C 
BRANCH  23  25
ATOM     24  N   UNL     1       2.716   8.539  -0.263  0.00  0.00    -0.312 N 
ATOM     25  C   UNL     1       2.977   7.217  -0.222  0.00  0.00    +0.224 C 
ATOM     26  O   UNL     1       4.124   6.825  -0.236  0.00  0.00    -0.275 OA
ATOM     27  H   UNL     1       1.676   8.895  -0.249  0.00  0.00    +0.149 HD
BRANCH  24  34
ATOM     28  C   UNL     1       2.927  10.654   1.705  0.00  0.00    +0.009 C 
ATOM     29  C   UNL     1       3.358  10.843   0.249  0.00  0.00    +0.006 C 
ATOM     30  C   UNL     1       4.510  11.848   0.184  0.00  0.00    +0.005 C 
ATOM     31  C   UNL     1       4.940  12.037  -1.272  0.00  0.00    +0.000 C 
ATOM     32  C   UNL     1       5.401  10.696  -1.845  0.00  0.00    +0.002 C 
ATOM     33  C   UNL     1       4.250   9.690  -1.781  0.00  0.00    +0.022 C 
ATOM     34  C   UNL     1       3.819   9.502  -0.325  0.00  0.00    +0.076 C 
ENDBRANCH  24  34
ENDBRANCH  23  25
ENDBRANCH  22  23
ENDBRANCH   1  22
TORSDOF 5
