REMARK  Name = ZINC02643733
REMARK  3 active torsions:
REMARK  status: ('A' for Active; 'I' for Inactive)
REMARK    1  A    between atoms: C_13  and  C_15
REMARK    2  A    between atoms: C_15  and  C_16
REMARK    3  A    between atoms: C_15  and  C_18
REMARK                            x       y       z     vdW  Elec       q    Type
REMARK                         _______ _______ _______ _____ _____    ______ ____
ROOT
ATOM      1  C   UNL     1      -3.585   3.921   2.144  0.00  0.00    +0.079 A 
ATOM      2  C   UNL     1      -2.430   3.127   2.234  0.00  0.00    +0.093 A 
ATOM      3  C   UNL     1      -1.922   2.780   3.513  0.00  0.00    +0.095 A 
ATOM      4  C   UNL     1      -2.584   3.237   4.664  0.00  0.00    +0.079 A 
ATOM      5  C   UNL     1      -3.707   4.007   4.546  0.00  0.00    +0.164 A 
ATOM      6  C   UNL     1      -4.208   4.352   3.281  0.00  0.00    +0.164 A 
ATOM      7  O   UNL     1      -5.324   5.123   3.165  0.00  0.00    -0.485 OA
ATOM      8  C   UNL     1      -6.152   5.236   4.327  0.00  0.00    +0.270 C 
ATOM      9  C   UNL     1      -5.251   5.522   5.535  0.00  0.00    +0.270 C 
ATOM     10  O   UNL     1      -4.333   4.433   5.678  0.00  0.00    -0.485 OA
ATOM     11  N   UNL     1      -0.823   2.025   3.604  0.00  0.00    -0.232 NA
ATOM     12  C   UNL     1      -0.226   1.607   2.508  0.00  0.00    +0.153 A 
ATOM     13  C   UNL     1      -0.723   1.954   1.250  0.00  0.00    +0.109 A 
ATOM     14  N   UNL     1      -1.802   2.695   1.136  0.00  0.00    -0.245 NA
ATOM     15 CL   UNL     1       1.197   0.620   2.628  0.00  0.00    -0.060 Cl
ENDROOT
BRANCH  13  16
ATOM     16  C   UNL     1      -0.018   1.468   0.010  0.00  0.00    +0.244 C 
BRANCH  16  17
ATOM     17  C   UNL     1       0.002  -0.004   0.002  0.00  0.00    +0.087 C 
ATOM     18  N   UNL     1       0.018  -1.140  -0.004  0.00  0.00    -0.195 NA
ENDBRANCH  16  17
BRANCH  16  19
ATOM     19  C   UNL     1       1.363   1.977  -0.000  0.00  0.00    +0.087 C 
ATOM     20  N   UNL     1       2.429   2.370  -0.008  0.00  0.00    -0.195 NA
ENDBRANCH  16  19
ENDBRANCH  13  16
TORSDOF 3
