REMARK  Name = ZINC36261362
REMARK  6 active torsions:
REMARK  status: ('A' for Active; 'I' for Inactive)
REMARK    1  A    between atoms: C_1  and  C_2
REMARK    2  A    between atoms: C_2  and  C_22
REMARK    3  A    between atoms: N_5  and  C_14
REMARK    4  A    between atoms: C_9  and  O_13
REMARK    5  A    between atoms: C_14  and  C_15
REMARK    6  A    between atoms: C_15  and  C_16
REMARK                            x       y       z     vdW  Elec       q    Type
REMARK                         _______ _______ _______ _____ _____    ______ ____
ROOT
ATOM      1  C   UNL     1      -0.019   1.526   0.010  0.00  0.00    +0.065 C 
ATOM      2  C   UNL     1       0.002  -0.004   0.002  0.00  0.00    +0.181 C 
ATOM      3  C   UNL     1       0.704  -0.490  -1.241  0.00  0.00    +0.263 C 
ATOM      4  O   UNL     1       0.069  -0.718  -2.249  0.00  0.00    -0.271 OA
ATOM      5  N   UNL     1       2.043  -0.669  -1.227  0.00  0.00    -0.265 N 
ATOM      6  C   UNL     1       2.748  -0.431  -0.036  0.00  0.00    +0.079 A 
ATOM      7  C   UNL     1       4.126  -0.288  -0.048  0.00  0.00    +0.031 A 
ATOM      8  C   UNL     1       4.804  -0.056   1.134  0.00  0.00    +0.047 A 
ATOM      9  C   UNL     1       4.108   0.035   2.331  0.00  0.00    +0.120 A 
ATOM     10  C   UNL     1       2.728  -0.106   2.346  0.00  0.00    +0.093 A 
ATOM     11  C   UNL     1       2.047  -0.339   1.165  0.00  0.00    +0.147 A 
ATOM     12  O   UNL     1       0.694  -0.477   1.161  0.00  0.00    -0.475 OA
ATOM     13  C   UNL     1      -1.434  -0.533   0.015  0.00  0.00    +0.065 C 
ENDROOT
BRANCH   9  14
ATOM     14  O   UNL     1       4.780   0.263   3.491  0.00  0.00    -0.507 OA
ATOM     15  H   UNL     1       4.884   1.200   3.707  0.00  0.00    +0.292 HD
ENDBRANCH   9  14
BRANCH   5  16
ATOM     16  C   UNL     1       2.748  -1.105  -2.435  0.00  0.00    +0.118 C 
BRANCH  16  17
ATOM     17  C   UNL     1       3.181   0.120  -3.243  0.00  0.00    +0.054 C 
BRANCH  17  18
ATOM     18  C   UNL     1       3.906  -0.329  -4.485  0.00  0.00    -0.046 A 
ATOM     19  C   UNL     1       5.276  -0.514  -4.457  0.00  0.00    +0.004 A 
ATOM     20  C   UNL     1       5.941  -0.925  -5.597  0.00  0.00    +0.000 A 
ATOM     21  C   UNL     1       5.236  -1.152  -6.765  0.00  0.00    +0.000 A 
ATOM     22  C   UNL     1       3.866  -0.967  -6.792  0.00  0.00    +0.000 A 
ATOM     23  C   UNL     1       3.201  -0.560  -5.651  0.00  0.00    +0.004 A 
ENDBRANCH  17  18
ENDBRANCH  16  17
ENDBRANCH   5  16
TORSDOF 4
