REMARK  Name = ZINC39446850
REMARK  2 active torsions:
REMARK  status: ('A' for Active; 'I' for Inactive)
REMARK    1  A    between atoms: C_3  and  C_9
REMARK    2  A    between atoms: C_19  and  C_21
REMARK                            x       y       z     vdW  Elec       q    Type
REMARK                         _______ _______ _______ _____ _____    ______ ____
ROOT
ATOM      1  C   UNL     1       4.171   2.260  -0.051  0.00  0.00    +0.082 C 
ATOM      2  N   UNL     1       5.326   1.776  -0.431  0.00  0.00    -0.153 NA
ATOM      3  N   UNL     1       6.198   2.775  -0.866  0.00  0.00    -0.158 NA
ATOM      4  C   UNL     1       5.664   3.934  -0.823  0.00  0.00    +0.053 C 
ATOM      5  C   UNL     1       4.290   3.756  -0.186  0.00  0.00    +0.104 C 
ATOM      6  C   UNL     1       3.279   4.330  -1.184  0.00  0.00    +0.123 C 
ATOM      7  N   UNL     1       3.750   5.670  -1.573  0.00  0.00    -0.295 N 
ATOM      8  C   UNL     1       5.059   5.854  -2.206  0.00  0.00    +0.114 C 
ATOM      9  C   UNL     1       6.161   5.280  -1.288  0.00  0.00    +0.072 C 
ATOM     10  C   UNL     1       2.966   6.742  -1.343  0.00  0.00    +0.266 C 
ATOM     11  O   UNL     1       1.780   6.591  -1.121  0.00  0.00    -0.268 OA
ENDROOT
BRANCH   1  14
ATOM     12  C   UNL     1       0.731   1.452   1.206  0.00  0.00    +0.002 A 
ATOM     13  C   UNL     1       1.827   2.170   0.777  0.00  0.00    +0.011 A 
ATOM     14  C   UNL     1       2.998   1.500   0.408  0.00  0.00    +0.018 A 
ATOM     15  C   UNL     1       3.048   0.103   0.478  0.00  0.00    +0.068 A 
ATOM     16  C   UNL     1       1.941  -0.602   0.910  0.00  0.00    +0.060 A 
ATOM     17  C   UNL     1       0.786   0.070   1.272  0.00  0.00    +0.021 A 
ATOM     18 CL   UNL     1       1.998  -2.335   0.998  0.00  0.00    -0.082 Cl
ATOM     19 CL   UNL     1       4.495  -0.741   0.023  0.00  0.00    -0.081 Cl
ENDBRANCH   1  14
BRANCH  10  20
ATOM     20  C   UNL     1       3.547   8.098  -1.362  0.00  0.00    +0.142 A 
ATOM     21  C   UNL     1       2.724   9.197  -1.217  0.00  0.00    +0.119 A 
ATOM     22  N   UNL     1       3.250  10.439  -1.233  0.00  0.00    -0.326 N 
ATOM     23  C   UNL     1       4.582  10.592  -1.392  0.00  0.00    +0.267 A 
ATOM     24  C   UNL     1       5.403   9.445  -1.538  0.00  0.00    +0.181 A 
ATOM     25  N   UNL     1       4.871   8.253  -1.514  0.00  0.00    -0.244 NA
ATOM     26  O   UNL     1       5.074  11.707  -1.409  0.00  0.00    -0.266 OA
ATOM     27  H   UNL     1       2.677  11.215  -1.132  0.00  0.00    +0.168 HD
ENDBRANCH  10  20
TORSDOF 2
