REMARK  Name = ZINC04586083
REMARK  10 active torsions:
REMARK  status: ('A' for Active; 'I' for Inactive)
REMARK    1  A    between atoms: C_1  and  C_2
REMARK    2  A    between atoms: C_2  and  N_3
REMARK    3  A    between atoms: C_4  and  C_6
REMARK    4  A    between atoms: C_6  and  N_7
REMARK    5  A    between atoms: N_9  and  C_25
REMARK    6  A    between atoms: C_18  and  C_20
REMARK    7  A    between atoms: C_20  and  C_21
REMARK    8  A    between atoms: C_21  and  C_22
REMARK    9  A    between atoms: C_21  and  C_23
REMARK   10  A    between atoms: C_21  and  C_24
REMARK                            x       y       z     vdW  Elec       q    Type
REMARK                         _______ _______ _______ _____ _____    ______ ____
ROOT
ATOM      1  N   UNL     1       0.050   3.165  -1.545  0.00  0.00    -0.275 N 
ATOM      2  C   UNL     1      -0.658   1.922  -1.217  0.00  0.00    +0.217 C 
ATOM      3  N   UNL     1      -0.017   1.393   0.010  0.00  0.00    -0.300 N 
ATOM      4  C   UNL     1       1.354   1.941  -0.066  0.00  0.00    +0.115 C 
ATOM      5  C   UNL     1       1.232   3.198  -0.894  0.00  0.00    +0.241 C 
ATOM      6  O   UNL     1       2.056   4.085  -0.961  0.00  0.00    -0.273 OA
ATOM      7  C   UNL     1       2.280   0.941  -0.752  0.00  0.00    +0.054 C 
ATOM      8  C   UNL     1       3.685   1.542  -0.866  0.00  0.00    +0.110 C 
ATOM      9  N   UNL     1       4.123   1.974   0.468  0.00  0.00    -0.301 N 
ATOM     10  C   UNL     1       3.263   2.885   1.236  0.00  0.00    +0.110 C 
ATOM     11  C   UNL     1       1.862   2.273   1.334  0.00  0.00    +0.054 C 
ATOM     12  C   UNL     1       5.293   1.541   0.979  0.00  0.00    +0.216 C 
ATOM     13  O   UNL     1       5.644   1.904   2.082  0.00  0.00    -0.276 OA
ENDROOT
BRANCH   3  14
ATOM     14  C   UNL     1       0.002  -0.004   0.002  0.00  0.00    +0.032 A 
ATOM     15  C   UNL     1      -0.692  -0.704  -0.977  0.00  0.00    +0.023 A 
ATOM     16  C   UNL     1      -0.667  -2.085  -0.984  0.00  0.00    +0.002 A 
ATOM     17  C   UNL     1       0.039  -2.771  -0.013  0.00  0.00    +0.000 A 
ATOM     18  C   UNL     1       0.727  -2.077   0.966  0.00  0.00    +0.002 A 
ATOM     19  C   UNL     1       0.710  -0.696   0.976  0.00  0.00    +0.023 A 
ENDBRANCH   3  14
BRANCH   1  20
ATOM     20  C   UNL     1      -0.449   4.211  -2.441  0.00  0.00    +0.205 C 
BRANCH  20  22
ATOM     21  N   UNL     1      -0.339   4.758  -4.851  0.00  0.00    -0.314 N 
ATOM     22  C   UNL     1       0.004   3.924  -3.849  0.00  0.00    +0.230 C 
ATOM     23  O   UNL     1       0.678   2.943  -4.081  0.00  0.00    -0.274 OA
ATOM     24  H   UNL     1      -0.878   5.542  -4.665  0.00  0.00    +0.149 HD
BRANCH  21  26
ATOM     25  C   UNL     1      -0.420   5.571  -7.156  0.00  0.00    +0.024 C 
ATOM     26  C   UNL     1       0.102   4.479  -6.220  0.00  0.00    +0.101 C 
ENDBRANCH  21  26
ENDBRANCH  20  22
ENDBRANCH   1  20
BRANCH  12  27
ATOM     27  C   UNL     1       6.165   0.607   0.180  0.00  0.00    +0.102 C 
BRANCH  27  28
ATOM     28  C   UNL     1       7.423   0.272   0.983  0.00  0.00    -0.029 C 
ATOM     29  C   UNL     1       7.026  -0.401   2.298  0.00  0.00    +0.011 C 
ATOM     30  C   UNL     1       8.308  -0.677   0.172  0.00  0.00    +0.011 C 
ATOM     31  C   UNL     1       8.195   1.559   1.281  0.00  0.00    +0.011 C 
ENDBRANCH  27  28
ENDBRANCH  12  27
TORSDOF 6
