REMARK  Name = ZINC66664713
REMARK  10 active torsions:
REMARK  status: ('A' for Active; 'I' for Inactive)
REMARK    1  A    between atoms: C_1  and  C_2
REMARK    2  A    between atoms: C_2  and  C_3
REMARK    3  A    between atoms: C_2  and  C_4
REMARK    4  A    between atoms: C_2  and  C_5
REMARK    5  A    between atoms: C_7  and  N_14
REMARK    6  A    between atoms: N_8  and  C_10
REMARK    7  A    between atoms: C_10  and  C_11
REMARK    8  A    between atoms: C_10  and  C_12
REMARK    9  A    between atoms: C_10  and  C_13
REMARK   10  A    between atoms: C_15  and  C_17
REMARK                            x       y       z     vdW  Elec       q    Type
REMARK                         _______ _______ _______ _____ _____    ______ ____
ROOT
ATOM      1  N   UNL     1       3.571  -1.156  -3.291  0.00  0.00    -0.270 N 
ATOM      2  C   UNL     1       4.688  -0.778  -2.639  0.00  0.00    +0.226 C 
ATOM      3  O   UNL     1       4.609  -0.297  -1.528  0.00  0.00    -0.275 OA
ATOM      4  H   UNL     1       3.635  -1.541  -4.179  0.00  0.00    +0.156 HD
ENDROOT
BRANCH   2   5
ATOM      5  C   UNL     1       6.036  -0.952  -3.290  0.00  0.00    +0.116 C 
ATOM      6  C   UNL     1       6.268  -2.433  -3.592  0.00  0.00    +0.113 C 
ATOM      7  C   UNL     1       6.505  -3.187  -2.311  0.00  0.00    +0.218 C 
ATOM      8  O   UNL     1       6.092  -4.322  -2.198  0.00  0.00    -0.275 OA
ATOM      9  N   UNL     1       7.169  -2.616  -1.289  0.00  0.00    -0.285 N 
ATOM     10  C   UNL     1       7.637  -1.303  -1.394  0.00  0.00    +0.037 A 
ATOM     11  C   UNL     1       7.111  -0.455  -2.359  0.00  0.00    -0.014 A 
ATOM     12  C   UNL     1       7.574   0.842  -2.463  0.00  0.00    +0.006 A 
ATOM     13  C   UNL     1       8.561   1.295  -1.608  0.00  0.00    +0.000 A 
ATOM     14  C   UNL     1       9.087   0.453  -0.646  0.00  0.00    +0.002 A 
ATOM     15  C   UNL     1       8.627  -0.844  -0.535  0.00  0.00    +0.023 A 
ATOM     16  H   UNL     1       7.324  -3.120  -0.474  0.00  0.00    +0.155 HD
ENDBRANCH   2   5
BRANCH   1  19
ATOM     17  C   UNL     1       0.707  -0.490  -1.238  0.00  0.00    +0.070 A 
ATOM     18  C   UNL     1       2.088  -0.472  -1.454  0.00  0.00    +0.069 A 
ATOM     19  C   UNL     1       2.323  -0.995  -2.689  0.00  0.00    +0.124 A 
ATOM     20  N   UNL     1       1.128  -1.329  -3.225  0.00  0.00    -0.245 N 
ATOM     21  N   UNL     1       0.133  -1.007  -2.294  0.00  0.00    -0.174 NA
BRANCH  17  23
ATOM     22  C   UNL     1      -0.019   1.526   0.010  0.00  0.00    +0.017 C 
ATOM     23  C   UNL     1       0.002  -0.004   0.002  0.00  0.00    +0.006 C 
ATOM     24  C   UNL     1       0.742  -0.511   1.242  0.00  0.00    +0.017 C 
ATOM     25  C   UNL     1      -1.433  -0.534   0.013  0.00  0.00    +0.017 C 
ENDBRANCH  17  23
BRANCH  20  26
ATOM     26  C   UNL     1       0.912  -1.927  -4.545  0.00  0.00    +0.057 C 
ATOM     27  C   UNL     1       1.642  -3.269  -4.622  0.00  0.00    +0.036 C 
ATOM     28  C   UNL     1      -0.586  -2.147  -4.766  0.00  0.00    +0.036 C 
ATOM     29  C   UNL     1       1.454  -0.988  -5.625  0.00  0.00    +0.036 C 
ENDBRANCH  20  26
ENDBRANCH   1  19
TORSDOF 4
