REMARK  Name = ZINC14887475
REMARK  9 active torsions:
REMARK  status: ('A' for Active; 'I' for Inactive)
REMARK    1  A    between atoms: C_1  and  O_2
REMARK    2  A    between atoms: O_2  and  C_3
REMARK    3  A    between atoms: C_6  and  C_11
REMARK    4  A    between atoms: C_8  and  O_9
REMARK    5  A    between atoms: O_9  and  C_10
REMARK    6  A    between atoms: C_11  and  N_61
REMARK    7  A    between atoms: C_13  and  S_26
REMARK    8  A    between atoms: C_16  and  C_18
REMARK    9  A    between atoms: S_26  and  C_27
REMARK                            x       y       z     vdW  Elec       q    Type
REMARK                         _______ _______ _______ _____ _____    ______ ____
ROOT
ATOM      1  C   UNL     1       1.806   2.290   6.714  0.00  0.00    -0.063 C 
ATOM      2  C   UNL     1       2.936   3.342   6.835  0.00  0.00    +0.034 C 
ATOM      3  C   UNL     1       3.900   2.948   5.693  0.00  0.00    +0.006 C 
ATOM      4  C   UNL     1       3.591   1.468   5.399  0.00  0.00    +0.021 C 
ATOM      5  N   UNL     1       2.544   1.075   6.349  0.00  0.00    +0.391 N 
ATOM      6  H   UNL     1       2.973   0.666   7.187  0.00  0.00    -0.080 HD
ENDROOT
BRANCH   4   7
ATOM      7  C   UNL     1       4.828   0.634   5.607  0.00  0.00    +0.202 C 
ATOM      8  O   UNL     1       4.841  -0.229   6.459  0.00  0.00    -0.277 OA
ATOM      9  N   UNL     1       5.921   0.847   4.848  0.00  0.00    -0.298 N 
ATOM     10  C   UNL     1       5.928   1.884   3.804  0.00  0.00    +0.136 C 
ATOM     11  C   UNL     1       7.180   2.754   4.000  0.00  0.00    +0.179 C 
ATOM     12  O   UNL     1       8.332   1.909   4.063  0.00  0.00    -0.377 OA
ATOM     13  C   UNL     1       8.332   1.000   5.166  0.00  0.00    +0.179 C 
ATOM     14  C   UNL     1       7.141   0.045   5.034  0.00  0.00    +0.136 C 
ENDBRANCH   4   7
BRANCH   5  15
ATOM     15  C   UNL     1       1.630   0.072   5.725  0.00  0.00    -0.042 C 
BRANCH  15  19
ATOM     16  C   UNL     1       0.459   1.465   1.856  0.00  0.00    +0.161 A 
ATOM     17  C   UNL     1       1.590   0.678   1.998  0.00  0.00    +0.049 A 
ATOM     18  C   UNL     1       1.966   0.229   3.251  0.00  0.00    +0.005 A 
ATOM     19  C   UNL     1       1.216   0.564   4.363  0.00  0.00    -0.060 A 
ATOM     20  C   UNL     1       0.086   1.349   4.227  0.00  0.00    +0.051 A 
ATOM     21  C   UNL     1      -0.293   1.807   2.976  0.00  0.00    +0.162 A 
BRANCH  16  23
ATOM     22  C   UNL     1       0.910   1.523  -0.479  0.00  0.00    +0.277 C 
ATOM     23  O   UNL     1       0.087   1.908   0.625  0.00  0.00    -0.491 OA
ENDBRANCH  16  23
BRANCH  21  24
ATOM     24  O   UNL     1      -1.401   2.584   2.841  0.00  0.00    -0.491 OA
ATOM     25  C   UNL     1      -2.124   2.895   4.034  0.00  0.00    +0.277 C 
ENDBRANCH  21  24
ENDBRANCH  15  19
ENDBRANCH   5  15
BRANCH   2  26
ATOM     26  S   UNL     1       2.285   5.016   6.577  0.00  0.00    -0.124 S 
BRANCH  26  27
ATOM     27  C   UNL     1       1.296   5.313   8.005  0.00  0.00    +0.008 A 
ATOM     28  C   UNL     1       0.531   6.470   8.092  0.00  0.00    +0.017 A 
ATOM     29  C   UNL     1      -0.248   6.698   9.210  0.00  0.00    +0.039 A 
ATOM     30  C   UNL     1      -0.258   5.781  10.247  0.00  0.00    +0.123 A 
ATOM     31  C   UNL     1       0.509   4.630  10.165  0.00  0.00    +0.039 A 
ATOM     32  C   UNL     1       1.285   4.395   9.047  0.00  0.00    +0.017 A 
ATOM     33  F   UNL     1      -1.016   6.009  11.342  0.00  0.00    -0.205 F 
ENDBRANCH  26  27
ENDBRANCH   2  26
TORSDOF 7
