REMARK  Name = ZINC07358073
REMARK  6 active torsions:
REMARK  status: ('A' for Active; 'I' for Inactive)
REMARK    1  A    between atoms: C_9  and  C_12
REMARK    2  A    between atoms: C_10  and  O_11
REMARK    3  A    between atoms: C_12  and  O_14
REMARK    4  A    between atoms: O_14  and  C_15
REMARK    5  A    between atoms: C_15  and  C_16
REMARK    6  A    between atoms: C_23  and  C_25
REMARK                            x       y       z     vdW  Elec       q    Type
REMARK                         _______ _______ _______ _____ _____    ______ ____
ROOT
ATOM      1  O   UNL     1       1.264   0.745  -3.192  0.00  0.00    -0.452 OA
ENDROOT
BRANCH   1   2
ATOM      2  C   UNL     1       2.189   1.192  -4.064  0.00  0.00    +0.343 C 
ATOM      3  O   UNL     1       2.283   2.382  -4.293  0.00  0.00    -0.245 OA
BRANCH   2  12
ATOM      4  C   UNL     1       6.552  -2.063  -7.517  0.00  0.00    +0.001 A 
ATOM      5  C   UNL     1       6.678  -0.704  -7.796  0.00  0.00    +0.001 A 
ATOM      6  C   UNL     1       5.869   0.212  -7.195  0.00  0.00    +0.012 A 
ATOM      7  C   UNL     1       4.893  -0.216  -6.281  0.00  0.00    +0.024 A 
ATOM      8  C   UNL     1       4.764  -1.598  -5.996  0.00  0.00    -0.014 A 
ATOM      9  C   UNL     1       5.616  -2.513  -6.636  0.00  0.00    +0.008 A 
ATOM     10  C   UNL     1       3.787  -2.035  -5.080  0.00  0.00    +0.009 A 
ATOM     11  C   UNL     1       2.977  -1.137  -4.467  0.00  0.00    +0.019 A 
ATOM     12  C   UNL     1       3.085   0.239  -4.739  0.00  0.00    +0.101 A 
ATOM     13  C   UNL     1       4.040   0.706  -5.641  0.00  0.00    +0.138 A 
BRANCH  13  14
ATOM     14  O   UNL     1       4.148   2.031  -5.899  0.00  0.00    -0.505 OA
ATOM     15  H   UNL     1       4.762   2.497  -5.315  0.00  0.00    +0.292 HD
ENDBRANCH  13  14
ENDBRANCH   2  12
ENDBRANCH   1   2
BRANCH   1  16
ATOM     16  C   UNL     1       0.414   1.741  -2.564  0.00  0.00    +0.328 C 
BRANCH  16  17
ATOM     17  C   UNL     1      -0.550   1.060  -1.628  0.00  0.00    +0.254 C 
ATOM     18  O   UNL     1      -0.525  -0.147  -1.503  0.00  0.00    -0.272 OA
ATOM     19  N   UNL     1      -1.446   1.790  -0.934  0.00  0.00    -0.287 N 
ATOM     20  C   UNL     1      -1.430   3.257  -1.005  0.00  0.00    +0.108 C 
ATOM     21  C   UNL     1      -1.362   3.820   0.418  0.00  0.00    +0.019 C 
ATOM     22  C   UNL     1      -2.512   3.243   1.246  0.00  0.00    +0.004 C 
ATOM     23  C   UNL     1      -2.376   1.720   1.321  0.00  0.00    +0.032 C 
ATOM     24  C   UNL     1      -2.459   1.134  -0.097  0.00  0.00    +0.162 C 
BRANCH  24  25
ATOM     25  C   UNL     1      -2.192  -0.348  -0.049  0.00  0.00    +0.231 C 
ATOM     26  O   UNL     1      -1.196  -0.768   0.501  0.00  0.00    -0.274 OA
ATOM     27  N   UNL     1      -3.061  -1.208  -0.618  0.00  0.00    -0.328 N 
ATOM     28  H   UNL     1      -3.857  -0.873  -1.058  0.00  0.00    +0.145 HD
ATOM     29  H   UNL     1      -2.889  -2.162  -0.587  0.00  0.00    +0.145 HD
ENDBRANCH  24  25
ENDBRANCH  16  17
ENDBRANCH   1  16
TORSDOF 6
