REMARK  Name = ZINC04582971
REMARK  2 active torsions:
REMARK  status: ('A' for Active; 'I' for Inactive)
REMARK    1  A    between atoms: C_4  and  N_7
REMARK    2  A    between atoms: N_8  and  C_9
REMARK                            x       y       z     vdW  Elec       q    Type
REMARK                         _______ _______ _______ _____ _____    ______ ____
ROOT
ATOM      1  C   UNL     1       4.814  -2.582  -0.060  0.00  0.00    +0.089 A 
ATOM      2  C   UNL     1       6.014  -1.865  -0.063  0.00  0.00    +0.053 A 
ATOM      3  C   UNL     1       7.217  -2.539  -0.079  0.00  0.00    +0.091 A 
ATOM      4  C   UNL     1       7.237  -3.929  -0.093  0.00  0.00    +0.215 A 
ATOM      5  C   UNL     1       6.046  -4.646  -0.090  0.00  0.00    +0.091 A 
ATOM      6  C   UNL     1       4.839  -3.981  -0.068  0.00  0.00    +0.053 A 
ATOM      7 CL   UNL     1       6.079  -6.381  -0.108  0.00  0.00    -0.079 Cl
ATOM      8  O   UNL     1       8.424  -4.588  -0.110  0.00  0.00    -0.285 OA
ATOM      9 CL   UNL     1       8.708  -1.650  -0.083  0.00  0.00    -0.079 Cl
ENDROOT
BRANCH   1  11
ATOM     10  N   UNL     1       3.599  -0.629  -0.037  0.00  0.00    -0.149 NA
ATOM     11  N   UNL     1       3.620  -1.919  -0.044  0.00  0.00    -0.149 NA
BRANCH  10  15
ATOM     12  C   UNL     1      -0.017   1.380   0.010  0.00  0.00    +0.000 A 
ATOM     13  C   UNL     1       1.168   2.095   0.002  0.00  0.00    +0.002 A 
ATOM     14  C   UNL     1       2.377   1.432  -0.013  0.00  0.00    +0.029 A 
ATOM     15  C   UNL     1       2.404   0.035  -0.021  0.00  0.00    +0.086 A 
ATOM     16  C   UNL     1       1.204  -0.681  -0.013  0.00  0.00    +0.029 A 
ATOM     17  C   UNL     1       0.002  -0.004   0.002  0.00  0.00    +0.002 A 
ENDBRANCH  10  15
ENDBRANCH   1  11
TORSDOF 2
