REMARK  Name = ZINC14309701
REMARK  2 active torsions:
REMARK  status: ('A' for Active; 'I' for Inactive)
REMARK    1  A    between atoms: N_7  and  C_11
REMARK    2  A    between atoms: C_11  and  N_12
REMARK                            x       y       z     vdW  Elec       q    Type
REMARK                         _______ _______ _______ _____ _____    ______ ____
ROOT
ATOM      1  C   UNL     1      -0.017   1.377   0.010  0.00  0.00    +0.002 A 
ATOM      2  C   UNL     1       1.170   2.089   0.002  0.00  0.00    +0.004 A 
ATOM      3  C   UNL     1       2.381   1.425  -0.013  0.00  0.00    +0.048 A 
ATOM      4  C   UNL     1       2.410   0.040  -0.021  0.00  0.00    +0.157 A 
ATOM      5  C   UNL     1       1.214  -0.677  -0.013  0.00  0.00    +0.091 A 
ATOM      6  C   UNL     1       0.002  -0.004   0.002  0.00  0.00    +0.030 A 
ATOM      7  N   UNL     1       1.559  -2.028  -0.024  0.00  0.00    -0.261 N 
ATOM      8  C   UNL     1       2.904  -2.103  -0.037  0.00  0.00    +0.422 A 
ATOM      9  O   UNL     1       3.550  -3.133  -0.049  0.00  0.00    -0.223 OA
ATOM     10  O   UNL     1       3.421  -0.864  -0.035  0.00  0.00    -0.407 OA
ENDROOT
BRANCH   7  11
ATOM     11  C   UNL     1       0.628  -3.160  -0.020  0.00  0.00    +0.216 C 
BRANCH  11  12
ATOM     12  N   UNL     1       0.303  -3.531  -1.404  0.00  0.00    -0.280 NA
ATOM     13  C   UNL     1      -1.016  -4.174  -1.481  0.00  0.00    +0.091 C 
ATOM     14  C   UNL     1      -1.487  -4.166  -2.945  0.00  0.00    +0.058 C 
ATOM     15  C   UNL     1      -0.346  -4.628  -3.792  0.00  0.00    -0.005 A 
ATOM     16  C   UNL     1       0.957  -4.740  -3.410  0.00  0.00    -0.023 A 
ATOM     17  C   UNL     1       1.851  -5.198  -4.375  0.00  0.00    +0.013 A 
ATOM     18  C   UNL     1       1.408  -5.502  -5.618  0.00  0.00    +0.046 A 
ATOM     19  S   UNL     1      -0.339  -5.149  -5.484  0.00  0.00    -0.101 S 
ATOM     20  C   UNL     1       1.360  -4.368  -1.986  0.00  0.00    +0.122 C 
ENDBRANCH  11  12
ENDBRANCH   7  11
TORSDOF 2
