REMARK  Name = ZINC60389659
REMARK  4 active torsions:
REMARK  status: ('A' for Active; 'I' for Inactive)
REMARK    1  A    between atoms: C_1  and  C_2
REMARK    2  A    between atoms: C_5  and  C_23
REMARK    3  A    between atoms: C_6  and  N_8
REMARK    4  A    between atoms: C_18  and  C_20
REMARK                            x       y       z     vdW  Elec       q    Type
REMARK                         _______ _______ _______ _____ _____    ______ ____
ROOT
ATOM      1  N   UNL     1       0.025  -2.736   2.439  0.00  0.00    -0.379 NA
ATOM      2  C   UNL     1      -1.051  -2.299   3.322  0.00  0.00    +0.059 C 
ATOM      3  C   UNL     1      -2.370  -3.038   3.242  0.00  0.00    +0.021 C 
ATOM      4  C   UNL     1      -3.332  -2.367   4.237  0.00  0.00    +0.002 C 
ATOM      5  C   UNL     1      -2.763  -2.373   5.652  0.00  0.00    +0.000 C 
ATOM      6  C   UNL     1      -1.367  -1.732   5.701  0.00  0.00    +0.005 C 
ATOM      7  C   UNL     1      -0.484  -2.530   4.750  0.00  0.00    +0.010 C 
ATOM      8  C   UNL     1       0.937  -1.974   4.574  0.00  0.00    +0.037 C 
ATOM      9  C   UNL     1       1.304  -2.478   3.151  0.00  0.00    +0.171 C 
ATOM     10  H   UNL     1      -0.067  -3.722   2.244  0.00  0.00    +0.127 HD
ENDROOT
BRANCH   1  16
ATOM     11  C   UNL     1      -0.207   1.595   0.144  0.00  0.00    +0.044 C 
ATOM     12  C   UNL     1      -0.125   0.091   0.100  0.00  0.00    -0.049 A 
ATOM     13  C   UNL     1      -0.086  -0.561  -1.120  0.00  0.00    +0.005 A 
ATOM     14  C   UNL     1      -0.010  -1.937  -1.167  0.00  0.00    +0.021 A 
ATOM     15  C   UNL     1       0.027  -2.673   0.019  0.00  0.00    +0.071 A 
ATOM     16  C   UNL     1      -0.012  -2.008   1.246  0.00  0.00    +0.032 A 
ATOM     17  C   UNL     1      -0.083  -0.631   1.280  0.00  0.00    +0.026 A 
BRANCH  15  18
ATOM     18  C   UNL     1       0.105  -4.102  -0.022  0.00  0.00    +0.101 C 
ATOM     19  N   UNL     1       0.167  -5.236  -0.056  0.00  0.00    -0.191 NA
ENDBRANCH  15  18
ENDBRANCH   1  16
BRANCH   9  20
ATOM     20  C   UNL     1       2.094  -1.424   2.420  0.00  0.00    +0.375 C 
ATOM     21  O   UNL     1       2.429  -0.403   2.997  0.00  0.00    -0.244 OA
ATOM     22  O   UNL     1       2.400  -1.591   1.252  0.00  0.00    -0.244 OA
ENDBRANCH   9  20
TORSDOF 3
