REMARK  Name = ZINC25714239
REMARK  7 active torsions:
REMARK  status: ('A' for Active; 'I' for Inactive)
REMARK    1  A    between atoms: C_1  and  C_2
REMARK    2  A    between atoms: C_3  and  C_29
REMARK    3  A    between atoms: N_9  and  C_24
REMARK    4  A    between atoms: C_10  and  S_12
REMARK    5  A    between atoms: S_12  and  C_13
REMARK    6  A    between atoms: C_13  and  C_15
REMARK    7  A    between atoms: C_13  and  C_16
REMARK                            x       y       z     vdW  Elec       q    Type
REMARK                         _______ _______ _______ _____ _____    ______ ____
ROOT
ATOM      1  C   UNL     1      -5.659   3.472  -9.731  0.00  0.00    +0.045 C 
ATOM      2  C   UNL     1      -5.269   3.791  -8.310  0.00  0.00    -0.026 A 
ATOM      3  C   UNL     1      -5.866   4.795  -7.652  0.00  0.00    -0.008 A 
ATOM      4  S   UNL     1      -5.078   4.769  -6.053  0.00  0.00    -0.073 S 
ATOM      5  C   UNL     1      -3.969   3.409  -6.315  0.00  0.00    +0.117 A 
ATOM      6  C   UNL     1      -4.242   3.013  -7.638  0.00  0.00    +0.075 A 
ATOM      7  C   UNL     1      -3.476   1.909  -8.129  0.00  0.00    +0.263 A 
ATOM      8  O   UNL     1      -3.644   1.497  -9.264  0.00  0.00    -0.267 OA
ATOM      9  N   UNL     1      -2.564   1.335  -7.323  0.00  0.00    -0.284 N 
ATOM     10  C   UNL     1      -2.366   1.780  -6.048  0.00  0.00    +0.174 A 
ATOM     11  N   UNL     1      -3.057   2.795  -5.571  0.00  0.00    -0.216 NA
ATOM     12  C   UNL     1      -6.945   5.724  -8.146  0.00  0.00    +0.052 C 
ENDROOT
BRANCH   9  13
ATOM     13  C   UNL     1      -1.772   0.208  -7.822  0.00  0.00    +0.093 C 
ATOM     14  C   UNL     1      -0.992   0.628  -9.085  0.00  0.00    +0.025 C 
ATOM     15  C   UNL     1      -1.030  -0.629  -9.990  0.00  0.00    +0.002 C 
ATOM     16  C   UNL     1      -2.455  -1.185  -9.745  0.00  0.00    +0.002 C 
ATOM     17  C   UNL     1      -2.701  -0.945  -8.241  0.00  0.00    +0.025 C 
ENDBRANCH   9  13
BRANCH  10  18
ATOM     18  S   UNL     1      -1.165   0.991  -5.029  0.00  0.00    -0.075 S 
BRANCH  18  19
ATOM     19  C   UNL     1      -1.337   1.976  -3.520  0.00  0.00    +0.137 C 
ATOM     20  C   UNL     1      -0.904   3.416  -3.799  0.00  0.00    +0.029 C 
BRANCH  19  21
ATOM     21  C   UNL     1      -0.467   1.391  -2.437  0.00  0.00    +0.236 C 
ATOM     22  O   UNL     1       0.509   0.735  -2.731  0.00  0.00    -0.274 OA
ATOM     23  N   UNL     1      -0.775   1.598  -1.141  0.00  0.00    -0.224 N 
ATOM     24  C   UNL     1      -0.013   1.086   0.008  0.00  0.00    +0.136 C 
ATOM     25  C   UNL     1      -0.788   1.609   1.233  0.00  0.00    +0.125 C 
ATOM     26  N   UNL     1      -1.909   2.361   0.641  0.00  0.00    -0.297 N 
ATOM     27  C   UNL     1      -1.823   2.303  -0.695  0.00  0.00    +0.309 C 
ATOM     28  O   UNL     1      -2.623   2.841  -1.435  0.00  0.00    -0.252 OA
ATOM     29  H   UNL     1      -2.645   2.855   1.292  0.00  0.00    +0.150 HD
ENDBRANCH  19  21
ENDBRANCH  18  19
ENDBRANCH  10  18
TORSDOF 4
