REMARK  Name = ZINC11869760
REMARK  12 active torsions:
REMARK  status: ('A' for Active; 'I' for Inactive)
REMARK    1  A    between atoms: C_1  and  C_2
REMARK    2  A    between atoms: C_2  and  C_3
REMARK    3  A    between atoms: C_2  and  C_4
REMARK    4  A    between atoms: C_4  and  C_5
REMARK    5  A    between atoms: C_5  and  C_7
REMARK    6  A    between atoms: C_5  and  N_27
REMARK    7  A    between atoms: C_16  and  C_17
REMARK    8  A    between atoms: C_16  and  N_63
REMARK    9  A    between atoms: C_18  and  C_19
REMARK   10  A    between atoms: C_22  and  O_25
REMARK   11  A    between atoms: O_25  and  C_26
REMARK   12  A    between atoms: C_28  and  C_30
REMARK                            x       y       z     vdW  Elec       q    Type
REMARK                         _______ _______ _______ _____ _____    ______ ____
ROOT
ATOM      1  C   UNL     1       0.576  -0.514  -1.278  0.00  0.00    +0.154 A 
ATOM      2  N   UNL     1      -0.030  -0.587  -2.435  0.00  0.00    -0.132 NA
ATOM      3  N   UNL     1       0.782  -1.046  -3.323  0.00  0.00    -0.134 NA
ATOM      4  C   UNL     1       1.939  -1.279  -2.775  0.00  0.00    +0.132 A 
ATOM      5  N   UNL     1       1.837  -0.958  -1.462  0.00  0.00    -0.315 N 
ATOM      6  C   UNL     1       2.888  -1.110  -0.455  0.00  0.00    +0.106 C 
ATOM      7  C   UNL     1       4.255  -0.995  -1.137  0.00  0.00    -0.056 C 
ATOM      8  C   UNL     1       3.790  -2.904  -2.574  0.00  0.00    -0.071 C 
ATOM      9  C   UNL     1       3.188  -1.794  -3.442  0.00  0.00    +0.058 C 
ATOM     10  N   UNL     1       4.707  -2.341  -1.557  0.00  0.00    +0.383 N 
ATOM     11  H   UNL     1       4.710  -2.959  -0.737  0.00  0.00    -0.081 HD
ENDROOT
BRANCH   1  12
ATOM     12  C   UNL     1      -0.020  -0.020   0.015  0.00  0.00    +0.141 C 
BRANCH  12  13
ATOM     13  N   UNL     1      -1.354  -0.599   0.190  0.00  0.00    -0.306 N 
ATOM     14  C   UNL     1      -2.317  -0.364  -0.723  0.00  0.00    +0.210 C 
ATOM     15  O   UNL     1      -2.079   0.328  -1.690  0.00  0.00    -0.276 OA
ATOM     16  C   UNL     1      -3.689  -0.960  -0.542  0.00  0.00    +0.109 C 
ATOM     17  H   UNL     1      -1.544  -1.153   0.964  0.00  0.00    +0.149 HD
ENDBRANCH  12  13
BRANCH  12  18
ATOM     18  C   UNL     1      -0.128   1.506  -0.024  0.00  0.00    +0.033 C 
BRANCH  18  20
ATOM     19  C   UNL     1       0.393   1.727   2.410  0.00  0.00    +0.007 C 
ATOM     20  C   UNL     1      -0.645   2.015   1.323  0.00  0.00    -0.015 C 
ATOM     21  C   UNL     1      -0.891   3.522   1.239  0.00  0.00    +0.007 C 
ENDBRANCH  18  20
ENDBRANCH  12  18
ENDBRANCH   1  12
BRANCH  10  22
ATOM     22  C   UNL     1       6.074  -2.265  -2.104  0.00  0.00    -0.051 C 
BRANCH  22  23
ATOM     23  C   UNL     1       6.596  -3.667  -2.287  0.00  0.00    -0.045 C 
ATOM     24  C   UNL     1       7.068  -4.050  -3.466  0.00  0.00    +0.002 C 
BRANCH  24  25
ATOM     25  C   UNL     1       7.581  -5.424  -3.645  0.00  0.00    -0.025 A 
ATOM     26  C   UNL     1       7.575  -6.319  -2.574  0.00  0.00    +0.011 A 
ATOM     27  C   UNL     1       8.050  -7.601  -2.747  0.00  0.00    +0.046 A 
ATOM     28  C   UNL     1       8.543  -8.000  -3.982  0.00  0.00    +0.120 A 
ATOM     29  C   UNL     1       8.556  -7.112  -5.049  0.00  0.00    +0.046 A 
ATOM     30  C   UNL     1       8.078  -5.829  -4.885  0.00  0.00    +0.011 A 
BRANCH  28  31
ATOM     31  O   UNL     1       9.015  -9.263  -4.147  0.00  0.00    -0.495 OA
ATOM     32  C   UNL     1       8.973 -10.126  -3.008  0.00  0.00    +0.277 C 
ENDBRANCH  28  31
ENDBRANCH  24  25
ENDBRANCH  22  23
ENDBRANCH  10  22
TORSDOF 8
