REMARK  Name = ZINC22609317
REMARK  6 active torsions:
REMARK  status: ('A' for Active; 'I' for Inactive)
REMARK    1  A    between atoms: C_1  and  O_2
REMARK    2  A    between atoms: O_2  and  C_3
REMARK    3  A    between atoms: C_8  and  O_9
REMARK    4  A    between atoms: O_9  and  C_10
REMARK    5  A    between atoms: N_12  and  C_15
REMARK    6  A    between atoms: N_20  and  C_23
REMARK                            x       y       z     vdW  Elec       q    Type
REMARK                         _______ _______ _______ _____ _____    ______ ____
ROOT
ATOM      1  C   UNL     1       3.411  -2.279  -6.567  0.00  0.00    +0.153 C 
ATOM      2  C   UNL     1       2.638  -3.463  -7.183  0.00  0.00    +0.125 C 
ATOM      3  C   UNL     1       3.545  -4.648  -6.932  0.00  0.00    +0.228 C 
ATOM      4  O   UNL     1       3.314  -5.791  -7.262  0.00  0.00    -0.275 OA
ATOM      5  N   UNL     1       4.644  -4.233  -6.289  0.00  0.00    -0.209 N 
ATOM      6  C   UNL     1       4.675  -2.916  -6.033  0.00  0.00    +0.244 C 
ATOM      7  O   UNL     1       5.571  -2.329  -5.465  0.00  0.00    -0.273 OA
ENDROOT
BRANCH   1  15
ATOM      8  C   UNL     1       0.440  -0.805  -1.055  0.00  0.00    +0.162 A 
ATOM      9  C   UNL     1       1.022  -0.006  -2.023  0.00  0.00    +0.053 A 
ATOM     10  C   UNL     1       1.673  -0.578  -3.106  0.00  0.00    -0.038 A 
ATOM     11  C   UNL     1       1.745  -1.951  -3.220  0.00  0.00    -0.026 A 
ATOM     12  C   UNL     1       1.160  -2.756  -2.253  0.00  0.00    +0.054 A 
ATOM     13  C   UNL     1       0.513  -2.190  -1.168  0.00  0.00    +0.162 A 
ATOM     14  C   UNL     1       2.452  -2.616  -4.372  0.00  0.00    +0.120 C 
ATOM     15  N   UNL     1       2.639  -1.670  -5.476  0.00  0.00    -0.287 NA
ATOM     16  C   UNL     1       3.290  -0.443  -4.990  0.00  0.00    +0.090 C 
ATOM     17  C   UNL     1       2.287   0.334  -4.137  0.00  0.00    +0.051 C 
BRANCH   8  19
ATOM     18  C   UNL     1      -0.232   1.189   0.055  0.00  0.00    +0.277 C 
ATOM     19  O   UNL     1      -0.197  -0.239   0.006  0.00  0.00    -0.491 OA
ENDBRANCH   8  19
BRANCH  13  20
ATOM     20  O   UNL     1      -0.052  -2.984  -0.220  0.00  0.00    -0.491 OA
ATOM     21  C   UNL     1       0.063  -4.396  -0.404  0.00  0.00    +0.277 C 
ENDBRANCH  13  20
ENDBRANCH   1  15
BRANCH   5  22
ATOM     22  C   UNL     1       5.678  -5.104  -5.915  0.00  0.00    +0.045 A 
ATOM     23  C   UNL     1       5.454  -6.073  -4.947  0.00  0.00    +0.027 A 
ATOM     24  C   UNL     1       6.473  -6.930  -4.579  0.00  0.00    +0.041 A 
ATOM     25  C   UNL     1       7.718  -6.822  -5.176  0.00  0.00    +0.142 A 
ATOM     26  C   UNL     1       7.944  -5.855  -6.142  0.00  0.00    +0.078 A 
ATOM     27  C   UNL     1       6.925  -5.000  -6.516  0.00  0.00    +0.046 A 
ATOM     28 CL   UNL     1       9.506  -5.722  -6.887  0.00  0.00    -0.081 Cl
ATOM     29  F   UNL     1       8.714  -7.661  -4.814  0.00  0.00    -0.204 F 
ENDBRANCH   5  22
TORSDOF 4
