REMARK  Name = ZINC05784583
REMARK  5 active torsions:
REMARK  status: ('A' for Active; 'I' for Inactive)
REMARK    1  A    between atoms: C_1  and  C_2
REMARK    2  A    between atoms: C_6  and  N_8
REMARK    3  A    between atoms: C_13  and  C_16
REMARK    4  A    between atoms: C_16  and  C_17
REMARK    5  A    between atoms: C_21  and  N_23
REMARK                            x       y       z     vdW  Elec       q    Type
REMARK                         _______ _______ _______ _____ _____    ______ ____
ROOT
ATOM      1  N   UNL     1       0.051  -2.791   2.363  0.00  0.00    -0.226 NA
ATOM      2  C   UNL     1      -0.739  -3.827   2.524  0.00  0.00    +0.161 C 
ATOM      3  N   UNL     1      -1.636  -4.361   1.623  0.00  0.00    -0.264 N 
ATOM      4  C   UNL     1      -2.381  -5.417   1.905  0.00  0.00    +0.232 C 
ATOM      5  O   UNL     1      -3.168  -5.881   1.108  0.00  0.00    -0.274 OA
ATOM      6  C   UNL     1      -2.187  -6.013   3.290  0.00  0.00    +0.144 C 
ATOM      7  S   UNL     1      -0.897  -4.882   3.957  0.00  0.00    -0.077 S 
ATOM      8  H   UNL     1      -1.725  -3.946   0.751  0.00  0.00    +0.157 HD
ENDROOT
BRANCH   1  14
ATOM      9  C   UNL     1      -0.018   1.503   0.010  0.00  0.00    +0.044 C 
ATOM     10  C   UNL     1       0.002  -0.004   0.002  0.00  0.00    -0.048 A 
ATOM     11  C   UNL     1       0.006  -0.688  -1.201  0.00  0.00    +0.003 A 
ATOM     12  C   UNL     1       0.024  -2.071  -1.218  0.00  0.00    +0.002 A 
ATOM     13  C   UNL     1       0.040  -2.778  -0.033  0.00  0.00    +0.028 A 
ATOM     14  C   UNL     1       0.036  -2.095   1.184  0.00  0.00    +0.067 A 
ATOM     15  C   UNL     1       0.023  -0.699   1.194  0.00  0.00    +0.031 A 
ENDBRANCH   1  14
BRANCH   6  16
ATOM     16  C   UNL     1      -1.671  -7.450   3.208  0.00  0.00    +0.059 C 
BRANCH  16  17
ATOM     17  C   UNL     1      -1.611  -8.042   4.593  0.00  0.00    -0.044 A 
ATOM     18  C   UNL     1      -0.462  -7.912   5.351  0.00  0.00    +0.004 A 
ATOM     19  C   UNL     1      -0.406  -8.454   6.621  0.00  0.00    +0.002 A 
ATOM     20  C   UNL     1      -1.500  -9.127   7.134  0.00  0.00    +0.033 A 
ATOM     21  C   UNL     1      -2.649  -9.256   6.377  0.00  0.00    +0.126 A 
ATOM     22  C   UNL     1      -2.706  -8.710   5.108  0.00  0.00    +0.036 A 
BRANCH  21  23
ATOM     23  N   UNL     1      -3.820  -9.977   6.925  0.00  0.00    +0.056 N 
ATOM     24  O   UNL     1      -3.771 -10.452   8.036  0.00  0.00    -0.126 OA
ATOM     25  O   UNL     1      -4.825 -10.090   6.263  0.00  0.00    -0.126 OA
ENDBRANCH  21  23
ENDBRANCH  16  17
ENDBRANCH   6  16
TORSDOF 4
