REMARK  Name = ZINC06883673
REMARK  3 active torsions:
REMARK  status: ('A' for Active; 'I' for Inactive)
REMARK    1  A    between atoms: C_6  and  C_7
REMARK    2  A    between atoms: C_9  and  C_12
REMARK    3  A    between atoms: C_19  and  C_21
REMARK                            x       y       z     vdW  Elec       q    Type
REMARK                         _______ _______ _______ _____ _____    ______ ____
ROOT
ATOM      1  C   UNL     1      -6.444   1.433  -0.108  0.00  0.00    +0.202 A 
ATOM      2  N   UNL     1      -5.349   2.224  -0.045  0.00  0.00    -0.191 NA
ATOM      3  C   UNL     1      -4.325   1.408  -0.074  0.00  0.00    +0.232 A 
ATOM      4  O   UNL     1      -4.812   0.167  -0.158  0.00  0.00    -0.337 OA
ATOM      5  N   UNL     1      -6.025   0.196  -0.170  0.00  0.00    -0.056 NA
ENDROOT
BRANCH   3   6
ATOM      6  C   UNL     1      -2.869   1.797  -0.028  0.00  0.00    +0.095 C 
ATOM      7  C   UNL     1      -2.208   1.161   1.197  0.00  0.00    +0.016 C 
ATOM      8  C   UNL     1      -0.736   1.583   1.264  0.00  0.00    +0.020 C 
ATOM      9  C   UNL     1      -0.013   1.086   0.008  0.00  0.00    +0.108 C 
ATOM     10  N   UNL     1      -0.729   1.575  -1.178  0.00  0.00    -0.301 N 
ATOM     11  C   UNL     1      -2.168   1.303  -1.297  0.00  0.00    +0.120 C 
ATOM     12  C   UNL     1      -0.078   2.260  -2.139  0.00  0.00    +0.219 C 
ATOM     13  O   UNL     1      -0.680   2.659  -3.113  0.00  0.00    -0.275 OA
BRANCH  12  14
ATOM     14  C   UNL     1       1.398   2.531  -2.003  0.00  0.00    +0.075 C 
ATOM     15  C   UNL     1       1.724   3.726  -1.091  0.00  0.00    +0.013 C 
ATOM     16  C   UNL     1       2.817   4.101  -2.107  0.00  0.00    +0.001 C 
ATOM     17  C   UNL     1       1.983   3.355  -3.162  0.00  0.00    +0.013 C 
ENDBRANCH  12  14
ENDBRANCH   3   6
BRANCH   1  23
ATOM     18  C   UNL     1      -8.158   3.244  -0.030  0.00  0.00    +0.013 A 
ATOM     19  C   UNL     1      -9.474   3.659  -0.036  0.00  0.00    +0.016 A 
ATOM     20  C   UNL     1     -10.495   2.728  -0.105  0.00  0.00    +0.018 A 
ATOM     21  C   UNL     1     -10.203   1.376  -0.175  0.00  0.00    +0.016 A 
ATOM     22  C   UNL     1      -8.890   0.951  -0.176  0.00  0.00    +0.013 A 
ATOM     23  C   UNL     1      -7.858   1.885  -0.107  0.00  0.00    +0.023 A 
ATOM     24 BR   UNL     1     -12.297   3.303  -0.104  0.00  0.00    -0.050 Br
ENDBRANCH   1  23
TORSDOF 3
