REMARK  Name = ZINC12394106
REMARK  4 active torsions:
REMARK  status: ('A' for Active; 'I' for Inactive)
REMARK    1  A    between atoms: C_1  and  N_2
REMARK    2  A    between atoms: C_6  and  C_7
REMARK    3  A    between atoms: N_9  and  N_10
REMARK    4  A    between atoms: C_11  and  C_13
REMARK                            x       y       z     vdW  Elec       q    Type
REMARK                         _______ _______ _______ _____ _____    ______ ____
ROOT
ATOM      1  C   UNL     1       2.365   1.038  -0.482  0.00  0.00    +0.277 C 
ATOM      2  O   UNL     1       2.367  -0.178  -0.450  0.00  0.00    -0.267 OA
ATOM      3  N   UNL     1       1.206   1.706  -0.646  0.00  0.00    -0.229 N 
ATOM      4  H   UNL     1       1.192   2.674  -0.590  0.00  0.00    +0.173 HD
ENDROOT
BRANCH   1  10
ATOM      5  C   UNL     1       5.199  -0.200  -0.308  0.00  0.00    +0.149 C 
ATOM      6  N   UNL     1       4.884   1.230  -0.264  0.00  0.00    -0.345 N 
ATOM      7  C   UNL     1       5.787   2.236  -0.141  0.00  0.00    +0.106 A 
ATOM      8  C   UNL     1       5.126   3.419  -0.138  0.00  0.00    +0.059 A 
ATOM      9  C   UNL     1       3.760   3.148  -0.269  0.00  0.00    +0.052 A 
ATOM     10  C   UNL     1       3.624   1.778  -0.342  0.00  0.00    +0.107 A 
ATOM     11 CL   UNL     1       5.848   4.992  -0.002  0.00  0.00    -0.082 Cl
ENDBRANCH   1  10
BRANCH   3  12
ATOM     12  N   UNL     1       0.021   1.002  -0.899  0.00  0.00    -0.230 N 
ATOM     13  C   UNL     1      -1.137   1.670  -1.069  0.00  0.00    +0.260 C 
ATOM     14  O   UNL     1      -1.155   2.883  -0.998  0.00  0.00    -0.269 OA
ATOM     15  H   UNL     1       0.035   0.034  -0.955  0.00  0.00    +0.173 HD
BRANCH  13  16
ATOM     16  C   UNL     1      -2.385   0.927  -1.341  0.00  0.00    +0.038 A 
ATOM     17  C   UNL     1      -2.367  -0.466  -1.428  0.00  0.00    +0.014 A 
ATOM     18  C   UNL     1      -3.536  -1.154  -1.676  0.00  0.00    +0.021 A 
ATOM     19  C   UNL     1      -4.725  -0.464  -1.851  0.00  0.00    +0.041 A 
ATOM     20  C   UNL     1      -4.748   0.918  -1.772  0.00  0.00    +0.021 A 
ATOM     21  C   UNL     1      -3.587   1.617  -1.518  0.00  0.00    +0.014 A 
ATOM     22 CL   UNL     1      -6.191  -1.337  -2.171  0.00  0.00    -0.084 Cl
ENDBRANCH  13  16
ENDBRANCH   3  12
TORSDOF 3
