REMARK  Name = ZINC15442831
REMARK  3 active torsions:
REMARK  status: ('A' for Active; 'I' for Inactive)
REMARK    1  A    between atoms: C_6  and  C_7
REMARK    2  A    between atoms: C_7  and  C_9
REMARK    3  A    between atoms: C_7  and  C_11
REMARK                            x       y       z     vdW  Elec       q    Type
REMARK                         _______ _______ _______ _____ _____    ______ ____
ROOT
ATOM      1  C   UNL     1      -0.018   1.468   0.010  0.00  0.00    +0.172 C 
ENDROOT
BRANCH   1   7
ATOM      2  C   UNL     1       2.260   1.666   1.029  0.00  0.00    +0.006 A 
ATOM      3  C   UNL     1       3.558   2.139   1.017  0.00  0.00    +0.015 A 
ATOM      4  C   UNL     1       3.990   2.946  -0.020  0.00  0.00    +0.018 A 
ATOM      5  C   UNL     1       3.124   3.274  -1.048  0.00  0.00    +0.015 A 
ATOM      6  C   UNL     1       1.827   2.796  -1.037  0.00  0.00    +0.006 A 
ATOM      7  C   UNL     1       1.396   1.989  -0.001  0.00  0.00    -0.025 A 
ATOM      8 BR   UNL     1       5.764   3.602  -0.033  0.00  0.00    -0.050 Br
ENDBRANCH   1   7
BRANCH   1   9
ATOM      9  C   UNL     1      -0.723   1.954   1.250  0.00  0.00    +0.085 A 
ATOM     10  C   UNL     1      -0.598   1.254   2.440  0.00  0.00    +0.030 A 
ATOM     11  C   UNL     1      -1.266   1.740   3.555  0.00  0.00    +0.044 A 
ATOM     12  C   UNL     1      -2.018   2.897   3.410  0.00  0.00    +0.151 A 
ATOM     13  N   UNL     1      -2.080   3.497   2.236  0.00  0.00    -0.137 NA
ATOM     14  N   UNL     1      -1.457   3.049   1.206  0.00  0.00    -0.151 NA
ATOM     15 CL   UNL     1      -2.876   3.554   4.769  0.00  0.00    -0.060 Cl
ENDBRANCH   1   9
BRANCH   1  16
ATOM     16  C   UNL     1       0.002  -0.004   0.002  0.00  0.00    +0.077 C 
ATOM     17  N   UNL     1       0.018  -1.140  -0.004  0.00  0.00    -0.196 NA
ENDBRANCH   1  16
TORSDOF 3
