REMARK  Name = ZINC17093233
REMARK  11 active torsions:
REMARK  status: ('A' for Active; 'I' for Inactive)
REMARK    1  A    between atoms: C_1  and  C_2
REMARK    2  A    between atoms: C_2  and  N_3
REMARK    3  A    between atoms: C_4  and  C_31
REMARK    4  A    between atoms: C_5  and  C_8
REMARK    5  A    between atoms: C_8  and  C_10
REMARK    6  A    between atoms: C_8  and  N_11
REMARK    7  A    between atoms: C_12  and  C_14
REMARK    8  A    between atoms: N_19  and  S_21
REMARK    9  A    between atoms: S_21  and  C_24
REMARK   10  A    between atoms: N_27  and  C_30
REMARK   11  A    between atoms: C_28  and  C_29
REMARK                            x       y       z     vdW  Elec       q    Type
REMARK                         _______ _______ _______ _____ _____    ______ ____
ROOT
ATOM      1  C   UNL     1       3.736  -1.232   1.679  0.00  0.00    +0.091 C 
ATOM      2  C   UNL     1       3.562  -2.252   2.806  0.00  0.00    +0.015 C 
ATOM      3  C   UNL     1       3.171  -1.528   4.096  0.00  0.00    +0.018 C 
ATOM      4  C   UNL     1       1.841  -0.806   3.889  0.00  0.00    +0.109 C 
ATOM      5  N   UNL     1       1.950   0.070   2.714  0.00  0.00    -0.176 NA
ATOM      6  C   UNL     1       2.407  -0.507   1.442  0.00  0.00    +0.122 C 
ENDROOT
BRANCH   1   8
ATOM      7  N   UNL     1       5.300  -2.650   0.390  0.00  0.00    -0.308 N 
ATOM      8  C   UNL     1       4.153  -1.942   0.417  0.00  0.00    +0.218 C 
ATOM      9  O   UNL     1       3.458  -1.876  -0.574  0.00  0.00    -0.275 OA
ATOM     10  H   UNL     1       5.856  -2.703   1.183  0.00  0.00    +0.149 HD
BRANCH   7  11
ATOM     11  C   UNL     1       5.705  -3.341  -0.837  0.00  0.00    +0.103 C 
ATOM     12  C   UNL     1       6.458  -2.367  -1.745  0.00  0.00    +0.033 C 
BRANCH  11  15
ATOM     13  N   UNL     1       7.713  -6.376  -0.601  0.00  0.00    -0.269 N 
ATOM     14  C   UNL     1       6.865  -5.569  -1.273  0.00  0.00    +0.041 A 
ATOM     15  C   UNL     1       6.604  -4.499  -0.487  0.00  0.00    +0.013 A 
ATOM     16  C   UNL     1       7.321  -4.654   0.704  0.00  0.00    +0.140 A 
ATOM     17  N   UNL     1       7.981  -5.782   0.639  0.00  0.00    -0.179 NA
ATOM     18  C   UNL     1       6.310  -5.816  -2.652  0.00  0.00    +0.065 C 
BRANCH  13  20
ATOM     19  C   UNL     1       9.568  -7.393  -1.827  0.00  0.00    +0.029 C 
ATOM     20  C   UNL     1       8.256  -7.648  -1.083  0.00  0.00    +0.140 C 
ENDBRANCH  13  20
ENDBRANCH  11  15
ENDBRANCH   7  11
ENDBRANCH   1   8
BRANCH   5  21
ATOM     21  S   UNL     1       1.573   1.679   2.823  0.00  0.00    +0.064 S 
ATOM     22  O   UNL     1       2.284   2.334   1.782  0.00  0.00    -0.153 OA
ATOM     23  O   UNL     1       1.720   2.039   4.190  0.00  0.00    -0.153 OA
BRANCH  21  24
ATOM     24  C   UNL     1      -0.140   1.839   2.442  0.00  0.00    +0.146 A 
ATOM     25  C   UNL     1      -1.142   2.264   3.320  0.00  0.00    +0.163 A 
ATOM     26  N   UNL     1      -2.281   2.253   2.676  0.00  0.00    -0.178 NA
ATOM     27  N   UNL     1      -2.039   1.824   1.365  0.00  0.00    -0.270 N 
ATOM     28  C   UNL     1      -0.718   1.572   1.248  0.00  0.00    +0.062 A 
ATOM     29  C   UNL     1      -0.013   1.086   0.008  0.00  0.00    +0.067 C 
ATOM     30  C   UNL     1      -3.042   1.673   0.308  0.00  0.00    +0.172 C 
ENDBRANCH  21  24
ENDBRANCH   5  21
TORSDOF 6
