REMARK  Name = ZINC67049877
REMARK  3 active torsions:
REMARK  status: ('A' for Active; 'I' for Inactive)
REMARK    1  A    between atoms: C_14  and  N_17
REMARK    2  A    between atoms: C_18  and  C_20
REMARK    3  A    between atoms: C_25  and  C_28
REMARK                            x       y       z     vdW  Elec       q    Type
REMARK                         _______ _______ _______ _____ _____    ______ ____
ROOT
ATOM      1  C   UNL     1      -0.026   1.293   0.229  0.00  0.00    +0.225 A 
ATOM      2  N   UNL     1      -1.150   1.987   0.236  0.00  0.00    -0.218 NA
ATOM      3  H   UNL     1      -0.802  -2.726  -0.532  0.00  0.00    +0.168 HD
ATOM      4  C   UNL     1      -2.322   1.400   0.021  0.00  0.00    +0.152 A 
ATOM      5  C   UNL     1      -2.344   0.015  -0.217  0.00  0.00    +0.147 A 
ATOM      6  N   UNL     1      -3.318  -0.893  -0.468  0.00  0.00    -0.231 NA
ATOM      7  C   UNL     1      -2.784  -2.071  -0.615  0.00  0.00    +0.198 A 
ATOM      8  N   UNL     1      -1.431  -1.991  -0.468  0.00  0.00    -0.329 N 
ATOM      9  C   UNL     1      -1.122  -0.678  -0.215  0.00  0.00    +0.163 A 
ATOM     10  N   UNL     1       0.002  -0.005   0.011  0.00  0.00    -0.216 NA
ATOM     11  N   UNL     1      -3.494   2.135   0.030  0.00  0.00    -0.313 N 
ATOM     12  C   UNL     1      -4.799   1.466  -0.071  0.00  0.00    +0.108 C 
ATOM     13  C   UNL     1      -5.677   1.917   1.100  0.00  0.00    +0.041 C 
ATOM     14  C   UNL     1      -5.754   3.446   1.116  0.00  0.00    +0.076 C 
ATOM     15  C   UNL     1      -4.352   4.027   1.312  0.00  0.00    +0.041 C 
ATOM     16  C   UNL     1      -3.459   3.599   0.149  0.00  0.00    +0.108 C 
ENDROOT
BRANCH  14  17
ATOM     17  N   UNL     1      -6.620   3.879   2.216  0.00  0.00    -0.312 N 
ATOM     18  C   UNL     1      -7.244   5.072   2.152  0.00  0.00    +0.216 C 
ATOM     19  O   UNL     1      -7.089   5.786   1.184  0.00  0.00    -0.276 OA
ATOM     20  H   UNL     1      -6.744   3.308   2.990  0.00  0.00    +0.149 HD
BRANCH  18  21
ATOM     21  C   UNL     1      -8.134   5.518   3.283  0.00  0.00    +0.076 C 
ATOM     22  C   UNL     1      -9.274   4.513   3.461  0.00  0.00    +0.013 C 
ATOM     23  C   UNL     1     -10.179   4.966   4.609  0.00  0.00    +0.001 C 
ATOM     24  C   UNL     1     -10.759   6.344   4.287  0.00  0.00    +0.012 C 
ATOM     25  C   UNL     1      -9.619   7.349   4.109  0.00  0.00    +0.094 C 
ATOM     26  C   UNL     1      -8.715   6.896   2.961  0.00  0.00    +0.025 C 
BRANCH  25  27
ATOM     27  C   UNL     1     -10.200   8.728   3.788  0.00  0.00    +0.393 C 
ATOM     28  F   UNL     1     -11.027   9.142   4.838  0.00  0.00    -0.170 F 
ATOM     29  F   UNL     1      -9.158   9.646   3.625  0.00  0.00    -0.170 F 
ATOM     30  F   UNL     1     -10.947   8.655   2.607  0.00  0.00    -0.170 F 
ENDBRANCH  25  27
ENDBRANCH  18  21
ENDBRANCH  14  17
TORSDOF 3
