REMARK  Name = ZINC01959606
REMARK  6 active torsions:
REMARK  status: ('A' for Active; 'I' for Inactive)
REMARK    1  A    between atoms: C_1  and  O_2
REMARK    2  A    between atoms: O_2  and  C_3
REMARK    3  A    between atoms: C_6  and  C_10
REMARK    4  A    between atoms: C_11  and  C_12
REMARK    5  A    between atoms: N_14  and  C_15
REMARK    6  A    between atoms: C_19  and  N_21
REMARK                            x       y       z     vdW  Elec       q    Type
REMARK                         _______ _______ _______ _____ _____    ______ ____
ROOT
ATOM      1  C   UNL     1      -1.182  -2.064  -0.100  0.00  0.00    +0.241 C 
ATOM      2  O   UNL     1      -0.121  -2.661  -0.113  0.00  0.00    -0.270 OA
ATOM      3  N   UNL     1      -1.199  -0.721   0.009  0.00  0.00    -0.282 N 
ATOM      4  H   UNL     1      -2.044  -0.251   0.087  0.00  0.00    +0.155 HD
ENDROOT
BRANCH   3   5
ATOM      5  C   UNL     1       0.003  -0.005   0.010  0.00  0.00    +0.036 A 
ATOM      6  C   UNL     1       1.135  -0.545   0.607  0.00  0.00    +0.025 A 
ATOM      7  C   UNL     1       2.319   0.164   0.606  0.00  0.00    +0.024 A 
ATOM      8  C   UNL     1       2.380   1.412   0.011  0.00  0.00    +0.071 A 
ATOM      9  C   UNL     1       1.254   1.953  -0.584  0.00  0.00    +0.146 A 
ATOM     10  C   UNL     1       0.066   1.248  -0.586  0.00  0.00    +0.057 A 
ATOM     11 CL   UNL     1       3.871   2.301   0.011  0.00  0.00    -0.081 Cl
BRANCH   9  12
ATOM     12  N   UNL     1       1.322   3.288  -1.219  0.00  0.00    +0.058 N 
ATOM     13  O   UNL     1       0.331   3.765  -1.743  0.00  0.00    -0.126 OA
ATOM     14  O   UNL     1       2.369   3.910  -1.218  0.00  0.00    -0.126 OA
ENDBRANCH   9  12
ENDBRANCH   3   5
BRANCH   1  16
ATOM     15  C   UNL     1      -2.422  -4.150  -0.312  0.00  0.00    +0.013 C 
ATOM     16  C   UNL     1      -2.439  -2.805  -0.203  0.00  0.00    +0.068 C 
BRANCH  15  20
ATOM     17  C   UNL     1      -6.067  -6.300  -0.609  0.00  0.00    +0.134 A 
ATOM     18  C   UNL     1      -4.857  -6.983  -0.624  0.00  0.00    +0.047 A 
ATOM     19  C   UNL     1      -3.671  -6.290  -0.528  0.00  0.00    +0.011 A 
ATOM     20  C   UNL     1      -3.686  -4.895  -0.415  0.00  0.00    -0.024 A 
ATOM     21  C   UNL     1      -4.907  -4.212  -0.394  0.00  0.00    +0.026 A 
ATOM     22  C   UNL     1      -6.088  -4.914  -0.496  0.00  0.00    +0.060 A 
ATOM     23 BR   UNL     1      -7.739  -3.993  -0.474  0.00  0.00    -0.047 Br
BRANCH  17  25
ATOM     24  C   UNL     1      -7.141  -8.410  -0.817  0.00  0.00    +0.277 C 
ATOM     25  O   UNL     1      -7.234  -6.988  -0.704  0.00  0.00    -0.494 OA
ENDBRANCH  17  25
ENDBRANCH  15  20
ENDBRANCH   1  16
TORSDOF 5
