REMARK  Name = ZINC35143821
REMARK  7 active torsions:
REMARK  status: ('A' for Active; 'I' for Inactive)
REMARK    1  A    between atoms: N_9  and  C_28
REMARK    2  A    between atoms: C_10  and  S_12
REMARK    3  A    between atoms: S_12  and  C_13
REMARK    4  A    between atoms: C_13  and  C_14
REMARK    5  A    between atoms: C_14  and  C_15
REMARK    6  A    between atoms: C_15  and  C_16
REMARK    7  A    between atoms: N_18  and  C_19
REMARK                            x       y       z     vdW  Elec       q    Type
REMARK                         _______ _______ _______ _____ _____    ______ ____
ROOT
ATOM      1  C   UNL     1       0.383   1.392   1.244  0.00  0.00    +0.001 A 
ATOM      2  C   UNL     1       1.337   2.102   0.526  0.00  0.00    +0.002 A 
ATOM      3  C   UNL     1       2.337   1.455  -0.144  0.00  0.00    +0.028 A 
ATOM      4  C   UNL     1       2.404   0.059  -0.107  0.00  0.00    +0.079 A 
ATOM      5  C   UNL     1       1.431  -0.659   0.625  0.00  0.00    +0.065 A 
ATOM      6  C   UNL     1       0.421   0.026   1.299  0.00  0.00    +0.015 A 
ATOM      7  C   UNL     1       1.522  -2.125   0.648  0.00  0.00    +0.267 A 
ATOM      8  O   UNL     1       0.714  -2.798   1.260  0.00  0.00    -0.267 OA
ATOM      9  N   UNL     1       2.538  -2.700  -0.038  0.00  0.00    -0.255 N 
ATOM     10  C   UNL     1       3.438  -1.930  -0.721  0.00  0.00    +0.177 A 
ATOM     11  N   UNL     1       3.377  -0.622  -0.757  0.00  0.00    -0.223 NA
ENDROOT
BRANCH   9  12
ATOM     12  C   UNL     1       2.668  -4.095  -0.047  0.00  0.00    +0.055 A 
ATOM     13  C   UNL     1       2.041  -4.845  -1.033  0.00  0.00    +0.026 A 
ATOM     14  C   UNL     1       2.171  -6.220  -1.041  0.00  0.00    +0.005 A 
ATOM     15  C   UNL     1       2.924  -6.851  -0.069  0.00  0.00    +0.038 A 
ATOM     16  C   UNL     1       3.551  -6.106   0.916  0.00  0.00    +0.125 A 
ATOM     17  C   UNL     1       3.428  -4.728   0.926  0.00  0.00    +0.064 A 
ATOM     18  F   UNL     1       4.287  -6.725   1.866  0.00  0.00    -0.205 F 
ENDBRANCH   9  12
BRANCH  10  19
ATOM     19  S   UNL     1       4.739  -2.734  -1.595  0.00  0.00    -0.087 S 
BRANCH  19  20
ATOM     20  C   UNL     1       5.676  -1.371  -2.340  0.00  0.00    +0.078 C 
BRANCH  20  21
ATOM     21  C   UNL     1       6.852  -1.937  -3.139  0.00  0.00    +0.020 C 
BRANCH  21  22
ATOM     22  C   UNL     1       7.642  -0.787  -3.767  0.00  0.00    +0.096 C 
BRANCH  22  23
ATOM     23  C   UNL     1       8.800  -1.344  -4.554  0.00  0.00    +0.214 C 
ATOM     24  O   UNL     1       8.976  -2.543  -4.608  0.00  0.00    -0.276 OA
ATOM     25  N   UNL     1       9.640  -0.511  -5.199  0.00  0.00    -0.304 N 
ATOM     26  H   UNL     1       9.499   0.448  -5.156  0.00  0.00    +0.149 HD
BRANCH  25  27
ATOM     27  C   UNL     1      10.766  -1.052  -5.964  0.00  0.00    +0.159 C 
ATOM     28  C   UNL     1      11.176  -0.056  -7.051  0.00  0.00    +0.032 C 
ATOM     29  C   UNL     1      11.871  -0.766  -8.197  0.00  0.00    +0.004 C 
ATOM     30  C   UNL     1      13.216  -1.364  -7.823  0.00  0.00    +0.019 C 
ATOM     31  C   UNL     1      13.043  -2.515  -6.830  0.00  0.00    +0.104 C 
ATOM     32  N   UNL     1      13.009  -1.959  -5.467  0.00  0.00    -0.314 N 
ATOM     33  C   UNL     1      11.946  -1.278  -5.042  0.00  0.00    +0.233 C 
ATOM     34  O   UNL     1      11.926  -0.832  -3.915  0.00  0.00    -0.274 OA
ATOM     35  H   UNL     1      13.765  -2.094  -4.873  0.00  0.00    +0.149 HD
ENDBRANCH  25  27
ENDBRANCH  22  23
ENDBRANCH  21  22
ENDBRANCH  20  21
ENDBRANCH  19  20
ENDBRANCH  10  19
TORSDOF 7
