REMARK  Name = ZINC02113342
REMARK  9 active torsions:
REMARK  status: ('A' for Active; 'I' for Inactive)
REMARK    1  A    between atoms: C_1  and  C_2
REMARK    2  A    between atoms: C_10  and  O_13
REMARK    3  A    between atoms: O_13  and  C_14
REMARK    4  A    between atoms: C_14  and  C_16
REMARK    5  A    between atoms: C_22  and  C_26
REMARK    6  A    between atoms: C_22  and  O_27
REMARK    7  A    between atoms: O_27  and  C_28
REMARK    8  A    between atoms: C_28  and  C_30
REMARK    9  A    between atoms: C_31  and  C_35
REMARK                            x       y       z     vdW  Elec       q    Type
REMARK                         _______ _______ _______ _____ _____    ______ ____
ROOT
ATOM      1  C   UNL     1       2.719  -2.995   3.287  0.00  0.00    +0.039 C 
ATOM      2  C   UNL     1       3.298  -3.913   2.240  0.00  0.00    -0.062 C 
ATOM      3  C   UNL     1       4.607  -3.957   2.058  0.00  0.00    +0.009 C 
ATOM      4  C   UNL     1       5.350  -4.775   1.012  0.00  0.00    +0.090 C 
ATOM      5  C   UNL     1       4.920  -4.221  -0.339  0.00  0.00    +0.199 C 
ATOM      6  C   UNL     1       3.581  -4.798  -0.769  0.00  0.00    +0.126 C 
ATOM      7  C   UNL     1       2.381  -4.262  -0.044  0.00  0.00    +0.192 C 
ATOM      8  C   UNL     1       2.374  -4.780   1.401  0.00  0.00    +0.076 C 
ATOM      9  C   UNL     1       3.606  -4.522  -2.282  0.00  0.00    +0.216 C 
ATOM     10  C   UNL     1       5.092  -4.367  -2.585  0.00  0.00    +0.352 C 
ATOM     11  O   UNL     1       5.564  -4.110  -3.667  0.00  0.00    -0.246 OA
ATOM     12  O   UNL     1       5.801  -4.564  -1.444  0.00  0.00    -0.457 OA
ATOM     13  C   UNL     1       3.018  -5.704  -3.056  0.00  0.00    +0.068 C 
ATOM     14  C   UNL     1       6.813  -4.489   1.245  0.00  0.00    -0.058 C 
ATOM     15  C   UNL     1       6.953  -3.635   2.248  0.00  0.00    +0.051 C 
ATOM     16  C   UNL     1       5.653  -3.247   2.808  0.00  0.00    +0.183 C 
ATOM     17  O   UNL     1       5.473  -2.473   3.730  0.00  0.00    -0.288 OA
ATOM     18  C   UNL     1       7.948  -5.086   0.453  0.00  0.00    +0.040 C 
ENDROOT
BRANCH   7  19
ATOM     19  O   UNL     1       2.429  -2.811  -0.037  0.00  0.00    -0.457 OA
BRANCH  19  20
ATOM     20  C   UNL     1       1.250  -2.159  -0.022  0.00  0.00    +0.339 C 
ATOM     21  O   UNL     1       0.210  -2.787  -0.016  0.00  0.00    -0.245 OA
BRANCH  20  22
ATOM     22  C   UNL     1       1.222  -0.682  -0.013  0.00  0.00    +0.059 A 
ATOM     23  C   UNL     1       0.002  -0.004   0.002  0.00  0.00    +0.015 A 
ATOM     24  C   UNL     1      -0.017   1.375   0.010  0.00  0.00    +0.001 A 
ATOM     25  C   UNL     1       1.170   2.086   0.002  0.00  0.00    +0.000 A 
ATOM     26  C   UNL     1       2.383   1.421  -0.013  0.00  0.00    +0.001 A 
ATOM     27  C   UNL     1       2.416   0.042  -0.021  0.00  0.00    +0.015 A 
ENDBRANCH  20  22
ENDBRANCH  19  20
ENDBRANCH   7  19
BRANCH   9  28
ATOM     28  O   UNL     1       2.890  -3.298  -2.592  0.00  0.00    -0.446 OA
BRANCH  28  29
ATOM     29  C   UNL     1       2.833  -2.935  -3.883  0.00  0.00    +0.305 C 
ATOM     30  O   UNL     1       3.364  -3.618  -4.726  0.00  0.00    -0.251 OA
ATOM     31  C   UNL     1       2.106  -1.676  -4.281  0.00  0.00    +0.136 C 
ENDBRANCH  28  29
ENDBRANCH   9  28
TORSDOF 5
