REMARK  Name = ZINC62244728
REMARK  5 active torsions:
REMARK  status: ('A' for Active; 'I' for Inactive)
REMARK    1  A    between atoms: C_2  and  C_3
REMARK    2  A    between atoms: C_3  and  N_4
REMARK    3  A    between atoms: C_6  and  C_13
REMARK    4  A    between atoms: N_18  and  C_21
REMARK    5  A    between atoms: C_21  and  C_22
REMARK                            x       y       z     vdW  Elec       q    Type
REMARK                         _______ _______ _______ _____ _____    ______ ____
ROOT
ATOM      1  C   UNL     1      -2.203  -2.615  -4.545  0.00  0.00    +0.249 C 
ATOM      2  O   UNL     1      -1.899  -2.558  -3.368  0.00  0.00    -0.270 OA
ATOM      3  N   UNL     1      -2.772  -1.552  -5.146  0.00  0.00    -0.295 N 
ATOM      4  C   UNL     1      -2.925  -0.274  -4.435  0.00  0.00    +0.123 C 
ATOM      5  C   UNL     1      -4.382   0.182  -4.559  0.00  0.00    +0.104 C 
ATOM      6  N   UNL     1      -4.764   0.211  -5.978  0.00  0.00    -0.294 NA
ATOM      7  C   UNL     1      -4.704  -1.130  -6.573  0.00  0.00    +0.104 C 
ATOM      8  C   UNL     1      -3.253  -1.638  -6.534  0.00  0.00    +0.123 C 
ENDROOT
BRANCH   1  11
ATOM      9  N   UNL     1      -1.403  -5.226  -6.964  0.00  0.00    -0.342 N 
ATOM     10  C   UNL     1      -1.527  -3.926  -6.604  0.00  0.00    +0.100 A 
ATOM     11  C   UNL     1      -1.948  -3.843  -5.310  0.00  0.00    +0.062 A 
ATOM     12  C   UNL     1      -2.096  -5.229  -4.830  0.00  0.00    +0.012 A 
ATOM     13  C   UNL     1      -1.746  -6.051  -5.913  0.00  0.00    +0.050 A 
ATOM     14  C   UNL     1      -1.794  -7.433  -5.764  0.00  0.00    +0.026 A 
ATOM     15  C   UNL     1      -2.185  -7.982  -4.562  0.00  0.00    +0.002 A 
ATOM     16  C   UNL     1      -2.534  -7.168  -3.494  0.00  0.00    +0.001 A 
ATOM     17  C   UNL     1      -2.486  -5.797  -3.619  0.00  0.00    +0.011 A 
BRANCH   9  18
ATOM     18  C   UNL     1      -0.972  -5.690  -8.285  0.00  0.00    +0.148 C 
BRANCH  18  20
ATOM     19  C   UNL     1      -2.307  -5.386 -10.307  0.00  0.00    +0.005 C 
ATOM     20  C   UNL     1      -2.183  -5.967  -9.139  0.00  0.00    -0.013 C 
ENDBRANCH  18  20
ENDBRANCH   9  18
ENDBRANCH   1  11
BRANCH   6  21
ATOM     21  C   UNL     1      -6.096   0.806  -6.152  0.00  0.00    +0.139 C 
BRANCH  21  22
ATOM     22  C   UNL     1      -6.350   1.044  -7.618  0.00  0.00    +0.048 A 
ATOM     23  C   UNL     1      -6.130   2.203  -8.278  0.00  0.00    +0.115 A 
ATOM     24  N   UNL     1      -6.489   1.999  -9.583  0.00  0.00    -0.308 N 
ATOM     25  C   UNL     1      -6.477   2.810 -10.681  0.00  0.00    +0.092 A 
ATOM     26  C   UNL     1      -6.893   2.350 -11.879  0.00  0.00    +0.018 A 
ATOM     27  C   UNL     1      -7.346   1.027 -12.012  0.00  0.00    +0.005 A 
ATOM     28  C   UNL     1      -7.362   0.208 -10.926  0.00  0.00    +0.045 A 
ATOM     29  C   UNL     1      -6.924   0.703  -9.681  0.00  0.00    +0.115 A 
ATOM     30  N   UNL     1      -6.826   0.145  -8.483  0.00  0.00    -0.342 N 
ATOM     31  H   UNL     1      -7.065  -0.770  -8.268  0.00  0.00    +0.167 HD
ENDBRANCH  21  22
ENDBRANCH   6  21
TORSDOF 5
