REMARK  Name = ZINC43644443
REMARK  2 active torsions:
REMARK  status: ('A' for Active; 'I' for Inactive)
REMARK    1  A    between atoms: N_9  and  C_10
REMARK    2  A    between atoms: C_15  and  C_18
REMARK                            x       y       z     vdW  Elec       q    Type
REMARK                         _______ _______ _______ _____ _____    ______ ____
ROOT
ATOM      1  C   UNL     1      -0.016   1.316   0.009  0.00  0.00    +0.120 A 
ATOM      2  C   UNL     1       1.183   1.949   0.001  0.00  0.00    +0.068 A 
ATOM      3  S   UNL     1       2.296   0.553  -0.017  0.00  0.00    -0.060 S 
ATOM      4  C   UNL     1       1.137  -0.668  -0.012  0.00  0.00    +0.165 A 
ATOM      5  N   UNL     1       0.002  -0.004   0.002  0.00  0.00    -0.233 NA
ATOM      6  N   UNL     1       1.333  -2.045  -0.022  0.00  0.00    -0.248 N 
ATOM      7  C   UNL     1       0.272  -2.876  -0.016  0.00  0.00    +0.306 C 
ATOM      8  O   UNL     1      -0.856  -2.422  -0.003  0.00  0.00    -0.252 OA
ATOM      9  N   UNL     1       0.462  -4.210  -0.026  0.00  0.00    -0.296 N 
ATOM     10  H   UNL     1       2.233  -2.406  -0.033  0.00  0.00    +0.158 HD
ATOM     11  H   UNL     1       1.361  -4.572  -0.036  0.00  0.00    +0.151 HD
ENDROOT
BRANCH   9  12
ATOM     12  C   UNL     1      -0.691  -5.114  -0.019  0.00  0.00    +0.075 C 
ATOM     13  C   UNL     1      -1.184  -5.322  -1.453  0.00  0.00    +0.022 C 
ATOM     14  C   UNL     1      -0.062  -5.932  -2.295  0.00  0.00    +0.002 C 
ATOM     15  C   UNL     1       0.349  -7.279  -1.697  0.00  0.00    +0.012 C 
ATOM     16  C   UNL     1       0.842  -7.072  -0.263  0.00  0.00    +0.095 C 
ATOM     17  C   UNL     1      -0.280  -6.461   0.579  0.00  0.00    +0.034 C 
BRANCH  16  18
ATOM     18  C   UNL     1       1.253  -8.419   0.335  0.00  0.00    +0.393 C 
ATOM     19  F   UNL     1       2.279  -8.977  -0.435  0.00  0.00    -0.170 F 
ATOM     20  F   UNL     1       1.704  -8.229   1.645  0.00  0.00    -0.170 F 
ATOM     21  F   UNL     1       0.151  -9.282   0.341  0.00  0.00    -0.170 F 
ENDBRANCH  16  18
ENDBRANCH   9  12
TORSDOF 2
