REMARK  Name = ZINC20624244
REMARK  10 active torsions:
REMARK  status: ('A' for Active; 'I' for Inactive)
REMARK    1  A    between atoms: C_1  and  C_2
REMARK    2  A    between atoms: C_2  and  C_3
REMARK    3  A    between atoms: C_3  and  C_5
REMARK    4  A    between atoms: C_3  and  C_6
REMARK    5  A    between atoms: C_6  and  C_8
REMARK    6  A    between atoms: C_6  and  N_17
REMARK    7  A    between atoms: N_13  and  C_16
REMARK    8  A    between atoms: C_18  and  C_20
REMARK    9  A    between atoms: N_22  and  C_34
REMARK   10  A    between atoms: C_34  and  C_35
REMARK                            x       y       z     vdW  Elec       q    Type
REMARK                         _______ _______ _______ _____ _____    ______ ____
ROOT
ATOM      1  N   UNL     1      -6.319   2.122  -0.186  0.00  0.00    -0.300 N 
ATOM      2  C   UNL     1      -5.105   1.539  -0.239  0.00  0.00    +0.250 C 
ATOM      3  O   UNL     1      -5.003   0.334  -0.115  0.00  0.00    -0.270 OA
ATOM      4  H   UNL     1      -6.411   3.212  -0.299  0.00  0.00    +0.150 HD
ENDROOT
BRANCH   2   5
ATOM      5  C   UNL     1      -3.903   2.362  -0.448  0.00  0.00    +0.100 A 
ATOM      6  C   UNL     1      -4.005   3.729  -0.591  0.00  0.00    +0.103 A 
ATOM      7  N   UNL     1      -2.932   4.511  -0.772  0.00  0.00    -0.346 N 
ATOM      8  C   UNL     1      -1.649   4.011  -0.847  0.00  0.00    +0.056 A 
ATOM      9  C   UNL     1      -0.571   4.865  -1.055  0.00  0.00    +0.076 A 
ATOM     10  C   UNL     1       0.713   4.357  -1.129  0.00  0.00    +0.168 A 
ATOM     11  C   UNL     1       0.940   2.982  -0.997  0.00  0.00    +0.167 A 
ATOM     12  C   UNL     1      -0.118   2.123  -0.790  0.00  0.00    +0.063 A 
ATOM     13  C   UNL     1      -1.418   2.629  -0.720  0.00  0.00    +0.050 A 
ATOM     14  C   UNL     1      -2.571   1.738  -0.508  0.00  0.00    +0.202 A 
ATOM     15  O   UNL     1      -2.428   0.533  -0.387  0.00  0.00    -0.286 OA
ATOM     16  O   UNL     1       2.281   2.750  -1.109  0.00  0.00    -0.453 OA
ATOM     17  C   UNL     1       2.825   3.936  -1.718  0.00  0.00    +0.466 C 
ATOM     18  O   UNL     1       1.913   4.976  -1.323  0.00  0.00    -0.453 OA
BRANCH   7  19
ATOM     19  C   UNL     1      -3.132   5.955  -0.913  0.00  0.00    +0.118 C 
ATOM     20  C   UNL     1      -3.222   6.315  -2.398  0.00  0.00    +0.027 C 
ENDBRANCH   7  19
ENDBRANCH   2   5
BRANCH   1  21
ATOM     21  C   UNL     1      -7.516   1.303   0.021  0.00  0.00    +0.162 C 
BRANCH  21  22
ATOM     22  C   UNL     1      -8.716   2.015  -0.548  0.00  0.00    +0.236 C 
ATOM     23  O   UNL     1      -8.641   3.188  -0.844  0.00  0.00    -0.274 OA
ATOM     24  N   UNL     1      -9.872   1.346  -0.729  0.00  0.00    -0.298 N 
ATOM     25  C   UNL     1     -11.020   1.988  -1.387  0.00  0.00    +0.123 C 
ATOM     26  C   UNL     1     -11.511   1.062  -2.511  0.00  0.00    +0.103 C 
ATOM     27  N   UNL     1     -11.780  -0.272  -1.958  0.00  0.00    -0.302 NA
ATOM     28  C   UNL     1     -10.554  -0.887  -1.431  0.00  0.00    +0.103 C 
ATOM     29  C   UNL     1     -10.022  -0.042  -0.268  0.00  0.00    +0.123 C 
ATOM     30  C   UNL     1     -12.416  -1.139  -2.958  0.00  0.00    +0.105 C 
ENDBRANCH  21  22
BRANCH  21  31
ATOM     31  C   UNL     1      -7.723   1.074   1.520  0.00  0.00    +0.015 C 
ATOM     32  C   UNL     1      -6.576   0.223   2.069  0.00  0.00    +0.010 C 
BRANCH  31  34
ATOM     33  C   UNL     1      -8.080   2.201   3.721  0.00  0.00    +0.004 C 
ATOM     34  C   UNL     1      -7.749   2.421   2.243  0.00  0.00    +0.002 C 
ENDBRANCH  31  34
ENDBRANCH  21  31
ENDBRANCH   1  21
TORSDOF 6
