REMARK  Name = ZINC58160154
REMARK  3 active torsions:
REMARK  status: ('A' for Active; 'I' for Inactive)
REMARK    1  A    between atoms: C_4  and  C_7
REMARK    2  A    between atoms: N_17  and  C_18
REMARK    3  A    between atoms: C_18  and  C_19
REMARK                            x       y       z     vdW  Elec       q    Type
REMARK                         _______ _______ _______ _____ _____    ______ ____
ROOT
ATOM      1  C   UNL     1       3.724  -0.712  -0.043  0.00  0.00    +0.194 C 
ATOM      2  C   UNL     1       3.968  -1.283  -1.413  0.00  0.00    +0.238 C 
ATOM      3  O   UNL     1       4.273  -0.526  -2.310  0.00  0.00    -0.273 OA
ATOM      4  N   UNL     1       3.864  -2.584  -1.688  0.00  0.00    -0.312 N 
ATOM      5  C   UNL     1       3.595  -3.619  -0.699  0.00  0.00    +0.123 C 
ATOM      6  C   UNL     1       2.927  -3.023   0.542  0.00  0.00    +0.129 C 
ATOM      7  N   UNL     1       3.674  -1.812   0.932  0.00  0.00    -0.269 N 
ATOM      8  C   UNL     1       4.286  -1.716   2.128  0.00  0.00    +0.303 C 
ATOM      9  O   UNL     1       4.312  -2.675   2.876  0.00  0.00    -0.253 OA
ATOM     10  N   UNL     1       4.870  -0.559   2.496  0.00  0.00    -0.295 N 
ATOM     11  H   UNL     1       3.975  -2.861  -2.611  0.00  0.00    +0.149 HD
ATOM     12  H   UNL     1       4.785   0.227   1.934  0.00  0.00    +0.151 HD
ENDROOT
BRANCH   1  16
ATOM     13  C   UNL     1       0.009   1.396  -0.015  0.00  0.00    +0.000 A 
ATOM     14  C   UNL     1       1.168   2.034   0.384  0.00  0.00    +0.000 A 
ATOM     15  C   UNL     1       2.370   1.351   0.375  0.00  0.00    +0.006 A 
ATOM     16  C   UNL     1       2.413   0.031  -0.033  0.00  0.00    -0.018 A 
ATOM     17  C   UNL     1       1.253  -0.607  -0.431  0.00  0.00    +0.006 A 
ATOM     18  C   UNL     1       0.051   0.076  -0.423  0.00  0.00    +0.000 A 
ENDBRANCH   1  16
BRANCH  10  19
ATOM     19  C   UNL     1       5.633  -0.487   3.745  0.00  0.00    +0.144 C 
BRANCH  19  20
ATOM     20  C   UNL     1       6.178   0.907   3.922  0.00  0.00    +0.005 A 
ATOM     21  C   UNL     1       7.493   1.181   3.597  0.00  0.00    +0.008 A 
ATOM     22  C   UNL     1       7.993   2.459   3.759  0.00  0.00    +0.000 A 
ATOM     23  C   UNL     1       7.179   3.465   4.246  0.00  0.00    +0.003 A 
ATOM     24  C   UNL     1       5.863   3.193   4.571  0.00  0.00    +0.038 A 
ATOM     25  C   UNL     1       5.360   1.914   4.404  0.00  0.00    +0.128 A 
ATOM     26  F   UNL     1       4.073   1.648   4.717  0.00  0.00    -0.205 F 
ENDBRANCH  19  20
ENDBRANCH  10  19
TORSDOF 3
