REMARK  Name = ZINC67211570
REMARK  8 active torsions:
REMARK  status: ('A' for Active; 'I' for Inactive)
REMARK    1  A    between atoms: C_1  and  C_2
REMARK    2  A    between atoms: C_2  and  C_3
REMARK    3  A    between atoms: C_2  and  C_4
REMARK    4  A    between atoms: C_2  and  O_5
REMARK    5  A    between atoms: O_5  and  C_6
REMARK    6  A    between atoms: C_11  and  C_14
REMARK    7  A    between atoms: C_14  and  C_15
REMARK    8  A    between atoms: N_17  and  C_18
REMARK                            x       y       z     vdW  Elec       q    Type
REMARK                         _______ _______ _______ _____ _____    ______ ____
ROOT
ATOM      1  C   UNL     1       5.169  -3.373  -4.249  0.00  0.00    +0.099 C 
ENDROOT
BRANCH   1   7
ATOM      2  C   UNL     1       1.983  -0.079  -1.297  0.00  0.00    +0.403 C 
ATOM      3  O   UNL     1       2.525   0.626  -0.469  0.00  0.00    -0.226 OA
ATOM      4  N   UNL     1       2.663  -0.481  -2.389  0.00  0.00    -0.267 N 
ATOM      5  C   UNL     1       2.018  -1.328  -3.402  0.00  0.00    +0.111 C 
ATOM      6  C   UNL     1       2.885  -2.570  -3.630  0.00  0.00    +0.023 C 
ATOM      7  C   UNL     1       4.309  -2.135  -3.987  0.00  0.00    +0.001 C 
ATOM      8  C   UNL     1       4.906  -1.335  -2.827  0.00  0.00    +0.023 C 
ATOM      9  C   UNL     1       4.060  -0.075  -2.593  0.00  0.00    +0.111 C 
BRANCH   2  10
ATOM     10  O   UNL     1       0.703  -0.459  -1.123  0.00  0.00    -0.445 OA
BRANCH  10  12
ATOM     11  C   UNL     1       0.023   1.534   0.064  0.00  0.00    +0.055 C 
ATOM     12  C   UNL     1       0.044   0.004   0.057  0.00  0.00    +0.107 C 
ATOM     13  C   UNL     1       0.793  -0.502   1.291  0.00  0.00    +0.055 C 
ATOM     14  C   UNL     1      -1.392  -0.525   0.080  0.00  0.00    +0.055 C 
ENDBRANCH  10  12
ENDBRANCH   2  10
ENDBRANCH   1   7
BRANCH   1  15
ATOM     15  C   UNL     1       6.535  -2.945  -4.720  0.00  0.00    +0.218 C 
ATOM     16  O   UNL     1       6.795  -1.765  -4.834  0.00  0.00    -0.275 OA
ATOM     17  N   UNL     1       7.468  -3.872  -5.013  0.00  0.00    -0.282 N 
ATOM     18  H   UNL     1       7.283  -4.811  -4.861  0.00  0.00    +0.155 HD
BRANCH  17  19
ATOM     19  C   UNL     1       8.706  -3.478  -5.540  0.00  0.00    +0.079 A 
ATOM     20  C   UNL     1       9.285  -2.284  -5.133  0.00  0.00    +0.027 A 
ATOM     21  C   UNL     1      10.505  -1.896  -5.652  0.00  0.00    +0.006 A 
ATOM     22  C   UNL     1      11.152  -2.693  -6.578  0.00  0.00    +0.049 A 
ATOM     23  C   UNL     1      10.579  -3.888  -6.991  0.00  0.00    +0.164 A 
ATOM     24  C   UNL     1       9.358  -4.287  -6.466  0.00  0.00    +0.183 A 
ATOM     25  O   UNL     1       8.785  -5.462  -6.848  0.00  0.00    -0.483 OA
ATOM     26  C   UNL     1       9.284  -6.061  -8.049  0.00  0.00    +0.270 C 
ATOM     27  C   UNL     1      10.818  -6.029  -8.000  0.00  0.00    +0.270 C 
ATOM     28  O   UNL     1      11.229  -4.657  -7.908  0.00  0.00    -0.485 OA
ENDBRANCH  17  19
ENDBRANCH   1  15
TORSDOF 5
