REMARK  Name = ZINC41668599
REMARK  8 active torsions:
REMARK  status: ('A' for Active; 'I' for Inactive)
REMARK    1  A    between atoms: C_1  and  C_2
REMARK    2  A    between atoms: C_5  and  C_24
REMARK    3  A    between atoms: N_13  and  C_21
REMARK    4  A    between atoms: N_16  and  C_18
REMARK    5  A    between atoms: C_18  and  C_19
REMARK    6  A    between atoms: C_18  and  C_20
REMARK    7  A    between atoms: C_21  and  C_22
REMARK    8  A    between atoms: C_21  and  C_23
REMARK                            x       y       z     vdW  Elec       q    Type
REMARK                         _______ _______ _______ _____ _____    ______ ____
ROOT
ATOM      1  C   UNL     1      -0.147   1.268  -0.496  0.00  0.00    +0.009 C 
ATOM      2  C   UNL     1      -0.137  -0.240  -0.239  0.00  0.00    +0.004 C 
ATOM      3  C   UNL     1      -1.564  -0.721   0.036  0.00  0.00    +0.009 C 
ATOM      4  C   UNL     1      -1.559  -2.235   0.261  0.00  0.00    +0.004 C 
ATOM      5  C   UNL     1      -0.695  -2.562   1.482  0.00  0.00    +0.110 C 
ATOM      6  N   UNL     1       0.639  -1.977   1.288  0.00  0.00    -0.309 N 
ATOM      7  C   UNL     1       0.744  -0.545   0.976  0.00  0.00    +0.110 C 
ATOM      8  C   UNL     1       1.784  -2.766   1.399  0.00  0.00    +0.207 A 
ATOM      9  C   UNL     1       3.122  -2.151   1.368  0.00  0.00    +0.297 A 
ATOM     10  O   UNL     1       3.244  -0.947   1.246  0.00  0.00    -0.264 OA
ATOM     11  N   UNL     1       4.210  -2.942   1.478  0.00  0.00    -0.254 N 
ATOM     12  C   UNL     1       4.065  -4.274   1.612  0.00  0.00    +0.349 A 
ATOM     13  O   UNL     1       5.053  -4.975   1.710  0.00  0.00    -0.245 OA
ATOM     14  N   UNL     1       2.846  -4.841   1.641  0.00  0.00    -0.210 N 
ATOM     15  N   UNL     1       1.687  -4.063   1.536  0.00  0.00    -0.146 NA
ATOM     16  C   UNL     1      -2.990  -2.719   0.503  0.00  0.00    +0.009 C 
ENDROOT
BRANCH  14  17
ATOM     17  C   UNL     1       2.730  -6.294   1.789  0.00  0.00    +0.106 C 
ATOM     18  C   UNL     1       1.940  -6.615   3.059  0.00  0.00    +0.032 C 
ATOM     19  C   UNL     1       2.001  -6.873   0.575  0.00  0.00    +0.032 C 
ENDBRANCH  14  17
BRANCH  11  20
ATOM     20  C   UNL     1       5.550  -2.351   1.450  0.00  0.00    +0.089 C 
ATOM     21  C   UNL     1       5.757  -1.619   0.122  0.00  0.00    +0.031 C 
ATOM     22  C   UNL     1       5.694  -1.360   2.607  0.00  0.00    +0.031 C 
ENDBRANCH  11  20
TORSDOF 2
