REMARK  Name = ZINC19420865
REMARK  6 active torsions:
REMARK  status: ('A' for Active; 'I' for Inactive)
REMARK    1  A    between atoms: C_1  and  C_2
REMARK    2  A    between atoms: C_5  and  N_8
REMARK    3  A    between atoms: C_12  and  S_13
REMARK    4  A    between atoms: S_13  and  C_14
REMARK    5  A    between atoms: C_14  and  C_16
REMARK    6  A    between atoms: C_14  and  C_17
REMARK                            x       y       z     vdW  Elec       q    Type
REMARK                         _______ _______ _______ _____ _____    ______ ____
ROOT
ATOM      1  N   UNL     1      -1.060  -5.353   1.632  0.00  0.00    -0.259 N 
ATOM      2  C   UNL     1      -0.573  -6.617   1.441  0.00  0.00    +0.225 A 
ATOM      3  N   UNL     1       0.488  -6.531   0.677  0.00  0.00    -0.112 NA
ATOM      4  N   UNL     1       0.688  -5.181   0.362  0.00  0.00    -0.120 NA
ATOM      5  C   UNL     1      -0.257  -4.484   0.944  0.00  0.00    +0.198 A 
ATOM      6  N   UNL     1      -1.107  -7.786   1.969  0.00  0.00    -0.299 N 
ATOM      7  C   UNL     1      -0.130  -8.471   2.825  0.00  0.00    +0.108 C 
ATOM      8  C   UNL     1      -0.795  -9.671   3.502  0.00  0.00    +0.019 C 
ATOM      9  C   UNL     1      -1.323 -10.629   2.430  0.00  0.00    +0.003 C 
ATOM     10  C   UNL     1      -2.301  -9.878   1.523  0.00  0.00    +0.019 C 
ATOM     11  C   UNL     1      -1.592  -8.672   0.903  0.00  0.00    +0.108 C 
ENDROOT
BRANCH   1  16
ATOM     12  C   UNL     1      -5.615  -3.960   4.720  0.00  0.00    +0.044 C 
ATOM     13  C   UNL     1      -4.406  -4.330   3.901  0.00  0.00    -0.050 A 
ATOM     14  C   UNL     1      -4.423  -4.157   2.529  0.00  0.00    +0.005 A 
ATOM     15  C   UNL     1      -3.316  -4.494   1.775  0.00  0.00    +0.026 A 
ATOM     16  C   UNL     1      -2.186  -5.008   2.395  0.00  0.00    +0.052 A 
ATOM     17  C   UNL     1      -2.173  -5.186   3.772  0.00  0.00    +0.026 A 
ATOM     18  C   UNL     1      -3.281  -4.842   4.521  0.00  0.00    +0.005 A 
ENDBRANCH   1  16
BRANCH   5  19
ATOM     19  S   UNL     1      -0.454  -2.735   0.862  0.00  0.00    -0.075 S 
BRANCH  19  20
ATOM     20  C   UNL     1       0.922  -2.187  -0.186  0.00  0.00    +0.117 C 
ATOM     21  C   UNL     1       0.742  -2.745  -1.598  0.00  0.00    +0.027 C 
BRANCH  20  22
ATOM     22  C   UNL     1       0.944  -0.681  -0.240  0.00  0.00    +0.125 A 
ATOM     23  N   UNL     1       2.148  -0.055  -0.301  0.00  0.00    -0.194 NA
ATOM     24  C   UNL     1       2.222   1.295  -0.352  0.00  0.00    +0.281 A 
ATOM     25  O   UNL     1       3.294   1.869  -0.407  0.00  0.00    -0.265 OA
ATOM     26  C   UNL     1       0.955   2.043  -0.337  0.00  0.00    +0.065 A 
ATOM     27  C   UNL     1       0.921   3.435  -0.385  0.00  0.00    +0.015 A 
ATOM     28  C   UNL     1      -0.294   4.085  -0.367  0.00  0.00    +0.001 A 
ATOM     29  C   UNL     1      -1.480   3.364  -0.303  0.00  0.00    +0.002 A 
ATOM     30  C   UNL     1      -1.467   1.988  -0.249  0.00  0.00    +0.026 A 
ATOM     31  C   UNL     1      -0.248   1.307  -0.271  0.00  0.00    +0.053 A 
ATOM     32  N   UNL     1      -0.190  -0.048  -0.225  0.00  0.00    -0.342 N 
ATOM     33  H   UNL     1      -1.133  -0.611  -0.173  0.00  0.00    +0.167 HD
ENDBRANCH  20  22
ENDBRANCH  19  20
ENDBRANCH   5  19
TORSDOF 4
