REMARK  Name = ZINC23016922
REMARK  5 active torsions:
REMARK  status: ('A' for Active; 'I' for Inactive)
REMARK    1  A    between atoms: C_8  and  C_12
REMARK    2  A    between atoms: N_14  and  C_15
REMARK    3  A    between atoms: C_15  and  C_16
REMARK    4  A    between atoms: N_19  and  C_22
REMARK    5  A    between atoms: C_22  and  C_23
REMARK                            x       y       z     vdW  Elec       q    Type
REMARK                         _______ _______ _______ _____ _____    ______ ____
ROOT
ATOM      1  C   UNL     1       5.029  -0.290   3.613  0.00  0.00    +0.251 C 
ATOM      2  O   UNL     1       4.592  -0.906   4.566  0.00  0.00    -0.270 OA
ATOM      3  N   UNL     1       4.223   0.003   2.573  0.00  0.00    -0.311 N 
ATOM      4  H   UNL     1       4.618   0.561   1.711  0.00  0.00    +0.149 HD
ENDROOT
BRANCH   1  12
ATOM      5  C   UNL     1      10.174   2.312   1.494  0.00  0.00    +0.001 A 
ATOM      6  C   UNL     1      10.972   1.990   2.583  0.00  0.00    +0.004 A 
ATOM      7  C   UNL     1      10.453   1.290   3.652  0.00  0.00    +0.047 A 
ATOM      8  C   UNL     1       9.118   0.900   3.645  0.00  0.00    +0.139 A 
ATOM      9  C   UNL     1       8.311   1.228   2.540  0.00  0.00    +0.018 A 
ATOM     10  C   UNL     1       8.861   1.940   1.464  0.00  0.00    +0.011 A 
ATOM     11  C   UNL     1       6.950   0.833   2.514  0.00  0.00    +0.031 A 
ATOM     12  C   UNL     1       6.438   0.136   3.595  0.00  0.00    +0.122 A 
ATOM     13  C   UNL     1       7.327  -0.176   4.719  0.00  0.00    +0.350 A 
ATOM     14  O   UNL     1       6.900  -0.792   5.678  0.00  0.00    -0.244 OA
ATOM     15  O   UNL     1       8.612   0.216   4.693  0.00  0.00    -0.422 OA
ENDBRANCH   1  12
BRANCH   3  16
ATOM     16  C   UNL     1       2.820  -0.420   2.591  0.00  0.00    +0.108 C 
BRANCH  16  17
ATOM     17  C   UNL     1       2.133   0.035   1.302  0.00  0.00    +0.003 C 
ATOM     18  C   UNL     1       0.704  -0.513   1.263  0.00  0.00    -0.014 C 
ATOM     19  C   UNL     1       0.002  -0.004   0.002  0.00  0.00    -0.078 C 
ATOM     20  N   UNL     1      -0.018   1.464   0.010  0.00  0.00    +0.383 N 
ATOM     21  C   UNL     1       1.344   2.014   0.000  0.00  0.00    -0.078 C 
ATOM     22  C   UNL     1       2.086   1.565   1.261  0.00  0.00    -0.014 C 
ATOM     23  H   UNL     1      -0.503   1.788   0.943  0.00  0.00    -0.081 HD
BRANCH  20  24
ATOM     24  C   UNL     1      -0.804   1.986  -1.115  0.00  0.00    -0.036 C 
BRANCH  24  25
ATOM     25  C   UNL     1      -1.009   3.469  -0.940  0.00  0.00    -0.027 A 
ATOM     26  C   UNL     1      -0.234   4.494  -1.371  0.00  0.00    +0.009 A 
ATOM     27  C   UNL     1      -0.625   5.791  -1.095  0.00  0.00    +0.008 A 
ATOM     28  C   UNL     1      -1.765   5.999  -0.393  0.00  0.00    +0.045 A 
ATOM     29  S   UNL     1      -2.331   4.331  -0.105  0.00  0.00    -0.103 S 
ENDBRANCH  24  25
ENDBRANCH  20  24
ENDBRANCH  16  17
ENDBRANCH   3  16
TORSDOF 5
