REMARK  Name = ZINC09367796
REMARK  12 active torsions:
REMARK  status: ('A' for Active; 'I' for Inactive)
REMARK    1  A    between atoms: C_1  and  C_2
REMARK    2  A    between atoms: C_7  and  C_33
REMARK    3  A    between atoms: C_10  and  C_12
REMARK    4  A    between atoms: C_12  and  C_14
REMARK    5  A    between atoms: C_12  and  S_15
REMARK    6  A    between atoms: S_15  and  C_16
REMARK    7  A    between atoms: C_19  and  C_28
REMARK    8  A    between atoms: N_20  and  C_21
REMARK    9  A    between atoms: C_28  and  C_30
REMARK   10  A    between atoms: C_28  and  N_62
REMARK   11  A    between atoms: C_31  and  N_62
REMARK   12  A    between atoms: C_32  and  N_62
REMARK                            x       y       z     vdW  Elec       q    Type
REMARK                         _______ _______ _______ _____ _____    ______ ____
ROOT
ATOM      1  C   UNL     1       3.889   2.131  -0.872  0.00  0.00    +0.197 A 
ATOM      2  N   UNL     1       3.846   3.380  -0.469  0.00  0.00    -0.122 NA
ATOM      3  N   UNL     1       4.986   3.941  -0.660  0.00  0.00    -0.135 NA
ATOM      4  C   UNL     1       5.817   3.095  -1.200  0.00  0.00    +0.125 A 
ATOM      5  N   UNL     1       5.149   1.910  -1.355  0.00  0.00    -0.275 N 
ENDROOT
BRANCH   5   6
ATOM      6  C   UNL     1       5.652   0.717  -1.897  0.00  0.00    +0.050 A 
ATOM      7  C   UNL     1       6.679   0.041  -1.253  0.00  0.00    +0.029 A 
ATOM      8  C   UNL     1       7.170  -1.135  -1.785  0.00  0.00    +0.040 A 
ATOM      9  C   UNL     1       6.645  -1.635  -2.965  0.00  0.00    +0.124 A 
ATOM     10  C   UNL     1       5.624  -0.959  -3.612  0.00  0.00    +0.040 A 
ATOM     11  C   UNL     1       5.128   0.216  -3.080  0.00  0.00    +0.029 A 
ATOM     12  F   UNL     1       7.130  -2.783  -3.486  0.00  0.00    -0.205 F 
ENDBRANCH   5   6
BRANCH   4  13
ATOM     13  C   UNL     1       7.249   3.371  -1.583  0.00  0.00    -0.003 C 
ATOM     14  C   UNL     1       7.282   4.216  -2.858  0.00  0.00    -0.005 C 
BRANCH  13  17
ATOM     15  C   UNL     1       9.344   4.281  -0.782  0.00  0.00    -0.096 C 
ATOM     16  C   UNL     1       7.259   5.390  -0.247  0.00  0.00    -0.096 C 
ATOM     17  N   UNL     1       7.913   4.083  -0.471  0.00  0.00    +0.382 N 
ATOM     18  H   UNL     1       7.832   3.518   0.382  0.00  0.00    -0.082 HD
ENDBRANCH  13  17
ENDBRANCH   4  13
BRANCH   1  19
ATOM     19  S   UNL     1       2.571   0.964  -0.809  0.00  0.00    -0.073 S 
BRANCH  19  20
ATOM     20  C   UNL     1       1.279   1.988  -0.062  0.00  0.00    +0.137 C 
ATOM     21  C   UNL     1       1.692   2.371   1.361  0.00  0.00    +0.029 C 
BRANCH  20  29
ATOM     22  C   UNL     1      -1.864   3.719   1.462  0.00  0.00    +0.028 C 
ATOM     23  C   UNL     1      -1.231   3.333   0.124  0.00  0.00    +0.073 C 
ATOM     24  C   UNL     1      -2.073   3.897  -1.031  0.00  0.00    +0.022 C 
ATOM     25  C   UNL     1      -3.450   3.228  -1.024  0.00  0.00    +0.004 C 
ATOM     26  C   UNL     1      -3.288   1.721  -1.237  0.00  0.00    +0.022 C 
ATOM     27  C   UNL     1      -2.459   1.133  -0.090  0.00  0.00    +0.073 C 
ATOM     28  N   UNL     1      -1.191   1.869   0.002  0.00  0.00    -0.295 N 
ATOM     29  C   UNL     1      -0.014   1.214  -0.019  0.00  0.00    +0.229 C 
ATOM     30  O   UNL     1       0.006   0.001  -0.008  0.00  0.00    -0.274 OA
ATOM     31  C   UNL     1      -2.176  -0.344  -0.367  0.00  0.00    +0.028 C 
ENDBRANCH  20  29
ENDBRANCH  19  20
ENDBRANCH   1  19
TORSDOF 6
