REMARK  Name = ZINC38796804
REMARK  5 active torsions:
REMARK  status: ('A' for Active; 'I' for Inactive)
REMARK    1  A    between atoms: C_1  and  C_2
REMARK    2  A    between atoms: C_2  and  C_4
REMARK    3  A    between atoms: C_2  and  N_17
REMARK    4  A    between atoms: N_20  and  S_23
REMARK    5  A    between atoms: S_23  and  C_26
REMARK                            x       y       z     vdW  Elec       q    Type
REMARK                         _______ _______ _______ _____ _____    ______ ____
ROOT
ATOM      1  C   UNL     1       0.268   1.464  -0.050  0.00  0.00    +0.034 C 
ATOM      2  C   UNL     1       0.375  -0.062  -0.015  0.00  0.00    +0.140 C 
ENDROOT
BRANCH   2   3
ATOM      3  C   UNL     1       0.933  -0.496   1.316  0.00  0.00    +0.234 C 
ATOM      4  O   UNL     1       1.971  -1.122   1.363  0.00  0.00    -0.274 OA
ATOM      5  N   UNL     1       0.278  -0.191   2.453  0.00  0.00    -0.284 N 
ATOM      6  C   UNL     1      -0.074  -1.148   3.289  0.00  0.00    +0.036 C 
ATOM      7  C   UNL     1       0.136  -2.554   2.925  0.00  0.00    +0.025 C 
ATOM      8  C   UNL     1      -0.221  -3.538   3.774  0.00  0.00    +0.032 C 
ATOM      9  C   UNL     1      -0.822  -3.208   5.070  0.00  0.00    +0.095 C 
ATOM     10  N   UNL     1      -1.264  -3.922   6.088  0.00  0.00    -0.190 NA
ATOM     11  C   UNL     1      -1.726  -3.096   7.042  0.00  0.00    +0.369 C 
ATOM     12  O   UNL     1      -2.250  -3.510   8.220  0.00  0.00    -0.243 OA
ATOM     13  N   UNL     1      -1.603  -1.837   6.689  0.00  0.00    -0.190 NA
ATOM     14  C   UNL     1      -1.038  -1.798   5.447  0.00  0.00    +0.097 C 
ATOM     15  C   UNL     1      -0.675  -0.804   4.596  0.00  0.00    +0.053 C 
ATOM     16  H   UNL     1       0.065   0.734   2.657  0.00  0.00    +0.155 HD
ENDBRANCH   2   3
BRANCH   2  17
ATOM     17  N   UNL     1       1.267  -0.514  -1.091  0.00  0.00    -0.289 NA
ATOM     18  C   UNL     1       2.607   0.069  -0.945  0.00  0.00    +0.102 C 
ATOM     19  C   UNL     1       3.551  -0.564  -1.972  0.00  0.00    +0.125 C 
ATOM     20  N   UNL     1       2.953  -0.419  -3.308  0.00  0.00    -0.174 NA
ATOM     21  C   UNL     1       1.562  -0.857  -3.498  0.00  0.00    +0.125 C 
ATOM     22  C   UNL     1       0.696  -0.212  -2.410  0.00  0.00    +0.102 C 
BRANCH  20  23
ATOM     23  S   UNL     1       3.823   0.219  -4.564  0.00  0.00    +0.067 S 
ATOM     24  O   UNL     1       2.878   0.735  -5.492  0.00  0.00    -0.152 OA
ATOM     25  O   UNL     1       4.841   1.024  -3.986  0.00  0.00    -0.152 OA
BRANCH  23  26
ATOM     26  C   UNL     1       4.636  -1.121  -5.368  0.00  0.00    +0.143 A 
ATOM     27  C   UNL     1       4.203  -1.889  -6.398  0.00  0.00    +0.036 A 
ATOM     28  C   UNL     1       5.021  -2.897  -6.873  0.00  0.00    +0.010 A 
ATOM     29  C   UNL     1       6.232  -3.088  -6.296  0.00  0.00    +0.047 A 
ATOM     30  S   UNL     1       6.249  -1.815  -5.043  0.00  0.00    -0.077 S 
ENDBRANCH  23  26
ENDBRANCH  20  23
ENDBRANCH   2  17
TORSDOF 4
