REMARK  Name = ZINC16901040
REMARK  5 active torsions:
REMARK  status: ('A' for Active; 'I' for Inactive)
REMARK    1  A    between atoms: C_3  and  C_27
REMARK    2  A    between atoms: C_5  and  N_7
REMARK    3  A    between atoms: C_11  and  N_15
REMARK    4  A    between atoms: N_15  and  C_16
REMARK    5  A    between atoms: C_21  and  C_22
REMARK                            x       y       z     vdW  Elec       q    Type
REMARK                         _______ _______ _______ _____ _____    ______ ____
ROOT
ATOM      1  N   UNL     1       1.224  -2.090  -0.021  0.00  0.00    -0.209 N 
ATOM      2  C   UNL     1       2.352  -2.804  -0.129  0.00  0.00    +0.228 C 
ATOM      3  O   UNL     1       3.468  -2.342  -0.229  0.00  0.00    -0.275 OA
ATOM      4  C   UNL     1       2.011  -4.278  -0.105  0.00  0.00    +0.128 C 
ATOM      5  C   UNL     1       0.476  -4.293   0.037  0.00  0.00    +0.166 C 
ATOM      6  C   UNL     1       0.110  -2.825   0.084  0.00  0.00    +0.247 C 
ATOM      7  O   UNL     1      -1.014  -2.385   0.196  0.00  0.00    -0.273 OA
ENDROOT
BRANCH   1  12
ATOM      8  C   UNL     1       0.835   1.379   1.155  0.00  0.00    +0.003 A 
ATOM      9  C   UNL     1       1.180   2.089   0.023  0.00  0.00    +0.015 A 
ATOM     10  C   UNL     1       1.545   1.410  -1.142  0.00  0.00    +0.065 A 
ATOM     11  C   UNL     1       1.560   0.014  -1.155  0.00  0.00    +0.039 A 
ATOM     12  C   UNL     1       1.212  -0.688  -0.013  0.00  0.00    +0.045 A 
ATOM     13  C   UNL     1       0.850  -0.003   1.141  0.00  0.00    +0.024 A 
BRANCH  10  14
ATOM     14  C   UNL     1       1.914   2.166  -2.355  0.00  0.00    +0.387 C 
ATOM     15  O   UNL     1       1.900   3.389  -2.341  0.00  0.00    -0.241 OA
ATOM     16  O   UNL     1       2.234   1.570  -3.373  0.00  0.00    -0.241 OA
ENDBRANCH  10  14
ENDBRANCH   1  12
BRANCH   5  17
ATOM     17  N   UNL     1       0.079  -4.961   1.278  0.00  0.00    -0.332 N 
ATOM     18  H   UNL     1       0.692  -4.995   2.029  0.00  0.00    +0.147 HD
BRANCH  17  19
ATOM     19  C   UNL     1      -1.184  -5.551   1.382  0.00  0.00    +0.040 A 
ATOM     20  C   UNL     1      -2.062  -5.508   0.306  0.00  0.00    +0.025 A 
ATOM     21  C   UNL     1      -3.309  -6.091   0.410  0.00  0.00    +0.022 A 
ATOM     22  C   UNL     1      -3.685  -6.718   1.586  0.00  0.00    +0.042 A 
ATOM     23  C   UNL     1      -2.813  -6.762   2.659  0.00  0.00    +0.034 A 
ATOM     24  C   UNL     1      -1.562  -6.185   2.558  0.00  0.00    +0.077 A 
ATOM     25 CL   UNL     1      -5.254  -7.450   1.714  0.00  0.00    -0.084 Cl
BRANCH  24  26
ATOM     26  C   UNL     1      -0.610  -6.238   3.725  0.00  0.00    +0.419 C 
ATOM     27  F   UNL     1      -1.212  -6.923   4.786  0.00  0.00    -0.166 F 
ATOM     28  F   UNL     1       0.559  -6.904   3.343  0.00  0.00    -0.166 F 
ATOM     29  F   UNL     1      -0.295  -4.937   4.130  0.00  0.00    -0.166 F 
ENDBRANCH  24  26
ENDBRANCH  17  19
ENDBRANCH   5  17
TORSDOF 5
