REMARK  Name = ZINC15522355
REMARK  9 active torsions:
REMARK  status: ('A' for Active; 'I' for Inactive)
REMARK    1  A    between atoms: C_5  and  C_7
REMARK    2  A    between atoms: C_7  and  N_8
REMARK    3  A    between atoms: N_8  and  C_9
REMARK    4  A    between atoms: N_8  and  C_24
REMARK    5  A    between atoms: C_9  and  C_10
REMARK    6  A    between atoms: N_12  and  C_13
REMARK    7  A    between atoms: C_13  and  C_14
REMARK    8  A    between atoms: C_17  and  S_20
REMARK    9  A    between atoms: S_20  and  N_23
REMARK                            x       y       z     vdW  Elec       q    Type
REMARK                         _______ _______ _______ _____ _____    ______ ____
ROOT
ATOM      1  C   UNL     1       2.120  -4.684   2.607  0.00  0.00    +0.197 C 
ATOM      2  O   UNL     1       2.258  -3.913   3.532  0.00  0.00    -0.278 OA
ATOM      3  N   UNL     1       2.416  -5.989   2.767  0.00  0.00    -0.313 N 
ATOM      4  H   UNL     1       2.306  -6.606   2.027  0.00  0.00    +0.149 HD
ENDROOT
BRANCH   1   5
ATOM      5  C   UNL     1       1.619  -4.184   1.276  0.00  0.00    +0.019 C 
BRANCH   5   6
ATOM      6  N   UNL     1       1.509  -2.719   1.314  0.00  0.00    +0.390 N 
ATOM      7  H   UNL     1       0.952  -2.444   2.108  0.00  0.00    -0.080 HD
BRANCH   6   8
ATOM      8  C   UNL     1       0.870  -2.244   0.079  0.00  0.00    -0.068 C 
ATOM      9  C   UNL     1      -0.245  -1.206   0.215  0.00  0.00    -0.017 C 
ATOM     10  C   UNL     1      -0.585  -2.649  -0.164  0.00  0.00    -0.017 C 
ENDBRANCH   6   8
BRANCH   6  11
ATOM     11  C   UNL     1       2.850  -2.131   1.429  0.00  0.00    -0.039 C 
BRANCH  11  16
ATOM     12  C   UNL     1       2.819   1.564   0.652  0.00  0.00    +0.000 A 
ATOM     13  C   UNL     1       2.514   2.104   1.888  0.00  0.00    +0.003 A 
ATOM     14  C   UNL     1       2.317   1.276   2.976  0.00  0.00    +0.038 A 
ATOM     15  C   UNL     1       2.425  -0.097   2.829  0.00  0.00    +0.125 A 
ATOM     16  C   UNL     1       2.731  -0.637   1.591  0.00  0.00    -0.029 A 
ATOM     17  C   UNL     1       2.927   0.194   0.504  0.00  0.00    +0.004 A 
ATOM     18  F   UNL     1       2.234  -0.908   3.892  0.00  0.00    -0.205 F 
ENDBRANCH  11  16
ENDBRANCH   6  11
ENDBRANCH   5   6
ENDBRANCH   1   5
BRANCH   3  19
ATOM     19  C   UNL     1       2.904  -6.476   4.060  0.00  0.00    +0.139 C 
BRANCH  19  20
ATOM     20  C   UNL     1       3.159  -7.958   3.975  0.00  0.00    -0.030 A 
ATOM     21  C   UNL     1       2.147  -8.852   4.276  0.00  0.00    +0.007 A 
ATOM     22  C   UNL     1       2.381 -10.212   4.198  0.00  0.00    +0.029 A 
ATOM     23  C   UNL     1       3.625 -10.679   3.820  0.00  0.00    +0.105 A 
ATOM     24  C   UNL     1       4.636  -9.786   3.518  0.00  0.00    +0.029 A 
ATOM     25  C   UNL     1       4.402  -8.426   3.592  0.00  0.00    +0.007 A 
BRANCH  23  26
ATOM     26  S   UNL     1       3.923 -12.413   3.721  0.00  0.00    +0.056 S 
ATOM     27  O   UNL     1       5.325 -12.593   3.872  0.00  0.00    -0.153 OA
ATOM     28  O   UNL     1       2.978 -13.037   4.580  0.00  0.00    -0.153 OA
BRANCH  26  29
ATOM     29  N   UNL     1       3.548 -12.888   2.180  0.00  0.00    -0.204 NA
ATOM     30  H   UNL     1       3.230 -12.236   1.536  0.00  0.00    +0.144 HD
ATOM     31  H   UNL     1       3.646 -13.818   1.922  0.00  0.00    +0.144 HD
ENDBRANCH  26  29
ENDBRANCH  23  26
ENDBRANCH  19  20
ENDBRANCH   3  19
TORSDOF 9
