REMARK  Name = ZINC00535950
REMARK  5 active torsions:
REMARK  status: ('A' for Active; 'I' for Inactive)
REMARK    1  A    between atoms: C_1  and  C_2
REMARK    2  A    between atoms: C_5  and  N_9
REMARK    3  A    between atoms: C_6  and  C_8
REMARK    4  A    between atoms: C_14  and  N_18
REMARK    5  A    between atoms: N_18  and  C_19
REMARK                            x       y       z     vdW  Elec       q    Type
REMARK                         _______ _______ _______ _____ _____    ______ ____
ROOT
ATOM      1  N   UNL     1      -1.097   2.608  -0.243  0.00  0.00    -0.214 N 
ATOM      2  C   UNL     1      -0.024   1.798  -0.482  0.00  0.00    +0.168 A 
ATOM      3  C   UNL     1       1.106   2.638  -0.549  0.00  0.00    +0.079 A 
ATOM      4  C   UNL     1       0.652   3.958  -0.337  0.00  0.00    +0.148 A 
ATOM      5  N   UNL     1      -0.637   3.929  -0.156  0.00  0.00    -0.172 NA
ATOM      6  C   UNL     1       2.361   2.049  -0.795  0.00  0.00    +0.133 A 
ATOM      7  N   UNL     1       2.421   0.731  -0.951  0.00  0.00    -0.220 NA
ATOM      8  C   UNL     1       1.333  -0.016  -0.879  0.00  0.00    +0.225 A 
ATOM      9  N   UNL     1       0.140   0.488  -0.652  0.00  0.00    -0.216 NA
ENDROOT
BRANCH   1  14
ATOM     10  C   UNL     1      -6.486   0.919   0.305  0.00  0.00    +0.044 C 
ATOM     11  C   UNL     1      -5.055   1.367   0.160  0.00  0.00    -0.050 A 
ATOM     12  C   UNL     1      -4.290   0.903  -0.895  0.00  0.00    +0.005 A 
ATOM     13  C   UNL     1      -2.979   1.316  -1.034  0.00  0.00    +0.028 A 
ATOM     14  C   UNL     1      -2.427   2.191  -0.108  0.00  0.00    +0.071 A 
ATOM     15  C   UNL     1      -3.197   2.656   0.950  0.00  0.00    -0.025 A 
ATOM     16  C   UNL     1      -4.509   2.243   1.081  0.00  0.00    +0.008 A 
ATOM     17  C   UNL     1      -2.604   3.610   1.954  0.00  0.00    +0.046 C 
ENDBRANCH   1  14
BRANCH   6  18
ATOM     18  N   UNL     1       3.502   2.823  -0.872  0.00  0.00    -0.326 N 
ATOM     19  H   UNL     1       3.445   3.784  -0.756  0.00  0.00    +0.148 HD
BRANCH  18  20
ATOM     20  C   UNL     1       4.799   2.192  -1.129  0.00  0.00    +0.072 C 
ATOM     21  C   UNL     1       5.439   1.739   0.200  0.00  0.00    +0.022 C 
ATOM     22  C   UNL     1       6.951   2.013   0.005  0.00  0.00    +0.002 C 
ATOM     23  C   UNL     1       6.959   3.342  -0.790  0.00  0.00    +0.002 C 
ATOM     24  C   UNL     1       5.766   3.211  -1.758  0.00  0.00    +0.022 C 
ENDBRANCH  18  20
ENDBRANCH   6  18
TORSDOF 3
