REMARK  Name = ZINC15676184
REMARK  6 active torsions:
REMARK  status: ('A' for Active; 'I' for Inactive)
REMARK    1  A    between atoms: C_1  and  C_2
REMARK    2  A    between atoms: C_2  and  C_3
REMARK    3  A    between atoms: C_2  and  N_4
REMARK    4  A    between atoms: C_16  and  C_18
REMARK    5  A    between atoms: C_23  and  C_26
REMARK    6  A    between atoms: C_26  and  C_27
REMARK                            x       y       z     vdW  Elec       q    Type
REMARK                         _______ _______ _______ _____ _____    ______ ____
ROOT
ATOM      1  N   UNL     1      -1.373  -0.510   0.011  0.00  0.00    -0.297 N 
ATOM      2  C   UNL     1      -1.643  -1.734  -0.485  0.00  0.00    +0.303 C 
ATOM      3  O   UNL     1      -0.765  -2.380  -1.023  0.00  0.00    -0.253 OA
ATOM      4  N   UNL     1      -2.888  -2.242  -0.385  0.00  0.00    -0.268 N 
ATOM      5  C   UNL     1      -3.992  -1.432   0.161  0.00  0.00    +0.165 C 
ATOM      6  C   UNL     1      -4.765  -2.312   1.115  0.00  0.00    +0.054 A 
ATOM      7  C   UNL     1      -4.590  -3.647   1.212  0.00  0.00    +0.040 A 
ATOM      8  N   UNL     1      -5.456  -4.093   2.164  0.00  0.00    -0.349 N 
ATOM      9  H   UNL     1      -5.567  -5.010   2.458  0.00  0.00    +0.166 HD
ATOM     10  C   UNL     1      -6.132  -3.014   2.622  0.00  0.00    +0.171 A 
ATOM     11  N   UNL     1      -5.709  -1.952   1.986  0.00  0.00    -0.348 N 
ATOM     12  C   UNL     1      -3.604  -4.447   0.402  0.00  0.00    +0.087 C 
ATOM     13  C   UNL     1      -3.178  -3.616  -0.822  0.00  0.00    +0.170 C 
ATOM     14  H   UNL     1      -2.088   0.035   0.373  0.00  0.00    +0.150 HD
ATOM     15  H   UNL     1      -6.031  -1.047   2.127  0.00  0.00    +0.166 HD
ENDROOT
BRANCH  13  16
ATOM     16  C   UNL     1      -4.293  -3.597  -1.835  0.00  0.00    +0.237 C 
ATOM     17  O   UNL     1      -4.797  -2.544  -2.162  0.00  0.00    -0.274 OA
ATOM     18  N   UNL     1      -4.730  -4.751  -2.378  0.00  0.00    -0.300 N 
ATOM     19  C   UNL     1      -4.133  -6.035  -1.987  0.00  0.00    +0.108 C 
ATOM     20  C   UNL     1      -3.677  -6.772  -3.251  0.00  0.00    +0.023 C 
ATOM     21  C   UNL     1      -4.857  -6.895  -4.218  0.00  0.00    -0.004 C 
ATOM     22  C   UNL     1      -5.338  -5.499  -4.620  0.00  0.00    +0.023 C 
ATOM     23  C   UNL     1      -5.816  -4.748  -3.368  0.00  0.00    +0.108 C 
BRANCH  21  24
ATOM     24  C   UNL     1      -4.415  -7.661  -5.466  0.00  0.00    +0.038 C 
BRANCH  24  25
ATOM     25  C   UNL     1      -5.604  -7.890  -6.363  0.00  0.00    -0.047 A 
ATOM     26  C   UNL     1      -6.374  -9.028  -6.213  0.00  0.00    +0.003 A 
ATOM     27  C   UNL     1      -7.465  -9.238  -7.035  0.00  0.00    +0.000 A 
ATOM     28  C   UNL     1      -7.787  -8.309  -8.008  0.00  0.00    +0.000 A 
ATOM     29  C   UNL     1      -7.018  -7.171  -8.157  0.00  0.00    +0.000 A 
ATOM     30  C   UNL     1      -5.929  -6.959  -7.332  0.00  0.00    +0.003 A 
ENDBRANCH  24  25
ENDBRANCH  21  24
ENDBRANCH  13  16
BRANCH   1  32
ATOM     31  C   UNL     1      -0.018   1.526   0.009  0.00  0.00    +0.027 C 
ATOM     32  C   UNL     1       0.002  -0.004   0.003  0.00  0.00    +0.068 C 
ATOM     33  C   UNL     1       0.739  -0.509   1.245  0.00  0.00    +0.027 C 
ENDBRANCH   1  32
TORSDOF 4
