REMARK  Name = ZINC19877430
REMARK  4 active torsions:
REMARK  status: ('A' for Active; 'I' for Inactive)
REMARK    1  A    between atoms: C_6  and  N_7
REMARK    2  A    between atoms: N_10  and  C_13
REMARK    3  A    between atoms: N_16  and  C_19
REMARK    4  A    between atoms: N_24  and  C_27
REMARK                            x       y       z     vdW  Elec       q    Type
REMARK                         _______ _______ _______ _____ _____    ______ ____
ROOT
ATOM      1  C   UNL     1      -4.411  -2.571  -1.886  0.00  0.00    -0.066 C 
ATOM      2  C   UNL     1      -5.772  -1.936  -1.587  0.00  0.00    +0.000 C 
ATOM      3  C   UNL     1      -6.799  -2.443  -2.602  0.00  0.00    +0.083 C 
ATOM      4  N   UNL     1      -6.892  -3.906  -2.515  0.00  0.00    -0.291 NA
ATOM      5  C   UNL     1      -5.609  -4.540  -2.844  0.00  0.00    +0.083 C 
ATOM      6  C   UNL     1      -4.546  -4.095  -1.837  0.00  0.00    +0.000 C 
ENDROOT
BRANCH   1  10
ATOM      7  N   UNL     1      -1.100  -0.927   0.076  0.00  0.00    -0.333 N 
ATOM      8  C   UNL     1      -2.375  -0.202   0.194  0.00  0.00    +0.086 C 
ATOM      9  C   UNL     1      -3.306  -0.670  -0.929  0.00  0.00    -0.059 C 
ATOM     10  N   UNL     1      -3.434  -2.132  -0.880  0.00  0.00    +0.384 N 
ATOM     11  C   UNL     1      -2.134  -2.757  -1.158  0.00  0.00    -0.059 C 
ATOM     12  C   UNL     1      -1.145  -2.392  -0.052  0.00  0.00    +0.086 C 
ATOM     13  H   UNL     1      -3.750  -2.411   0.036  0.00  0.00    -0.081 HD
BRANCH   7  19
ATOM     14  C   UNL     1       1.314  -0.951   0.088  0.00  0.00    +0.026 A 
ATOM     15  C   UNL     1       2.517  -0.272   0.090  0.00  0.00    +0.040 A 
ATOM     16  C   UNL     1       2.533   1.112   0.084  0.00  0.00    +0.124 A 
ATOM     17  C   UNL     1       1.343   1.820   0.075  0.00  0.00    +0.040 A 
ATOM     18  C   UNL     1       0.137   1.146   0.073  0.00  0.00    +0.026 A 
ATOM     19  C   UNL     1       0.119  -0.243   0.079  0.00  0.00    +0.030 A 
ATOM     20  F   UNL     1       3.711   1.774   0.086  0.00  0.00    -0.205 F 
ENDBRANCH   7  19
ENDBRANCH   1  10
BRANCH   4  21
ATOM     21  C   UNL     1      -7.967  -4.417  -3.376  0.00  0.00    +0.153 C 
ATOM     22  C   UNL     1      -8.188  -5.924  -3.133  0.00  0.00    +0.125 C 
ATOM     23  C   UNL     1      -7.883  -6.548  -4.478  0.00  0.00    +0.228 C 
ATOM     24  O   UNL     1      -7.935  -7.733  -4.730  0.00  0.00    -0.275 OA
ATOM     25  N   UNL     1      -7.548  -5.585  -5.345  0.00  0.00    -0.209 N 
ATOM     26  C   UNL     1      -7.564  -4.344  -4.833  0.00  0.00    +0.244 C 
ATOM     27  O   UNL     1      -7.297  -3.328  -5.437  0.00  0.00    -0.273 OA
BRANCH  25  28
ATOM     28  C   UNL     1      -7.210  -5.849  -6.680  0.00  0.00    +0.044 A 
ATOM     29  C   UNL     1      -6.177  -6.729  -6.974  0.00  0.00    +0.025 A 
ATOM     30  C   UNL     1      -5.846  -6.988  -8.290  0.00  0.00    +0.022 A 
ATOM     31  C   UNL     1      -6.543  -6.371  -9.314  0.00  0.00    +0.041 A 
ATOM     32  C   UNL     1      -7.572  -5.493  -9.023  0.00  0.00    +0.022 A 
ATOM     33  C   UNL     1      -7.911  -5.236  -7.709  0.00  0.00    +0.025 A 
ATOM     34 CL   UNL     1      -6.124  -6.699 -10.967  0.00  0.00    -0.084 Cl
ENDBRANCH  25  28
ENDBRANCH   4  21
TORSDOF 4
