REMARK  Name = ZINC67486911
REMARK  6 active torsions:
REMARK  status: ('A' for Active; 'I' for Inactive)
REMARK    1  A    between atoms: C_1  and  C_2
REMARK    2  A    between atoms: C_7  and  N_8
REMARK    3  A    between atoms: N_11  and  C_12
REMARK    4  A    between atoms: C_12  and  C_14
REMARK    5  A    between atoms: C_12  and  C_15
REMARK    6  A    between atoms: C_22  and  C_24
REMARK                            x       y       z     vdW  Elec       q    Type
REMARK                         _______ _______ _______ _____ _____    ______ ____
ROOT
ATOM      1  N   UNL     1      -1.685  -0.822   2.257  0.00  0.00    -0.269 N 
ATOM      2  C   UNL     1      -1.410  -1.346   3.468  0.00  0.00    +0.304 C 
ATOM      3  O   UNL     1      -1.331  -2.551   3.606  0.00  0.00    -0.252 OA
ATOM      4  N   UNL     1      -1.221  -0.533   4.527  0.00  0.00    -0.288 N 
ATOM      5  H   UNL     1      -1.678   0.140   2.132  0.00  0.00    +0.156 HD
ATOM      6  H   UNL     1      -1.284   0.429   4.417  0.00  0.00    +0.151 HD
ENDROOT
BRANCH   1  13
ATOM      7  C   UNL     1      -3.567   0.078   0.323  0.00  0.00    +0.045 C 
ATOM      8  C   UNL     1      -2.894  -1.266   0.214  0.00  0.00    -0.029 A 
ATOM      9  C   UNL     1      -3.181  -2.099  -0.850  0.00  0.00    +0.005 A 
ATOM     10  C   UNL     1      -2.563  -3.332  -0.950  0.00  0.00    +0.000 A 
ATOM     11  C   UNL     1      -1.658  -3.736   0.015  0.00  0.00    +0.002 A 
ATOM     12  C   UNL     1      -1.368  -2.908   1.081  0.00  0.00    +0.023 A 
ATOM     13  C   UNL     1      -1.982  -1.666   1.181  0.00  0.00    +0.038 A 
ENDBRANCH   1  13
BRANCH   4  14
ATOM     14  C   UNL     1      -0.922  -1.102   5.843  0.00  0.00    +0.157 C 
ATOM     15  C   UNL     1       0.582  -1.358   5.958  0.00  0.00    +0.038 C 
BRANCH  14  16
ATOM     16  C   UNL     1      -1.350  -0.136   6.917  0.00  0.00    +0.236 C 
ATOM     17  O   UNL     1      -1.589   1.019   6.634  0.00  0.00    -0.274 OA
ATOM     18  N   UNL     1      -1.468  -0.555   8.193  0.00  0.00    -0.297 N 
ATOM     19  C   UNL     1      -1.052  -1.911   8.576  0.00  0.00    +0.108 C 
ATOM     20  C   UNL     1      -2.219  -2.602   9.290  0.00  0.00    +0.019 C 
ATOM     21  C   UNL     1      -2.683  -1.732  10.460  0.00  0.00    +0.003 C 
ATOM     22  C   UNL     1      -3.171  -0.381   9.932  0.00  0.00    +0.022 C 
ATOM     23  C   UNL     1      -2.010   0.337   9.227  0.00  0.00    +0.073 C 
ATOM     24  C   UNL     1      -2.519   1.625   8.578  0.00  0.00    +0.028 C 
ENDBRANCH  14  16
ENDBRANCH   4  14
TORSDOF 3
