REMARK  Name = ZINC00051376
REMARK  6 active torsions:
REMARK  status: ('A' for Active; 'I' for Inactive)
REMARK    1  A    between atoms: C_1  and  C_2
REMARK    2  A    between atoms: C_5  and  C_11
REMARK    3  A    between atoms: C_5  and  O_12
REMARK    4  A    between atoms: C_6  and  C_8
REMARK    5  A    between atoms: C_8  and  C_9
REMARK    6  A    between atoms: C_13  and  C_15
REMARK                            x       y       z     vdW  Elec       q    Type
REMARK                         _______ _______ _______ _____ _____    ______ ____
ROOT
ATOM      1  C   UNL     1      -0.200   1.358  -0.158  0.00  0.00    +0.063 C 
ATOM      2  C   UNL     1      -0.853   1.745   1.143  0.00  0.00    +0.042 C 
ATOM      3  N   UNL     1      -1.351   0.931   1.981  0.00  0.00    -0.183 NA
ATOM      4  N   UNL     1      -1.900   1.531   3.112  0.00  0.00    -0.157 N 
ATOM      5  C   UNL     1      -1.735   2.990   3.000  0.00  0.00    +0.161 C 
ATOM      6  C   UNL     1      -1.009   3.161   1.651  0.00  0.00    +0.090 C 
ATOM      7  C   UNL     1      -0.872   3.525   4.144  0.00  0.00    +0.066 C 
ATOM      8  C   UNL     1      -2.486   0.883   4.139  0.00  0.00    +0.268 C 
ATOM      9  O   UNL     1      -3.019   1.514   5.031  0.00  0.00    -0.268 OA
ENDROOT
BRANCH   8  10
ATOM     10  C   UNL     1      -2.479  -0.594   4.181  0.00  0.00    +0.039 A 
ATOM     11  C   UNL     1      -1.729  -1.318   3.252  0.00  0.00    +0.014 A 
ATOM     12  C   UNL     1      -1.722  -2.696   3.299  0.00  0.00    +0.021 A 
ATOM     13  C   UNL     1      -2.465  -3.362   4.259  0.00  0.00    +0.041 A 
ATOM     14  C   UNL     1      -3.215  -2.650   5.181  0.00  0.00    +0.021 A 
ATOM     15  C   UNL     1      -3.226  -1.271   5.147  0.00  0.00    +0.014 A 
ATOM     16 CL   UNL     1      -2.457  -5.098   4.309  0.00  0.00    -0.084 Cl
ENDBRANCH   8  10
BRANCH   5  17
ATOM     17  O   UNL     1      -3.007   3.641   2.980  0.00  0.00    -0.369 OA
ATOM     18  H   UNL     1      -3.533   3.503   3.780  0.00  0.00    +0.212 HD
ENDBRANCH   5  17
BRANCH   6  19
ATOM     19  C   UNL     1       0.361   3.812   1.854  0.00  0.00    +0.040 C 
BRANCH  19  20
ATOM     20  C   UNL     1       1.020   4.024   0.515  0.00  0.00    -0.034 C 
ATOM     21  C   UNL     1       1.330   5.234   0.122  0.00  0.00    +0.004 C 
ENDBRANCH  19  20
ENDBRANCH   6  19
TORSDOF 4
