REMARK  Name = ZINC04104090
REMARK  6 active torsions:
REMARK  status: ('A' for Active; 'I' for Inactive)
REMARK    1  A    between atoms: C_1  and  C_2
REMARK    2  A    between atoms: C_2  and  C_3
REMARK    3  A    between atoms: C_2  and  C_4
REMARK    4  A    between atoms: C_2  and  O_5
REMARK    5  A    between atoms: O_5  and  C_6
REMARK    6  A    between atoms: C_11  and  C_14
REMARK                            x       y       z     vdW  Elec       q    Type
REMARK                         _______ _______ _______ _____ _____    ______ ____
ROOT
ATOM      1  C   UNL     1       1.179  -0.503  -1.901  0.00  0.00    +0.403 C 
ATOM      2  O   UNL     1       1.385  -0.085  -0.779  0.00  0.00    -0.226 OA
ATOM      3  N   UNL     1       2.212  -0.716  -2.740  0.00  0.00    -0.267 N 
ATOM      4  C   UNL     1       1.978  -1.216  -4.102  0.00  0.00    +0.112 C 
ATOM      5  C   UNL     1       2.836  -2.466  -4.322  0.00  0.00    +0.032 C 
ATOM      6  C   UNL     1       4.298  -2.137  -4.015  0.00  0.00    +0.078 C 
ATOM      7  C   UNL     1       4.431  -1.712  -2.551  0.00  0.00    +0.032 C 
ATOM      8  C   UNL     1       3.591  -0.448  -2.313  0.00  0.00    +0.112 C 
ENDROOT
BRANCH   6   9
ATOM      9  C   UNL     1       5.150  -3.356  -4.263  0.00  0.00    +0.219 C 
ATOM     10  O   UNL     1       4.690  -4.463  -4.085  0.00  0.00    -0.275 OA
ATOM     11  N   UNL     1       6.422  -3.214  -4.684  0.00  0.00    -0.301 N 
ATOM     12  C   UNL     1       7.174  -4.400  -5.028  0.00  0.00    +0.108 C 
ATOM     13  C   UNL     1       7.897  -4.940  -3.770  0.00  0.00    +0.019 C 
ATOM     14  C   UNL     1       9.004  -4.048  -3.394  0.00  0.00    +0.002 C 
ATOM     15  C   UNL     1       8.570  -2.638  -3.004  0.00  0.00    +0.002 C 
ATOM     16  C   UNL     1       8.436  -1.794  -4.248  0.00  0.00    +0.019 C 
ATOM     17  C   UNL     1       6.989  -1.855  -4.781  0.00  0.00    +0.108 C 
ENDBRANCH   6   9
BRANCH   1  18
ATOM     18  O   UNL     1      -0.081  -0.753  -2.306  0.00  0.00    -0.445 OA
BRANCH  18  20
ATOM     19  C   UNL     1      -1.109   0.972  -0.962  0.00  0.00    +0.055 C 
ATOM     20  C   UNL     1      -1.126  -0.504  -1.364  0.00  0.00    +0.107 C 
ATOM     21  C   UNL     1      -0.913  -1.374  -0.123  0.00  0.00    +0.055 C 
ATOM     22  C   UNL     1      -2.476  -0.844  -1.999  0.00  0.00    +0.055 C 
ENDBRANCH  18  20
ENDBRANCH   1  18
TORSDOF 3
