REMARK  Name = ZINC41678052
REMARK  5 active torsions:
REMARK  status: ('A' for Active; 'I' for Inactive)
REMARK    1  A    between atoms: C_1  and  C_2
REMARK    2  A    between atoms: C_7  and  C_9
REMARK    3  A    between atoms: C_7  and  C_10
REMARK    4  A    between atoms: C_11  and  C_13
REMARK    5  A    between atoms: C_15  and  N_20
REMARK                            x       y       z     vdW  Elec       q    Type
REMARK                         _______ _______ _______ _____ _____    ______ ____
ROOT
ATOM      1  C   UNL     1      -0.346   1.558   0.538  0.00  0.00    +0.039 C 
ATOM      2  C   UNL     1      -0.271   0.031   0.493  0.00  0.00    +0.133 C 
ATOM      3  C   UNL     1      -1.661  -0.541   0.193  0.00  0.00    +0.139 C 
ATOM      4  N   UNL     1      -1.603  -2.004   0.341  0.00  0.00    -0.292 N 
ATOM      5  C   UNL     1      -1.021  -2.552   1.577  0.00  0.00    +0.142 C 
ATOM      6  C   UNL     1       0.338  -1.882   1.809  0.00  0.00    +0.080 C 
ATOM      7  O   UNL     1       0.179  -0.462   1.758  0.00  0.00    -0.368 OA
ATOM      8  C   UNL     1       0.878  -2.286   3.183  0.00  0.00    +0.043 C 
ATOM      9  C   UNL     1       1.319  -2.325   0.722  0.00  0.00    +0.043 C 
ATOM     10  C   UNL     1      -2.068  -2.818  -0.627  0.00  0.00    +0.250 C 
ATOM     11  O   UNL     1      -2.611  -2.348  -1.608  0.00  0.00    -0.270 OA
ENDROOT
BRANCH  10  12
ATOM     12  C   UNL     1      -1.919  -4.282  -0.496  0.00  0.00    +0.074 A 
ATOM     13  C   UNL     1      -2.355  -4.931   0.661  0.00  0.00    +0.048 A 
ATOM     14  C   UNL     1      -2.214  -6.297   0.777  0.00  0.00    +0.127 A 
ATOM     15  C   UNL     1      -1.641  -7.028  -0.250  0.00  0.00    +0.035 A 
ATOM     16  C   UNL     1      -1.206  -6.395  -1.399  0.00  0.00    +0.041 A 
ATOM     17  C   UNL     1      -1.347  -5.025  -1.532  0.00  0.00    +0.136 A 
ATOM     18  F   UNL     1      -0.927  -4.408  -2.658  0.00  0.00    -0.205 F 
BRANCH  14  19
ATOM     19  N   UNL     1      -2.675  -6.985   2.004  0.00  0.00    +0.056 N 
ATOM     20  O   UNL     1      -3.176  -6.349   2.902  0.00  0.00    -0.126 OA
ATOM     21  O   UNL     1      -2.552  -8.183   2.107  0.00  0.00    -0.126 OA
ENDBRANCH  14  19
ENDBRANCH  10  12
TORSDOF 2
