REMARK  Name = ZINC37368966
REMARK  4 active torsions:
REMARK  status: ('A' for Active; 'I' for Inactive)
REMARK    1  A    between atoms: C_1  and  C_2
REMARK    2  A    between atoms: C_7  and  N_8
REMARK    3  A    between atoms: C_9  and  C_11
REMARK    4  A    between atoms: C_12  and  C_16
REMARK                            x       y       z     vdW  Elec       q    Type
REMARK                         _______ _______ _______ _____ _____    ______ ____
ROOT
ATOM      1  N   UNL     1       0.025  -0.015   2.416  0.00  0.00    -0.279 N 
ATOM      2  C   UNL     1      -0.056  -0.694   3.578  0.00  0.00    +0.284 C 
ATOM      3  O   UNL     1      -0.040  -1.911   3.573  0.00  0.00    -0.266 OA
ATOM      4  H   UNL     1       0.078   0.954   2.424  0.00  0.00    +0.155 HD
ENDROOT
BRANCH   1  11
ATOM      5  C   UNL     1      -1.266   1.183   0.182  0.00  0.00    +0.045 C 
ATOM      6  C   UNL     1      -0.585  -0.158   0.085  0.00  0.00    -0.029 A 
ATOM      7  C   UNL     1      -0.570  -0.840  -1.116  0.00  0.00    +0.006 A 
ATOM      8  C   UNL     1       0.054  -2.071  -1.207  0.00  0.00    +0.015 A 
ATOM      9  C   UNL     1       0.667  -2.622  -0.095  0.00  0.00    +0.020 A 
ATOM     10  C   UNL     1       0.655  -1.945   1.109  0.00  0.00    +0.038 A 
ATOM     11  C   UNL     1       0.033  -0.706   1.201  0.00  0.00    +0.038 A 
ATOM     12 BR   UNL     1       1.519  -4.305  -0.224  0.00  0.00    -0.050 Br
ENDBRANCH   1  11
BRANCH   2  13
ATOM     13  C   UNL     1      -0.165   0.032   4.846  0.00  0.00    +0.192 A 
ATOM     14  C   UNL     1      -0.249  -0.529   6.088  0.00  0.00    -0.000 A 
ATOM     15  C   UNL     1      -0.335   0.530   7.005  0.00  0.00    +0.045 A 
ATOM     16  C   UNL     1      -0.301   1.677   6.292  0.00  0.00    +0.196 A 
ATOM     17  O   UNL     1      -0.193   1.373   4.992  0.00  0.00    -0.458 OA
ATOM     18  C   UNL     1      -0.249  -2.001   6.412  0.00  0.00    +0.048 C 
ENDBRANCH   2  13
TORSDOF 2
