REMARK  Name = ZINC06523243
REMARK  4 active torsions:
REMARK  status: ('A' for Active; 'I' for Inactive)
REMARK    1  A    between atoms: C_1  and  C_2
REMARK    2  A    between atoms: C_8  and  C_11
REMARK    3  A    between atoms: N_13  and  C_14
REMARK    4  A    between atoms: C_20  and  C_22
REMARK                            x       y       z     vdW  Elec       q    Type
REMARK                         _______ _______ _______ _____ _____    ______ ____
ROOT
ATOM      1  C   UNL     1      -3.883   3.679   0.728  0.00  0.00    +0.266 C 
ATOM      2  O   UNL     1      -4.731   3.056   1.337  0.00  0.00    -0.268 OA
ATOM      3  N   UNL     1      -2.924   3.021   0.046  0.00  0.00    -0.307 N 
ATOM      4  H   UNL     1      -2.247   3.518  -0.439  0.00  0.00    +0.149 HD
ENDROOT
BRANCH   1  11
ATOM      5  C   UNL     1      -7.791   6.678   3.682  0.00  0.00    +0.008 C 
ATOM      6  C   UNL     1      -6.432   6.912   3.019  0.00  0.00    -0.009 C 
ATOM      7  C   UNL     1      -6.530   8.101   2.059  0.00  0.00    +0.011 C 
ATOM      8  C   UNL     1      -5.123   8.496   1.585  0.00  0.00    +0.078 C 
ATOM      9  C   UNL     1      -4.424   7.254   1.097  0.00  0.00    +0.141 A 
ATOM     10  C   UNL     1      -4.832   5.997   1.390  0.00  0.00    +0.027 A 
ATOM     11  C   UNL     1      -3.903   5.162   0.737  0.00  0.00    +0.171 A 
ATOM     12  N   UNL     1      -3.061   5.971   0.131  0.00  0.00    -0.073 NA
ATOM     13  O   UNL     1      -3.344   7.135   0.327  0.00  0.00    -0.359 OA
ATOM     14  C   UNL     1      -6.022   5.655   2.238  0.00  0.00    +0.044 C 
ENDBRANCH   1  11
BRANCH   3  15
ATOM     15  C   UNL     1      -2.904   1.556   0.038  0.00  0.00    +0.076 C 
ATOM     16  C   UNL     1      -2.164   1.050   1.278  0.00  0.00    +0.022 C 
ATOM     17  C   UNL     1      -0.729   1.579   1.267  0.00  0.00    +0.002 C 
ATOM     18  C   UNL     1      -0.013   1.086   0.008  0.00  0.00    +0.000 C 
ATOM     19  C   UNL     1      -0.753   1.593  -1.232  0.00  0.00    +0.005 C 
ATOM     20  C   UNL     1      -2.188   1.063  -1.221  0.00  0.00    +0.006 C 
ATOM     21  C   UNL     1      -2.928   1.570  -2.460  0.00  0.00    +0.009 C 
ENDBRANCH   3  15
TORSDOF 2
