REMARK  Name = ZINC43264540
REMARK  5 active torsions:
REMARK  status: ('A' for Active; 'I' for Inactive)
REMARK    1  A    between atoms: C_1  and  C_2
REMARK    2  A    between atoms: C_2  and  C_3
REMARK    3  A    between atoms: C_2  and  C_4
REMARK    4  A    between atoms: C_2  and  C_10
REMARK    5  A    between atoms: N_20  and  C_21
REMARK                            x       y       z     vdW  Elec       q    Type
REMARK                         _______ _______ _______ _____ _____    ______ ____
ROOT
ATOM      1  C   UNL     1       1.657  -1.035  -0.765  0.00  0.00    +0.226 C 
ATOM      2  O   UNL     1       1.197  -1.353  -1.842  0.00  0.00    -0.275 OA
ATOM      3  N   UNL     1       2.826  -0.368  -0.703  0.00  0.00    -0.298 N 
ATOM      4  C   UNL     1       3.466  -0.101   0.593  0.00  0.00    +0.127 C 
ATOM      5  C   UNL     1       4.894  -0.658   0.559  0.00  0.00    +0.128 C 
ATOM      6  N   UNL     1       5.553  -0.186  -0.667  0.00  0.00    -0.282 N 
ATOM      7  C   UNL     1       4.913  -0.454  -1.963  0.00  0.00    +0.128 C 
ATOM      8  C   UNL     1       3.488   0.099  -1.929  0.00  0.00    +0.127 C 
ATOM      9  C   UNL     1       6.723   0.480  -0.604  0.00  0.00    +0.307 C 
ATOM     10  O   UNL     1       7.290   0.615   0.463  0.00  0.00    -0.252 OA
ATOM     11  N   UNL     1       7.264   0.998  -1.725  0.00  0.00    -0.265 N 
ATOM     12  H   UNL     1       6.773   0.967  -2.560  0.00  0.00    +0.157 HD
ENDROOT
BRANCH  11  13
ATOM     13  C   UNL     1       8.539   1.582  -1.682  0.00  0.00    +0.106 A 
ATOM     14  C   UNL     1       8.843   2.519  -0.702  0.00  0.00    +0.147 A 
ATOM     15  C   UNL     1      10.102   3.092  -0.663  0.00  0.00    +0.040 A 
ATOM     16  C   UNL     1      11.056   2.735  -1.598  0.00  0.00    +0.006 A 
ATOM     17  C   UNL     1      10.756   1.803  -2.575  0.00  0.00    +0.040 A 
ATOM     18  C   UNL     1       9.502   1.221  -2.617  0.00  0.00    +0.147 A 
ATOM     19  F   UNL     1       9.211   0.307  -3.568  0.00  0.00    -0.203 F 
ATOM     20  F   UNL     1       7.912   2.870   0.211  0.00  0.00    -0.203 F 
ENDBRANCH  11  13
BRANCH   1  22
ATOM     21  C   UNL     1      -0.416  -2.043   0.150  0.00  0.00    +0.025 C 
ATOM     22  C   UNL     1       0.920  -1.385   0.502  0.00  0.00    +0.066 C 
ATOM     23  C   UNL     1       0.664  -0.113   1.312  0.00  0.00    +0.025 C 
BRANCH  22  24
ATOM     24  C   UNL     1       1.751  -2.342   1.318  0.00  0.00    -0.033 A 
ATOM     25  C   UNL     1       2.904  -2.885   0.783  0.00  0.00    +0.004 A 
ATOM     26  C   UNL     1       3.666  -3.763   1.532  0.00  0.00    +0.000 A 
ATOM     27  C   UNL     1       3.275  -4.096   2.815  0.00  0.00    +0.000 A 
ATOM     28  C   UNL     1       2.123  -3.552   3.350  0.00  0.00    +0.000 A 
ATOM     29  C   UNL     1       1.363  -2.671   2.603  0.00  0.00    +0.004 A 
ENDBRANCH  22  24
ENDBRANCH   1  22
TORSDOF 3
