REMARK  Name = ZINC38726187
REMARK  12 active torsions:
REMARK  status: ('A' for Active; 'I' for Inactive)
REMARK    1  A    between atoms: C_1  and  C_2
REMARK    2  A    between atoms: C_2  and  O_3
REMARK    3  A    between atoms: O_3  and  C_4
REMARK    4  A    between atoms: C_15  and  C_25
REMARK    5  A    between atoms: N_17  and  C_20
REMARK    6  A    between atoms: C_20  and  C_21
REMARK    7  A    between atoms: C_21  and  N_22
REMARK    8  A    between atoms: N_22  and  C_23
REMARK    9  A    between atoms: N_22  and  C_24
REMARK   10  A    between atoms: C_28  and  C_31
REMARK   11  A    between atoms: C_31  and  C_32
REMARK   12  A    between atoms: C_31  and  C_33
REMARK                            x       y       z     vdW  Elec       q    Type
REMARK                         _______ _______ _______ _____ _____    ______ ____
ROOT
ATOM      1  C   UNL     1       0.777  -1.808  -1.336  0.00  0.00    +0.124 A 
ATOM      2  C   UNL     1       0.237  -2.664  -0.376  0.00  0.00    +0.046 A 
ATOM      3  C   UNL     1       0.335  -4.016  -0.530  0.00  0.00    +0.019 A 
ATOM      4  C   UNL     1       0.978  -4.542  -1.653  0.00  0.00    +0.065 A 
ATOM      5  C   UNL     1       1.531  -3.691  -2.626  0.00  0.00    +0.143 A 
ATOM      6  C   UNL     1       1.414  -2.314  -2.454  0.00  0.00    +0.092 A 
ATOM      7  O   UNL     1       2.173  -4.164  -3.719  0.00  0.00    -0.449 OA
ATOM      8  C   UNL     1       2.091  -5.474  -4.024  0.00  0.00    +0.199 A 
ATOM      9  C   UNL     1       1.583  -6.401  -3.160  0.00  0.00    +0.072 A 
ATOM     10  C   UNL     1       1.084  -6.010  -1.837  0.00  0.00    +0.199 A 
ATOM     11  O   UNL     1       0.785  -6.814  -0.972  0.00  0.00    -0.287 OA
ATOM     12  C   UNL     1       1.658  -7.735  -3.828  0.00  0.00    +0.144 C 
ATOM     13  N   UNL     1       2.248  -7.488  -5.154  0.00  0.00    -0.285 N 
ATOM     14  C   UNL     1       2.497  -6.166  -5.260  0.00  0.00    +0.283 C 
ATOM     15  O   UNL     1       2.985  -5.626  -6.232  0.00  0.00    -0.267 OA
ENDROOT
BRANCH  12  16
ATOM     16  C   UNL     1       2.536  -8.666  -3.032  0.00  0.00    -0.022 A 
ATOM     17  C   UNL     1       3.912  -8.558  -3.115  0.00  0.00    +0.006 A 
ATOM     18  C   UNL     1       4.717  -9.412  -2.385  0.00  0.00    +0.004 A 
ATOM     19  C   UNL     1       4.147 -10.373  -1.571  0.00  0.00    -0.045 A 
ATOM     20  C   UNL     1       2.771 -10.480  -1.488  0.00  0.00    +0.004 A 
ATOM     21  C   UNL     1       1.966  -9.624  -2.214  0.00  0.00    +0.006 A 
BRANCH  19  22
ATOM     22  C   UNL     1       5.025 -11.305  -0.776  0.00  0.00    +0.013 C 
ATOM     23  C   UNL     1       4.731 -11.133   0.716  0.00  0.00    +0.012 C 
ATOM     24  C   UNL     1       4.740 -12.750  -1.189  0.00  0.00    +0.012 C 
ENDBRANCH  19  22
ENDBRANCH  12  16
BRANCH   1  25
ATOM     25  O   UNL     1       0.671  -0.465  -1.174  0.00  0.00    -0.492 OA
BRANCH  25  27
ATOM     26  C   UNL     1      -0.019   1.526   0.010  0.00  0.00    +0.048 C 
ATOM     27  C   UNL     1       0.002  -0.004   0.002  0.00  0.00    +0.225 C 
ENDBRANCH  25  27
ENDBRANCH   1  25
BRANCH  13  28
ATOM     28  C   UNL     1       2.518  -8.499  -6.178  0.00  0.00    +0.090 C 
BRANCH  28  29
ATOM     29  C   UNL     1       1.294  -8.648  -7.083  0.00  0.00    -0.060 C 
BRANCH  29  30
ATOM     30  N   UNL     1       1.564  -9.663  -8.111  0.00  0.00    +0.377 N 
ATOM     31  C   UNL     1       1.736 -10.974  -7.471  0.00  0.00    -0.097 C 
ATOM     32  C   UNL     1       0.437  -9.721  -9.051  0.00  0.00    -0.097 C 
ATOM     33  H   UNL     1       2.407  -9.419  -8.610  0.00  0.00    -0.083 HD
ENDBRANCH  29  30
ENDBRANCH  28  29
ENDBRANCH  13  28
TORSDOF 7
