REMARK  Name = ZINC45156767
REMARK  5 active torsions:
REMARK  status: ('A' for Active; 'I' for Inactive)
REMARK    1  A    between atoms: C_1  and  C_2
REMARK    2  A    between atoms: C_2  and  C_3
REMARK    3  A    between atoms: N_12  and  C_13
REMARK    4  A    between atoms: C_13  and  C_15
REMARK    5  A    between atoms: C_13  and  C_21
REMARK                            x       y       z     vdW  Elec       q    Type
REMARK                         _______ _______ _______ _____ _____    ______ ____
ROOT
ATOM      1  C   UNL     1      -1.466  -0.428  -0.022  0.00  0.00    +0.077 C 
ATOM      2  C   UNL     1      -1.572  -1.956  -0.073  0.00  0.00    +0.022 C 
ATOM      3  C   UNL     1      -3.042  -2.366   0.035  0.00  0.00    +0.003 C 
ATOM      4  C   UNL     1      -3.610  -1.887   1.373  0.00  0.00    +0.019 C 
ATOM      5  C   UNL     1      -3.528  -0.359   1.441  0.00  0.00    +0.109 C 
ATOM      6  N   UNL     1      -2.139   0.054   1.192  0.00  0.00    -0.283 N 
ATOM      7  C   UNL     1      -1.495   0.857   2.061  0.00  0.00    +0.303 C 
ATOM      8  O   UNL     1      -0.382   1.269   1.798  0.00  0.00    -0.253 OA
ATOM      9  N   UNL     1      -2.085   1.205   3.222  0.00  0.00    -0.285 N 
ATOM     10  H   UNL     1      -3.001   0.938   3.400  0.00  0.00    +0.151 HD
ENDROOT
BRANCH   1  12
ATOM     11  C   UNL     1       0.715  -0.558  -1.233  0.00  0.00    +0.006 C 
ATOM     12  C   UNL     1       0.007  -0.017   0.011  0.00  0.00    +0.019 C 
ENDBRANCH   1  12
BRANCH   9  13
ATOM     13  C   UNL     1      -1.343   1.985   4.216  0.00  0.00    +0.171 C 
BRANCH  13  14
ATOM     14  C   UNL     1      -1.919   1.731   5.585  0.00  0.00    -0.020 A 
ATOM     15  C   UNL     1      -3.288   1.624   5.751  0.00  0.00    +0.006 A 
ATOM     16  C   UNL     1      -3.816   1.391   7.007  0.00  0.00    +0.000 A 
ATOM     17  C   UNL     1      -2.976   1.265   8.098  0.00  0.00    +0.000 A 
ATOM     18  C   UNL     1      -1.608   1.372   7.932  0.00  0.00    +0.000 A 
ATOM     19  C   UNL     1      -1.079   1.600   6.675  0.00  0.00    +0.006 A 
ENDBRANCH  13  14
BRANCH  13  20
ATOM     20  C   UNL     1      -1.454   3.451   3.888  0.00  0.00    +0.129 A 
ATOM     21  C   UNL     1      -0.463   4.356   3.982  0.00  0.00    +0.047 A 
ATOM     22  C   UNL     1      -1.003   5.599   3.580  0.00  0.00    +0.041 A 
ATOM     23  C   UNL     1      -2.292   5.380   3.264  0.00  0.00    +0.195 A 
ATOM     24  O   UNL     1      -2.558   4.076   3.447  0.00  0.00    -0.466 OA
ENDBRANCH  13  20
ENDBRANCH   9  13
TORSDOF 4
