REMARK  Name = ZINC45625210
REMARK  4 active torsions:
REMARK  status: ('A' for Active; 'I' for Inactive)
REMARK    1  A    between atoms: C_1  and  C_2
REMARK    2  A    between atoms: C_8  and  N_10
REMARK    3  A    between atoms: C_11  and  C_13
REMARK    4  A    between atoms: C_15  and  N_20
REMARK                            x       y       z     vdW  Elec       q    Type
REMARK                         _______ _______ _______ _____ _____    ______ ____
ROOT
ATOM      1  N   UNL     1       0.056  -0.038   2.447  0.00  0.00    -0.308 N 
ATOM      2  C   UNL     1       0.738   0.093   3.602  0.00  0.00    +0.245 C 
ATOM      3  O   UNL     1       1.922  -0.180   3.644  0.00  0.00    -0.270 OA
ATOM      4  H   UNL     1      -0.888   0.180   2.413  0.00  0.00    +0.149 HD
ENDROOT
BRANCH   1  11
ATOM      5  C   UNL     1      -0.019   1.526   0.010  0.00  0.00    +0.009 C 
ATOM      6  C   UNL     1       0.002  -0.004   0.002  0.00  0.00    +0.006 C 
ATOM      7  C   UNL     1       0.718  -0.497  -1.257  0.00  0.00    +0.005 C 
ATOM      8  C   UNL     1       0.739  -2.027  -1.265  0.00  0.00    +0.000 C 
ATOM      9  C   UNL     1       1.479  -2.534  -0.026  0.00  0.00    +0.002 C 
ATOM     10  C   UNL     1       0.763  -2.041   1.233  0.00  0.00    +0.022 C 
ATOM     11  C   UNL     1       0.742  -0.511   1.242  0.00  0.00    +0.076 C 
ENDBRANCH   1  11
BRANCH   2  12
ATOM     12  C   UNL     1       0.046   0.570   4.818  0.00  0.00    +0.053 A 
ATOM     13  C   UNL     1      -1.315   0.879   4.775  0.00  0.00    +0.047 A 
ATOM     14  C   UNL     1      -1.954   1.323   5.913  0.00  0.00    +0.127 A 
ATOM     15  C   UNL     1      -1.251   1.462   7.097  0.00  0.00    +0.034 A 
ATOM     16  C   UNL     1       0.097   1.158   7.148  0.00  0.00    +0.018 A 
ATOM     17  C   UNL     1       0.749   0.707   6.017  0.00  0.00    +0.030 A 
ATOM     18 BR   UNL     1       2.591   0.285   6.089  0.00  0.00    -0.050 Br
BRANCH  14  19
ATOM     19  N   UNL     1      -3.397   1.652   5.869  0.00  0.00    +0.056 N 
ATOM     20  O   UNL     1      -4.013   1.531   4.836  0.00  0.00    -0.126 OA
ATOM     21  O   UNL     1      -3.959   2.041   6.866  0.00  0.00    -0.126 OA
ENDBRANCH  14  19
ENDBRANCH   2  12
TORSDOF 3
