REMARK  Name = ZINC12924640
REMARK  5 active torsions:
REMARK  status: ('A' for Active; 'I' for Inactive)
REMARK    1  A    between atoms: C_1  and  C_2
REMARK    2  A    between atoms: C_2  and  C_3
REMARK    3  A    between atoms: C_13  and  C_15
REMARK    4  A    between atoms: C_16  and  C_17
REMARK    5  A    between atoms: C_20  and  N_23
REMARK                            x       y       z     vdW  Elec       q    Type
REMARK                         _______ _______ _______ _____ _____    ______ ____
ROOT
ATOM      1  C   UNL     1      -7.394   3.929   0.196  0.00  0.00    +0.107 C 
ATOM      2  C   UNL     1      -8.224   3.362   1.347  0.00  0.00    -0.017 A 
ATOM      3  C   UNL     1      -9.386   3.967   1.820  0.00  0.00    +0.013 A 
ATOM      4  C   UNL     1     -10.074   3.406   2.841  0.00  0.00    +0.046 A 
ATOM      5  S   UNL     1      -9.089   1.958   3.196  0.00  0.00    -0.101 S 
ATOM      6  C   UNL     1      -7.840   2.210   1.962  0.00  0.00    -0.004 A 
ATOM      7  C   UNL     1      -6.645   1.365   1.665  0.00  0.00    +0.062 C 
ATOM      8  C   UNL     1      -6.097   1.754   0.278  0.00  0.00    +0.114 C 
ATOM      9  N   UNL     1      -6.107   3.221   0.179  0.00  0.00    -0.291 N 
ATOM     10  C   UNL     1      -4.951   3.906   0.070  0.00  0.00    +0.240 C 
ATOM     11  O   UNL     1      -3.896   3.307  -0.033  0.00  0.00    -0.271 OA
ENDROOT
BRANCH   1  13
ATOM     12  C   UNL     1      -7.327   4.353  -2.265  0.00  0.00    +0.006 C 
ATOM     13  C   UNL     1      -8.124   3.708  -1.130  0.00  0.00    +0.024 C 
ENDBRANCH   1  13
BRANCH  10  14
ATOM     14  C   UNL     1      -4.965   5.370   0.074  0.00  0.00    +0.068 C 
ATOM     15  C   UNL     1      -3.803   6.055   0.073  0.00  0.00    +0.013 C 
BRANCH  15  16
ATOM     16  C   UNL     1      -3.817   7.527   0.077  0.00  0.00    -0.025 A 
ATOM     17  C   UNL     1      -5.032   8.218   0.089  0.00  0.00    +0.010 A 
ATOM     18  C   UNL     1      -5.037   9.597   0.088  0.00  0.00    +0.033 A 
ATOM     19  C   UNL     1      -3.843  10.297   0.086  0.00  0.00    +0.126 A 
ATOM     20  C   UNL     1      -2.636   9.619   0.081  0.00  0.00    +0.033 A 
ATOM     21  C   UNL     1      -2.615   8.241   0.077  0.00  0.00    +0.010 A 
BRANCH  19  22
ATOM     22  N   UNL     1      -3.856  11.777   0.091  0.00  0.00    +0.056 N 
ATOM     23  O   UNL     1      -4.917  12.376   0.096  0.00  0.00    -0.126 OA
ATOM     24  O   UNL     1      -2.807  12.396   0.090  0.00  0.00    -0.126 OA
ENDBRANCH  19  22
ENDBRANCH  15  16
ENDBRANCH  10  14
TORSDOF 4
