REMARK  Name = ZINC16756831
REMARK  4 active torsions:
REMARK  status: ('A' for Active; 'I' for Inactive)
REMARK    1  A    between atoms: C_1  and  C_2
REMARK    2  A    between atoms: N_5  and  C_25
REMARK    3  A    between atoms: C_13  and  C_14
REMARK    4  A    between atoms: C_17  and  C_19
REMARK                            x       y       z     vdW  Elec       q    Type
REMARK                         _______ _______ _______ _____ _____    ______ ____
ROOT
ATOM      1  C   UNL     1       6.439   4.481  -0.060  0.00  0.00    +0.046 C 
ATOM      2  C   UNL     1       5.070   3.853  -0.037  0.00  0.00    -0.018 A 
ATOM      3  C   UNL     1       3.856   4.529  -0.018  0.00  0.00    +0.050 A 
ATOM      4  C   UNL     1       2.845   3.585  -0.002  0.00  0.00    +0.119 A 
ATOM      5  N   UNL     1       1.473   3.446   0.019  0.00  0.00    -0.328 N 
ATOM      6  C   UNL     1       1.177   2.089   0.024  0.00  0.00    +0.067 A 
ATOM      7  C   UNL     1      -0.020   1.383   0.042  0.00  0.00    +0.028 A 
ATOM      8  C   UNL     1      -0.003   0.003   0.042  0.00  0.00    +0.002 A 
ATOM      9  C   UNL     1       1.201  -0.681   0.023  0.00  0.00    +0.002 A 
ATOM     10  C   UNL     1       2.395   0.011   0.004  0.00  0.00    +0.028 A 
ATOM     11  C   UNL     1       2.390   1.399   0.005  0.00  0.00    +0.072 A 
ATOM     12  N   UNL     1       3.411   2.349  -0.011  0.00  0.00    -0.289 N 
ATOM     13  C   UNL     1       4.789   2.497  -0.033  0.00  0.00    +0.114 A 
ATOM     14  C   UNL     1       0.498   4.540   0.034  0.00  0.00    +0.151 C 
ENDROOT
BRANCH  13  15
ATOM     15  C   UNL     1       5.739   1.450  -0.049  0.00  0.00    +0.268 C 
ATOM     16  O   UNL     1       6.135   1.002  -1.110  0.00  0.00    -0.268 OA
ATOM     17  N   UNL     1       6.208   0.947   1.111  0.00  0.00    -0.247 N 
ATOM     18  C   UNL     1       7.189   0.023   1.098  0.00  0.00    +0.251 C 
ATOM     19  O   UNL     1       7.716  -0.288   0.048  0.00  0.00    -0.270 OA
ATOM     20  H   UNL     1       5.839   1.251   1.955  0.00  0.00    +0.158 HD
BRANCH  18  21
ATOM     21  C   UNL     1       7.623  -0.612   2.360  0.00  0.00    +0.037 A 
ATOM     22  C   UNL     1       7.099  -0.178   3.579  0.00  0.00    +0.013 A 
ATOM     23  C   UNL     1       7.504  -0.780   4.753  0.00  0.00    +0.001 A 
ATOM     24  C   UNL     1       8.437  -1.802   4.724  0.00  0.00    +0.000 A 
ATOM     25  C   UNL     1       8.964  -2.232   3.520  0.00  0.00    +0.001 A 
ATOM     26  C   UNL     1       8.563  -1.644   2.338  0.00  0.00    +0.013 A 
ENDBRANCH  18  21
ENDBRANCH  13  15
TORSDOF 2
