REMARK  Name = ZINC05451076
REMARK  4 active torsions:
REMARK  status: ('A' for Active; 'I' for Inactive)
REMARK    1  A    between atoms: C_3  and  C_6
REMARK    2  A    between atoms: C_6  and  N_7
REMARK    3  A    between atoms: C_8  and  C_10
REMARK    4  A    between atoms: C_10  and  N_11
REMARK                            x       y       z     vdW  Elec       q    Type
REMARK                         _______ _______ _______ _____ _____    ______ ____
ROOT
ATOM      1  N   UNL     1      -0.219   1.233   4.858  0.00  0.00    -0.325 N 
ATOM      2  C   UNL     1       0.803   1.904   5.497  0.00  0.00    +0.052 A 
ATOM      3  C   UNL     1       1.426   3.125   5.249  0.00  0.00    +0.029 A 
ATOM      4  C   UNL     1       2.443   3.560   6.069  0.00  0.00    +0.040 A 
ATOM      5  C   UNL     1       2.860   2.790   7.148  0.00  0.00    +0.124 A 
ATOM      6  C   UNL     1       2.258   1.579   7.411  0.00  0.00    +0.050 A 
ATOM      7  C   UNL     1       1.225   1.125   6.588  0.00  0.00    +0.029 A 
ATOM      8  C   UNL     1       0.392  -0.083   6.586  0.00  0.00    +0.105 A 
ATOM      9  C   UNL     1      -0.482   0.035   5.506  0.00  0.00    +0.134 A 
ATOM     10  C   UNL     1      -1.407  -0.996   5.272  0.00  0.00    +0.279 A 
ATOM     11  O   UNL     1      -2.180  -0.918   4.332  0.00  0.00    -0.265 OA
ATOM     12  N   UNL     1      -1.443  -2.091   6.098  0.00  0.00    -0.285 N 
ATOM     13  C   UNL     1      -0.554  -2.123   7.133  0.00  0.00    +0.172 A 
ATOM     14  N   UNL     1       0.322  -1.174   7.362  0.00  0.00    -0.221 NA
ATOM     15  S   UNL     1      -0.842  -3.645   8.010  0.00  0.00    -0.086 S 
ATOM     16  C   UNL     1      -2.207  -4.320   6.995  0.00  0.00    +0.099 C 
ATOM     17  C   UNL     1      -2.365  -3.215   5.941  0.00  0.00    +0.138 C 
ATOM     18  F   UNL     1       3.860   3.231   7.943  0.00  0.00    -0.205 F 
ENDROOT
BRANCH   1  19
ATOM     19  C   UNL     1      -0.927   1.718   3.671  0.00  0.00    +0.218 C 
BRANCH  19  21
ATOM     20  N   UNL     1      -0.698   1.558   1.213  0.00  0.00    -0.307 N 
ATOM     21  C   UNL     1      -0.222   1.232   2.431  0.00  0.00    +0.233 C 
ATOM     22  O   UNL     1       0.774   0.548   2.529  0.00  0.00    -0.274 OA
ATOM     23  H   UNL     1      -1.495   2.106   1.135  0.00  0.00    +0.149 HD
BRANCH  20  24
ATOM     24  C   UNL     1      -0.013   1.086   0.008  0.00  0.00    +0.178 C 
BRANCH  24  27
ATOM     25  C   UNL     1      -1.411   2.810  -2.934  0.00  0.00    +0.041 A 
ATOM     26  C   UNL     1      -0.504   2.745  -1.851  0.00  0.00    +0.046 A 
ATOM     27  C   UNL     1      -0.742   1.585  -1.213  0.00  0.00    +0.122 A 
ATOM     28  O   UNL     1      -1.734   0.945  -1.851  0.00  0.00    -0.466 OA
ATOM     29  C   UNL     1      -2.148   1.685  -2.893  0.00  0.00    +0.195 A 
ENDBRANCH  24  27
ENDBRANCH  20  24
ENDBRANCH  19  21
ENDBRANCH   1  19
TORSDOF 4
