REMARK  Name = ZINC12548414
REMARK  6 active torsions:
REMARK  status: ('A' for Active; 'I' for Inactive)
REMARK    1  A    between atoms: C_1  and  C_2
REMARK    2  A    between atoms: C_4  and  C_21
REMARK    3  A    between atoms: C_7  and  N_8
REMARK    4  A    between atoms: N_8  and  S_9
REMARK    5  A    between atoms: S_9  and  C_12
REMARK    6  A    between atoms: C_13  and  C_14
REMARK                            x       y       z     vdW  Elec       q    Type
REMARK                         _______ _______ _______ _____ _____    ______ ____
ROOT
ATOM      1  N   UNL     1       1.563   3.056  -1.430  0.00  0.00    -0.217 N 
ATOM      2  H   UNL     1       2.252   2.847  -2.080  0.00  0.00    +0.174 HD
ENDROOT
BRANCH   1   9
ATOM      3  C   UNL     1       0.633   3.170  -4.113  0.00  0.00    +0.046 C 
ATOM      4  C   UNL     1       0.091   4.078  -3.040  0.00  0.00    -0.027 A 
ATOM      5  C   UNL     1      -0.890   4.995  -3.344  0.00  0.00    +0.020 A 
ATOM      6  C   UNL     1      -1.385   5.839  -2.346  0.00  0.00    +0.064 A 
ATOM      7  C   UNL     1      -0.887   5.744  -1.042  0.00  0.00    +0.017 A 
ATOM      8  C   UNL     1       0.081   4.828  -0.746  0.00  0.00    +0.025 A 
ATOM      9  C   UNL     1       0.577   3.986  -1.738  0.00  0.00    +0.051 A 
BRANCH   6  10
ATOM     10  C   UNL     1      -2.431   6.827  -2.666  0.00  0.00    +0.387 C 
ATOM     11  O   UNL     1      -2.863   6.909  -3.799  0.00  0.00    -0.241 OA
ATOM     12  O   UNL     1      -2.908   7.640  -1.703  0.00  0.00    -0.241 OA
ENDBRANCH   6  10
ENDBRANCH   1   9
BRANCH   1  13
ATOM     13  S   UNL     1       1.560   2.304   0.045  0.00  0.00    +0.066 S 
ATOM     14  O   UNL     1       1.526   3.332   1.025  0.00  0.00    -0.151 OA
ATOM     15  O   UNL     1       2.589   1.325   0.004  0.00  0.00    -0.151 OA
BRANCH  13  16
ATOM     16  C   UNL     1       0.037   1.428   0.181  0.00  0.00    +0.157 C 
ATOM     17  C   UNL     1       0.037   0.104   0.246  0.00  0.00    +0.028 C 
BRANCH  17  18
ATOM     18  C   UNL     1      -1.241  -0.630   0.360  0.00  0.00    -0.024 A 
ATOM     19  C   UNL     1      -2.448   0.068   0.404  0.00  0.00    +0.009 A 
ATOM     20  C   UNL     1      -3.638  -0.623   0.505  0.00  0.00    +0.020 A 
ATOM     21  C   UNL     1      -3.635  -2.006   0.573  0.00  0.00    +0.041 A 
ATOM     22  C   UNL     1      -2.439  -2.704   0.535  0.00  0.00    +0.020 A 
ATOM     23  C   UNL     1      -1.244  -2.024   0.429  0.00  0.00    +0.009 A 
ATOM     24 CL   UNL     1      -5.135  -2.869   0.706  0.00  0.00    -0.084 Cl
ENDBRANCH  17  18
ENDBRANCH  13  16
ENDBRANCH   1  13
TORSDOF 5
