REMARK  Name = ZINC13992530
REMARK  5 active torsions:
REMARK  status: ('A' for Active; 'I' for Inactive)
REMARK    1  A    between atoms: C_4  and  C_7
REMARK    2  A    between atoms: C_7  and  O_31
REMARK    3  A    between atoms: C_18  and  C_19
REMARK    4  A    between atoms: C_18  and  N_55
REMARK    5  A    between atoms: C_21  and  C_24
REMARK                            x       y       z     vdW  Elec       q    Type
REMARK                         _______ _______ _______ _____ _____    ______ ____
ROOT
ATOM      1  C   UNL     1       0.005   1.067   2.471  0.00  0.00    +0.091 C 
ATOM      2  C   UNL     1      -0.039  -0.431   2.787  0.00  0.00    +0.021 C 
ATOM      3  C   UNL     1      -1.491  -0.913   2.752  0.00  0.00    -0.075 C 
ATOM      4  C   UNL     1      -2.073   0.779   1.118  0.00  0.00    -0.062 C 
ATOM      5  C   UNL     1      -0.637   1.310   1.102  0.00  0.00    +0.012 C 
ATOM      6  C   UNL     1       0.166   0.573   0.028  0.00  0.00    +0.005 C 
ATOM      7  C   UNL     1      -0.479   0.802  -1.340  0.00  0.00    +0.000 C 
ATOM      8  C   UNL     1      -1.914   0.270  -1.323  0.00  0.00    -0.002 C 
ATOM      9  C   UNL     1      -2.718   1.007  -0.250  0.00  0.00    -0.015 C 
ATOM     10  N   UNL     1      -2.045  -0.671   1.403  0.00  0.00    +0.388 N 
ATOM     11  H   UNL     1      -1.447  -1.135   0.709  0.00  0.00    -0.081 HD
ENDROOT
BRANCH   1  15
ATOM     12  C   UNL     1       4.063   2.399   2.400  0.00  0.00    +0.000 A 
ATOM     13  C   UNL     1       3.741   1.138   1.935  0.00  0.00    +0.000 A 
ATOM     14  C   UNL     1       2.428   0.707   1.958  0.00  0.00    +0.006 A 
ATOM     15  C   UNL     1       1.436   1.537   2.446  0.00  0.00    -0.016 A 
ATOM     16  C   UNL     1       1.757   2.800   2.907  0.00  0.00    +0.006 A 
ATOM     17  C   UNL     1       3.071   3.229   2.888  0.00  0.00    +0.000 A 
ENDBRANCH   1  15
BRANCH   1  18
ATOM     18  O   UNL     1      -0.717   1.787   3.472  0.00  0.00    -0.384 OA
ATOM     19  H   UNL     1      -0.365   1.679   4.366  0.00  0.00    +0.211 HD
ENDBRANCH   1  18
BRANCH  10  20
ATOM     20  C   UNL     1      -3.410  -1.230   1.311  0.00  0.00    +0.022 C 
BRANCH  20  21
ATOM     21  C   UNL     1      -3.335  -2.726   1.470  0.00  0.00    +0.211 A 
ATOM     22  N   UNL     1      -3.427  -3.395   2.592  0.00  0.00    -0.193 NA
ATOM     23  C   UNL     1      -3.305  -4.697   2.250  0.00  0.00    +0.205 A 
ATOM     24  N   UNL     1      -3.147  -4.743   0.953  0.00  0.00    -0.056 NA
ATOM     25  O   UNL     1      -3.167  -3.621   0.491  0.00  0.00    -0.340 OA
BRANCH  23  26
ATOM     26  C   UNL     1      -3.342  -5.858   3.174  0.00  0.00    +0.059 A 
ATOM     27  C   UNL     1      -3.203  -7.159   2.686  0.00  0.00    +0.016 A 
ATOM     28  C   UNL     1      -3.245  -8.208   3.588  0.00  0.00    +0.020 A 
ATOM     29  C   UNL     1      -3.423  -7.938   4.933  0.00  0.00    +0.112 A 
ATOM     30  N   UNL     1      -3.552  -6.698   5.366  0.00  0.00    -0.243 NA
ATOM     31  C   UNL     1      -3.513  -5.667   4.545  0.00  0.00    +0.140 A 
ATOM     32 CL   UNL     1      -3.682  -4.059   5.176  0.00  0.00    -0.061 Cl
ENDBRANCH  23  26
ENDBRANCH  20  21
ENDBRANCH  10  20
TORSDOF 5
