REMARK  Name = ZINC67298766
REMARK  6 active torsions:
REMARK  status: ('A' for Active; 'I' for Inactive)
REMARK    1  A    between atoms: C_1  and  C_2
REMARK    2  A    between atoms: C_7  and  N_8
REMARK    3  A    between atoms: C_10  and  C_20
REMARK    4  A    between atoms: C_15  and  O_19
REMARK    5  A    between atoms: N_22  and  C_23
REMARK    6  A    between atoms: C_23  and  C_24
REMARK                            x       y       z     vdW  Elec       q    Type
REMARK                         _______ _______ _______ _____ _____    ______ ____
ROOT
ATOM      1  N   UNL     1      -0.034  -0.012   2.392  0.00  0.00    -0.325 N 
ATOM      2  C   UNL     1      -0.094  -0.687   3.519  0.00  0.00    +0.212 A 
ATOM      3  C   UNL     1      -0.180   0.004   4.820  0.00  0.00    +0.097 A 
ATOM      4  C   UNL     1      -0.765  -0.686   5.873  0.00  0.00    +0.030 A 
ATOM      5  C   UNL     1      -1.207  -2.013   5.639  0.00  0.00    +0.018 A 
ATOM      6  C   UNL     1      -1.981  -2.682   6.600  0.00  0.00    +0.015 A 
ATOM      7  C   UNL     1      -2.437  -3.942   6.348  0.00  0.00    +0.046 A 
ATOM      8  C   UNL     1      -2.133  -4.576   5.144  0.00  0.00    +0.120 A 
ATOM      9  C   UNL     1      -1.354  -3.938   4.190  0.00  0.00    +0.092 A 
ATOM     10  C   UNL     1      -0.877  -2.661   4.433  0.00  0.00    +0.141 A 
ATOM     11  O   UNL     1      -0.084  -2.045   3.527  0.00  0.00    -0.438 OA
ATOM     12  H   UNL     1      -0.029   0.958   2.407  0.00  0.00    +0.169 HD
ENDROOT
BRANCH   1  19
ATOM     13  C   UNL     1      -1.895   0.731   0.378  0.00  0.00    +0.046 C 
ATOM     14  C   UNL     1      -0.869  -0.354   0.172  0.00  0.00    -0.027 A 
ATOM     15  C   UNL     1      -0.804  -1.024  -1.032  0.00  0.00    +0.008 A 
ATOM     16  C   UNL     1       0.137  -2.021  -1.223  0.00  0.00    +0.039 A 
ATOM     17  C   UNL     1       1.021  -2.352  -0.208  0.00  0.00    +0.125 A 
ATOM     18  C   UNL     1       0.967  -1.688   1.002  0.00  0.00    +0.064 A 
ATOM     19  C   UNL     1       0.022  -0.677   1.198  0.00  0.00    +0.048 A 
ATOM     20  F   UNL     1       1.936  -3.326  -0.402  0.00  0.00    -0.205 F 
ENDBRANCH   1  19
BRANCH   3  21
ATOM     21  C   UNL     1       0.333   1.373   4.995  0.00  0.00    +0.249 C 
ATOM     22  O   UNL     1       0.782   1.980   4.041  0.00  0.00    -0.270 OA
ATOM     23  N   UNL     1       0.306   1.953   6.211  0.00  0.00    -0.309 N 
ATOM     24  H   UNL     1      -0.111   1.495   6.957  0.00  0.00    +0.149 HD
BRANCH  23  25
ATOM     25  C   UNL     1       0.906   3.275   6.405  0.00  0.00    +0.136 C 
BRANCH  25  26
ATOM     26  C   UNL     1       0.740   3.701   7.865  0.00  0.00    +0.135 C 
ATOM     27  C   UNL     1       1.261   5.142   8.053  0.00  0.00    +0.035 C 
ATOM     28  C   UNL     1       1.966   5.060   9.435  0.00  0.00    +0.031 C 
ATOM     29  C   UNL     1       2.519   3.613   9.398  0.00  0.00    +0.160 C 
ATOM     30  O   UNL     1       1.515   2.844   8.713  0.00  0.00    -0.375 OA
ENDBRANCH  25  26
ENDBRANCH  23  25
ENDBRANCH   3  21
BRANCH   8  31
ATOM     31  O   UNL     1      -2.603  -5.826   4.903  0.00  0.00    -0.507 OA
ATOM     32  H   UNL     1      -3.467  -5.845   4.469  0.00  0.00    +0.292 HD
ENDBRANCH   8  31
TORSDOF 5
