REMARK  Name = ZINC37376371
REMARK  3 active torsions:
REMARK  status: ('A' for Active; 'I' for Inactive)
REMARK    1  A    between atoms: C_2  and  S_8
REMARK    2  A    between atoms: S_8  and  N_11
REMARK    3  A    between atoms: C_15  and  N_17
REMARK                            x       y       z     vdW  Elec       q    Type
REMARK                         _______ _______ _______ _____ _____    ______ ____
ROOT
ATOM      1  S   UNL     1       1.200   3.791   0.027  0.00  0.00    +0.065 S 
ATOM      2  O   UNL     1      -0.033   3.239   0.467  0.00  0.00    -0.153 OA
ATOM      3  O   UNL     1       2.123   3.056  -0.766  0.00  0.00    -0.153 OA
ENDROOT
BRANCH   1   5
ATOM      4  C   UNL     1       1.374   5.480  -2.120  0.00  0.00    +0.057 A 
ATOM      5  C   UNL     1       0.805   5.248  -0.880  0.00  0.00    +0.132 A 
ATOM      6  C   UNL     1      -0.061   6.161  -0.374  0.00  0.00    +0.106 A 
ATOM      7  S   UNL     1      -0.095   7.394  -1.664  0.00  0.00    -0.063 S 
ATOM      8  C   UNL     1       1.047   6.612  -2.792  0.00  0.00    +0.081 A 
ATOM      9 CL   UNL     1       1.598   7.159  -4.344  0.00  0.00    -0.076 Cl
ATOM     10 CL   UNL     1      -0.916   6.136   1.137  0.00  0.00    -0.074 Cl
ENDBRANCH   1   5
BRANCH   1  11
ATOM     11  N   UNL     1       2.018   4.266   1.386  0.00  0.00    -0.152 NA
ATOM     12  C   UNL     1       1.422   4.477   2.718  0.00  0.00    +0.112 C 
ATOM     13  C   UNL     1       2.596   4.289   3.712  0.00  0.00    +0.021 C 
ATOM     14  C   UNL     1       3.773   4.927   2.927  0.00  0.00    +0.046 C 
ATOM     15  C   UNL     1       3.460   4.542   1.466  0.00  0.00    +0.208 C 
BRANCH  15  16
ATOM     16  N   UNL     1       4.218   3.346   1.089  0.00  0.00    -0.185 NA
ATOM     17  C   UNL     1       5.075   3.409   0.181  0.00  0.00    +0.236 C 
ATOM     18  O   UNL     1       5.902   3.470  -0.697  0.00  0.00    -0.210 OA
ENDBRANCH  15  16
ENDBRANCH   1  11
TORSDOF 3
