REMARK  Name = ZINC36882171
REMARK  1 active torsions:
REMARK  status: ('A' for Active; 'I' for Inactive)
REMARK    1  A    between atoms: C_4  and  C_9
REMARK                            x       y       z     vdW  Elec       q    Type
REMARK                         _______ _______ _______ _____ _____    ______ ____
ROOT
ATOM      1  C   UNL     1       3.647  -0.604  -0.037  0.00  0.00    +0.022 A 
ATOM      2  C   UNL     1       4.837   0.132  -0.039  0.00  0.00    +0.061 A 
ATOM      3  C   UNL     1       6.048  -0.529  -0.054  0.00  0.00    +0.164 A 
ATOM      4  C   UNL     1       6.087  -1.919  -0.068  0.00  0.00    +0.180 A 
ATOM      5  C   UNL     1       4.908  -2.652  -0.066  0.00  0.00    +0.087 A 
ATOM      6  C   UNL     1       3.692  -2.000  -0.045  0.00  0.00    +0.035 A 
ATOM      7 CL   UNL     1       4.964  -4.388  -0.084  0.00  0.00    -0.080 Cl
ATOM      8  O   UNL     1       7.291  -2.558  -0.082  0.00  0.00    -0.487 OA
ATOM      9  C   UNL     1       8.058  -2.420  -1.280  0.00  0.00    +0.232 C 
ATOM     10  C   UNL     1       8.870  -1.134  -1.256  0.00  0.00    +0.082 C 
ATOM     11  C   UNL     1       7.989   0.106  -1.255  0.00  0.00    +0.232 C 
ATOM     12  O   UNL     1       7.216   0.177  -0.055  0.00  0.00    -0.488 OA
ENDROOT
BRANCH   1  16
ATOM     13  C   UNL     1      -0.017   1.404   0.010  0.00  0.00    +0.090 A 
ATOM     14  C   UNL     1       1.168   2.080   0.002  0.00  0.00    +0.118 A 
ATOM     15  N   UNL     1       2.319   1.411  -0.013  0.00  0.00    -0.237 NA
ATOM     16  C   UNL     1       2.347   0.093  -0.020  0.00  0.00    +0.141 A 
ATOM     17  N   UNL     1       1.195  -0.636  -0.013  0.00  0.00    -0.307 N 
ATOM     18  H   UNL     1       1.233  -1.605  -0.019  0.00  0.00    +0.170 HD
ATOM     19  C   UNL     1       0.002  -0.004   0.002  0.00  0.00    +0.252 A 
ATOM     20  O   UNL     1      -1.039  -0.640   0.009  0.00  0.00    -0.268 OA
ENDBRANCH   1  16
TORSDOF 1
