REMARK  Name = ZINC09404824
REMARK  9 active torsions:
REMARK  status: ('A' for Active; 'I' for Inactive)
REMARK    1  A    between atoms: C_1  and  C_2
REMARK    2  A    between atoms: C_2  and  O_3
REMARK    3  A    between atoms: O_3  and  C_4
REMARK    4  A    between atoms: N_9  and  S_12
REMARK    5  A    between atoms: S_12  and  C_15
REMARK    6  A    between atoms: C_18  and  C_21
REMARK    7  A    between atoms: N_23  and  C_24
REMARK    8  A    between atoms: C_25  and  C_35
REMARK    9  A    between atoms: C_30  and  C_34
REMARK                            x       y       z     vdW  Elec       q    Type
REMARK                         _______ _______ _______ _____ _____    ______ ____
ROOT
ATOM      1  C   UNL     1      -1.899   2.539   1.708  0.00  0.00    +0.106 A 
ATOM      2  C   UNL     1      -2.674   1.598   2.363  0.00  0.00    +0.029 A 
ATOM      3  C   UNL     1      -3.021   1.785   3.685  0.00  0.00    +0.015 A 
ATOM      4  C   UNL     1      -2.597   2.932   4.359  0.00  0.00    +0.037 A 
ATOM      5  C   UNL     1      -1.820   3.880   3.691  0.00  0.00    +0.015 A 
ATOM      6  C   UNL     1      -1.476   3.678   2.370  0.00  0.00    +0.029 A 
ENDROOT
BRANCH   4   7
ATOM      7  C   UNL     1      -2.970   3.142   5.773  0.00  0.00    +0.249 C 
ATOM      8  O   UNL     1      -2.600   4.142   6.358  0.00  0.00    -0.270 OA
ATOM      9  N   UNL     1      -3.721   2.225   6.416  0.00  0.00    -0.275 N 
ATOM     10  H   UNL     1      -4.016   1.427   5.949  0.00  0.00    +0.156 HD
BRANCH   9  11
ATOM     11  C   UNL     1      -4.071   2.422   7.743  0.00  0.00    +0.090 A 
ATOM     12  C   UNL     1      -4.834   1.604   8.564  0.00  0.00    +0.084 A 
ATOM     13  C   UNL     1      -5.053   2.041   9.931  0.00  0.00    -0.018 A 
ATOM     14  C   UNL     1      -4.487   3.225  10.254  0.00  0.00    -0.004 A 
ATOM     15  S   UNL     1      -3.668   3.753   8.776  0.00  0.00    -0.077 S 
ATOM     16  C   UNL     1      -4.549   3.925  11.577  0.00  0.00    +0.046 C 
ATOM     17  C   UNL     1      -5.665   3.281  12.413  0.00  0.00    -0.009 C 
ATOM     18  C   UNL     1      -5.510   1.759  12.355  0.00  0.00    +0.008 C 
ATOM     19  C   UNL     1      -5.861   1.253  10.954  0.00  0.00    +0.037 C 
ATOM     20  C   UNL     1      -5.558   3.755  13.864  0.00  0.00    +0.008 C 
BRANCH  12  21
ATOM     21  C   UNL     1      -5.381   0.372   8.081  0.00  0.00    +0.102 C 
ATOM     22  N   UNL     1      -5.816  -0.606   7.699  0.00  0.00    -0.191 NA
ENDBRANCH  12  21
ENDBRANCH   9  11
ENDBRANCH   4   7
BRANCH   1  23
ATOM     23  S   UNL     1      -1.455   2.289   0.021  0.00  0.00    +0.061 S 
ATOM     24  O   UNL     1      -1.190   3.574  -0.524  0.00  0.00    -0.153 OA
ATOM     25  O   UNL     1      -2.429   1.413  -0.530  0.00  0.00    -0.153 OA
BRANCH  23  31
ATOM     26  C   UNL     1       3.296  -0.434   1.163  0.00  0.00    +0.403 C 
ATOM     27  O   UNL     1       3.300  -1.649   1.156  0.00  0.00    -0.226 OA
ATOM     28  N   UNL     1       2.127   0.236   1.177  0.00  0.00    -0.265 N 
ATOM     29  C   UNL     1       0.849  -0.489   1.185  0.00  0.00    +0.128 C 
ATOM     30  C   UNL     1       0.002  -0.004   0.002  0.00  0.00    +0.128 C 
ATOM     31  N   UNL     1      -0.018   1.465   0.010  0.00  0.00    -0.174 NA
ATOM     32  C   UNL     1       1.260   2.191   0.002  0.00  0.00    +0.128 C 
ATOM     33  C   UNL     1       2.107   1.706   1.185  0.00  0.00    +0.128 C 
BRANCH  26  34
ATOM     34  O   UNL     1       4.460   0.243   1.155  0.00  0.00    -0.451 OA
BRANCH  34  36
ATOM     35  C   UNL     1       6.890   0.393   1.133  0.00  0.00    +0.048 C 
ATOM     36  C   UNL     1       5.680  -0.543   1.140  0.00  0.00    +0.230 C 
ENDBRANCH  34  36
ENDBRANCH  26  34
ENDBRANCH  23  31
ENDBRANCH   1  23
TORSDOF 7
