REMARK  Name = ZINC12535775
REMARK  8 active torsions:
REMARK  status: ('A' for Active; 'I' for Inactive)
REMARK    1  A    between atoms: C_1  and  C_2
REMARK    2  A    between atoms: C_2  and  C_4
REMARK    3  A    between atoms: C_2  and  N_13
REMARK    4  A    between atoms: N_13  and  C_14
REMARK    5  A    between atoms: N_17  and  C_18
REMARK    6  A    between atoms: C_18  and  C_20
REMARK    7  A    between atoms: C_18  and  C_21
REMARK    8  A    between atoms: N_29  and  C_30
REMARK                            x       y       z     vdW  Elec       q    Type
REMARK                         _______ _______ _______ _____ _____    ______ ____
ROOT
ATOM      1  N   UNL     1      -1.875   9.335   2.491  0.00  0.00    -0.279 N 
ATOM      2  C   UNL     1      -0.469   9.148   2.856  0.00  0.00    +0.134 C 
ATOM      3  C   UNL     1      -2.453   8.511   1.594  0.00  0.00    +0.303 C 
ATOM      4  O   UNL     1      -3.620   8.667   1.290  0.00  0.00    -0.253 OA
ATOM      5  N   UNL     1      -1.738   7.517   1.033  0.00  0.00    -0.290 N 
ATOM      6  H   UNL     1      -0.806   7.393   1.275  0.00  0.00    +0.151 HD
ENDROOT
BRANCH   1   8
ATOM      7  C   UNL     1      -2.687  10.226   4.618  0.00  0.00    +0.036 C 
ATOM      8  C   UNL     1      -2.653  10.416   3.101  0.00  0.00    +0.140 C 
BRANCH   8   9
ATOM      9  C   UNL     1      -2.013  11.741   2.774  0.00  0.00    +0.126 A 
ATOM     10  C   UNL     1      -2.681  12.857   2.454  0.00  0.00    +0.055 A 
ATOM     11  C   UNL     1      -1.664  13.890   2.222  0.00  0.00    +0.020 A 
ATOM     12  C   UNL     1      -1.706  15.238   1.868  0.00  0.00    +0.011 A 
ATOM     13  C   UNL     1      -0.540  15.937   1.722  0.00  0.00    +0.001 A 
ATOM     14  C   UNL     1       0.683  15.314   1.925  0.00  0.00    +0.004 A 
ATOM     15  C   UNL     1       0.744  13.983   2.276  0.00  0.00    +0.047 A 
ATOM     16  C   UNL     1      -0.428  13.254   2.429  0.00  0.00    +0.135 A 
ATOM     17  O   UNL     1      -0.688  11.972   2.756  0.00  0.00    -0.458 OA
ENDBRANCH   8   9
ENDBRANCH   1   8
BRANCH   5  18
ATOM     18  C   UNL     1      -2.366   6.622   0.058  0.00  0.00    +0.138 C 
ATOM     19  C   UNL     1      -2.300   7.256  -1.333  0.00  0.00    +0.036 C 
BRANCH  18  20
ATOM     20  C   UNL     1      -1.638   5.303   0.044  0.00  0.00    +0.135 A 
ATOM     21  N   UNL     1      -0.344   5.166   0.031  0.00  0.00    -0.230 NA
ATOM     22  C   UNL     1      -0.025   3.846   0.022  0.00  0.00    +0.090 A 
ATOM     23  C   UNL     1       1.185   3.147   0.007  0.00  0.00    +0.030 A 
ATOM     24  C   UNL     1       1.183   1.781   0.000  0.00  0.00    +0.002 A 
ATOM     25  C   UNL     1      -0.013   1.076   0.008  0.00  0.00    +0.002 A 
ATOM     26  C   UNL     1      -1.218   1.744   0.017  0.00  0.00    +0.028 A 
ATOM     27  C   UNL     1      -1.235   3.132   0.030  0.00  0.00    +0.074 A 
ATOM     28  N   UNL     1      -2.237   4.082   0.044  0.00  0.00    -0.269 N 
BRANCH  28  29
ATOM     29  C   UNL     1      -3.679   3.822   0.057  0.00  0.00    +0.449 C 
ATOM     30  F   UNL     1      -3.929   2.612   0.713  0.00  0.00    -0.185 F 
ATOM     31  F   UNL     1      -4.334   4.860   0.728  0.00  0.00    -0.185 F 
ENDBRANCH  28  29
ENDBRANCH  18  20
ENDBRANCH   5  18
TORSDOF 5
