REMARK  Name = ZINC66120330
REMARK  7 active torsions:
REMARK  status: ('A' for Active; 'I' for Inactive)
REMARK    1  A    between atoms: C_1  and  C_2
REMARK    2  A    between atoms: C_6  and  C_8
REMARK    3  A    between atoms: C_8  and  N_9
REMARK    4  A    between atoms: C_12  and  N_15
REMARK    5  A    between atoms: C_22  and  C_25
REMARK    6  A    between atoms: C_25  and  C_26
REMARK    7  A    between atoms: C_26  and  C_27
REMARK                            x       y       z     vdW  Elec       q    Type
REMARK                         _______ _______ _______ _____ _____    ______ ____
ROOT
ATOM      1  N   UNL     1       5.068  -4.859   4.106  0.00  0.00    -0.297 N 
ATOM      2  C   UNL     1       5.444  -5.789   5.007  0.00  0.00    +0.302 C 
ATOM      3  O   UNL     1       4.606  -6.482   5.551  0.00  0.00    -0.253 OA
ATOM      4  N   UNL     1       6.748  -5.950   5.306  0.00  0.00    -0.285 N 
ATOM      5  C   UNL     1       7.761  -5.042   4.750  0.00  0.00    +0.109 C 
ATOM      6  C   UNL     1       8.593  -4.468   5.901  0.00  0.00    +0.019 C 
ATOM      7  C   UNL     1       9.168  -5.617   6.732  0.00  0.00    +0.006 C 
ATOM      8  C   UNL     1       8.023  -6.440   7.328  0.00  0.00    +0.007 C 
ATOM      9  C   UNL     1       7.184  -7.033   6.198  0.00  0.00    +0.112 C 
ATOM     10  H   UNL     1       5.728  -4.258   3.726  0.00  0.00    +0.151 HD
ENDROOT
BRANCH   1  14
ATOM     11  N   UNL     1       1.446  -3.078   2.896  0.00  0.00    +0.382 N 
ATOM     12  C   UNL     1       2.108  -3.953   1.922  0.00  0.00    -0.077 C 
ATOM     13  C   UNL     1       3.578  -4.130   2.306  0.00  0.00    +0.004 C 
ATOM     14  C   UNL     1       3.664  -4.758   3.700  0.00  0.00    +0.071 C 
ATOM     15  C   UNL     1       2.907  -3.873   4.695  0.00  0.00    +0.004 C 
ATOM     16  C   UNL     1       1.461  -3.706   4.223  0.00  0.00    -0.077 C 
ATOM     17  H   UNL     1       1.933  -2.195   2.938  0.00  0.00    -0.081 HD
BRANCH  11  18
ATOM     18  C   UNL     1       0.055  -2.848   2.481  0.00  0.00    -0.043 C 
BRANCH  18  24
ATOM     19  C   UNL     1      -0.014   1.489  -0.015  0.00  0.00    +0.044 C 
ATOM     20  C   UNL     1       0.005  -0.018  -0.017  0.00  0.00    -0.050 A 
ATOM     21  C   UNL     1       0.007  -0.708  -1.216  0.00  0.00    +0.003 A 
ATOM     22  C   UNL     1       0.024  -2.090  -1.218  0.00  0.00    +0.000 A 
ATOM     23  C   UNL     1       0.040  -2.783  -0.021  0.00  0.00    +0.002 A 
ATOM     24  C   UNL     1       0.039  -2.093   1.177  0.00  0.00    -0.064 A 
ATOM     25  C   UNL     1       0.026  -0.711   1.179  0.00  0.00    +0.005 A 
ENDBRANCH  18  24
ENDBRANCH  11  18
ENDBRANCH   1  14
BRANCH   8  26
ATOM     26  C   UNL     1       8.598  -7.568   8.186  0.00  0.00    +0.014 C 
BRANCH  26  27
ATOM     27  C   UNL     1       7.457  -8.313   8.881  0.00  0.00    +0.096 C 
BRANCH  27  28
ATOM     28  C   UNL     1       8.023  -9.425   9.726  0.00  0.00    +0.210 C 
ATOM     29  O   UNL     1       9.222  -9.603   9.769  0.00  0.00    -0.276 OA
ATOM     30  N   UNL     1       7.197 -10.220  10.435  0.00  0.00    -0.329 N 
ATOM     31  H   UNL     1       6.239 -10.078  10.400  0.00  0.00    +0.145 HD
ATOM     32  H   UNL     1       7.562 -10.936  10.979  0.00  0.00    +0.145 HD
ENDBRANCH  27  28
ENDBRANCH  26  27
ENDBRANCH   8  26
TORSDOF 6
