REMARK  Name = ZINC12991689
REMARK  6 active torsions:
REMARK  status: ('A' for Active; 'I' for Inactive)
REMARK    1  A    between atoms: C_1  and  C_2
REMARK    2  A    between atoms: C_5  and  C_29
REMARK    3  A    between atoms: C_9  and  C_10
REMARK    4  A    between atoms: C_9  and  N_55
REMARK    5  A    between atoms: N_15  and  S_18
REMARK    6  A    between atoms: S_18  and  C_21
REMARK                            x       y       z     vdW  Elec       q    Type
REMARK                         _______ _______ _______ _____ _____    ______ ____
ROOT
ATOM      1  C   UNL     1      -0.718   1.572   1.248  0.00  0.00    +0.199 C 
ATOM      2  O   UNL     1      -1.714   2.256   1.150  0.00  0.00    -0.278 OA
ATOM      3  N   UNL     1      -0.242   1.246   2.466  0.00  0.00    -0.300 N 
ATOM      4  C   UNL     1       0.961   0.412   2.600  0.00  0.00    +0.125 C 
ATOM      5  C   UNL     1       1.981   1.168   3.469  0.00  0.00    +0.128 C 
ATOM      6  N   UNL     1       1.304   1.635   4.687  0.00  0.00    -0.174 NA
ATOM      7  C   UNL     1       0.097   2.463   4.553  0.00  0.00    +0.128 C 
ATOM      8  C   UNL     1      -0.919   1.713   3.683  0.00  0.00    +0.125 C 
ENDROOT
BRANCH   6   9
ATOM      9  S   UNL     1       1.888   1.233   6.183  0.00  0.00    +0.061 S 
ATOM     10  O   UNL     1       3.271   0.951   6.017  0.00  0.00    -0.153 OA
ATOM     11  O   UNL     1       1.417   2.226   7.083  0.00  0.00    -0.153 OA
BRANCH   9  12
ATOM     12  C   UNL     1       1.119  -0.280   6.655  0.00  0.00    +0.107 A 
ATOM     13  C   UNL     1      -0.072  -0.260   7.357  0.00  0.00    +0.031 A 
ATOM     14  C   UNL     1      -0.679  -1.446   7.723  0.00  0.00    +0.042 A 
ATOM     15  C   UNL     1      -0.090  -2.655   7.396  0.00  0.00    +0.142 A 
ATOM     16  C   UNL     1       1.106  -2.675   6.697  0.00  0.00    +0.078 A 
ATOM     17  C   UNL     1       1.709  -1.486   6.326  0.00  0.00    +0.051 A 
ATOM     18 CL   UNL     1       1.847  -4.190   6.285  0.00  0.00    -0.081 Cl
ATOM     19  F   UNL     1      -0.681  -3.815   7.758  0.00  0.00    -0.204 F 
ENDBRANCH   9  12
ENDBRANCH   6   9
BRANCH   1  20
ATOM     20  C   UNL     1      -0.013   1.086   0.008  0.00  0.00    +0.019 C 
BRANCH  20  28
ATOM     21  C   UNL     1      -4.209   0.972  -2.555  0.00  0.00    +0.005 C 
ATOM     22  C   UNL     1      -2.824   1.611  -2.442  0.00  0.00    -0.031 C 
ATOM     23  C   UNL     1      -2.047   1.380  -3.741  0.00  0.00    +0.003 C 
ATOM     24  C   UNL     1      -0.641   1.970  -3.598  0.00  0.00    -0.031 C 
ATOM     25  C   UNL     1       0.058   1.323  -2.400  0.00  0.00    -0.075 C 
ATOM     26  C   UNL     1      -2.061   0.974  -1.278  0.00  0.00    -0.075 C 
ATOM     27  C   UNL     1      -0.741   3.480  -3.377  0.00  0.00    +0.005 C 
ATOM     28  N   UNL     1      -0.726   1.602  -1.178  0.00  0.00    +0.386 N 
ATOM     29  H   UNL     1      -0.842   2.618  -1.082  0.00  0.00    -0.081 HD
ENDBRANCH  20  28
ENDBRANCH   1  20
TORSDOF 4
