REMARK  Name = ZINC67359050
REMARK  2 active torsions:
REMARK  status: ('A' for Active; 'I' for Inactive)
REMARK    1  A    between atoms: C_1  and  N_2
REMARK    2  A    between atoms: C_9  and  C_11
REMARK                            x       y       z     vdW  Elec       q    Type
REMARK                         _______ _______ _______ _____ _____    ______ ____
ROOT
ATOM      1  C   UNL     1      -0.018   1.461   0.010  0.00  0.00    +0.129 C 
ATOM      2  N   UNL     1       0.002  -0.004   0.002  0.00  0.00    -0.302 N 
ATOM      3  C   UNL     1      -1.156  -0.694   0.009  0.00  0.00    +0.302 C 
ATOM      4  O   UNL     1      -2.217  -0.100   0.023  0.00  0.00    -0.253 OA
ATOM      5  N   UNL     1      -1.137  -2.041   0.002  0.00  0.00    -0.278 N 
ATOM      6  C   UNL     1       0.072  -2.884  -0.008  0.00  0.00    +0.110 C 
ATOM      7  C   UNL     1      -0.387  -4.229  -0.624  0.00  0.00    +0.021 C 
ATOM      8  C   UNL     1      -1.814  -4.372  -0.034  0.00  0.00    +0.029 C 
ATOM      9  C   UNL     1      -2.321  -2.914   0.009  0.00  0.00    +0.111 C 
ATOM     10  H   UNL     1       0.849  -0.478  -0.009  0.00  0.00    +0.150 HD
ENDROOT
BRANCH   9  11
ATOM     11  C   UNL     1      -3.121  -2.683   1.264  0.00  0.00    +0.018 A 
ATOM     12  C   UNL     1      -2.536  -2.063   2.352  0.00  0.00    +0.009 A 
ATOM     13  C   UNL     1      -3.267  -1.850   3.505  0.00  0.00    +0.004 A 
ATOM     14  C   UNL     1      -4.586  -2.257   3.575  0.00  0.00    +0.049 A 
ATOM     15  C   UNL     1      -5.179  -2.881   2.488  0.00  0.00    +0.162 A 
ATOM     16  C   UNL     1      -4.446  -3.088   1.325  0.00  0.00    +0.167 A 
ATOM     17  O   UNL     1      -5.013  -3.686   0.242  0.00  0.00    -0.485 OA
ATOM     18  C   UNL     1      -6.226  -4.412   0.469  0.00  0.00    +0.270 C 
ATOM     19  C   UNL     1      -7.150  -3.545   1.334  0.00  0.00    +0.270 C 
ATOM     20  O   UNL     1      -6.478  -3.280   2.573  0.00  0.00    -0.485 OA
ENDBRANCH   9  11
TORSDOF 1
