REMARK  Name = ZINC39979468
REMARK  5 active torsions:
REMARK  status: ('A' for Active; 'I' for Inactive)
REMARK    1  A    between atoms: C_1  and  C_2
REMARK    2  A    between atoms: C_5  and  S_8
REMARK    3  A    between atoms: S_8  and  N_11
REMARK    4  A    between atoms: C_13  and  N_23
REMARK    5  A    between atoms: N_23  and  C_24
REMARK                            x       y       z     vdW  Elec       q    Type
REMARK                         _______ _______ _______ _____ _____    ______ ____
ROOT
ATOM      1  N   UNL     1       1.679  -4.669   0.331  0.00  0.00    -0.110 NA
ATOM      2  C   UNL     1       1.892  -5.929   0.089  0.00  0.00    +0.192 C 
ATOM      3  C   UNL     1       3.300  -6.450  -0.082  0.00  0.00    +0.237 C 
ATOM      4  N   UNL     1       3.473  -7.886  -0.353  0.00  0.00    -0.359 N 
ATOM      5  C   UNL     1       2.410  -8.637  -0.431  0.00  0.00    +0.063 A 
ATOM      6  C   UNL     1       2.528 -10.078  -0.700  0.00  0.00    +0.027 A 
ATOM      7  C   UNL     1       1.404 -10.823  -0.774  0.00  0.00    +0.002 A 
ATOM      8  C   UNL     1       0.130 -10.257  -0.601  0.00  0.00    +0.002 A 
ATOM      9  C   UNL     1      -0.058  -8.943  -0.352  0.00  0.00    +0.030 A 
ATOM     10  C   UNL     1       1.052  -8.066  -0.253  0.00  0.00    +0.089 A 
ATOM     11  N   UNL     1       0.863  -6.787  -0.005  0.00  0.00    -0.226 NA
ATOM     12  H   UNL     1       4.358  -8.266  -0.470  0.00  0.00    +0.162 HD
ENDROOT
BRANCH   1  13
ATOM     13  S   UNL     1       0.132  -4.112   0.524  0.00  0.00    +0.100 S 
ATOM     14  O   UNL     1      -0.368  -4.707   1.713  0.00  0.00    -0.146 OA
ATOM     15  O   UNL     1      -0.513  -4.262  -0.733  0.00  0.00    -0.146 OA
BRANCH  13  20
ATOM     16  C   UNL     1       0.485   1.818   1.579  0.00  0.00    +0.044 C 
ATOM     17  C   UNL     1       0.397   0.337   1.316  0.00  0.00    -0.050 A 
ATOM     18  C   UNL     1       0.288  -0.129   0.019  0.00  0.00    +0.005 A 
ATOM     19  C   UNL     1       0.207  -1.487  -0.223  0.00  0.00    +0.029 A 
ATOM     20  C   UNL     1       0.236  -2.380   0.832  0.00  0.00    +0.113 A 
ATOM     21  C   UNL     1       0.346  -1.914   2.129  0.00  0.00    +0.029 A 
ATOM     22  C   UNL     1       0.431  -0.556   2.370  0.00  0.00    +0.005 A 
ENDBRANCH  13  20
ENDBRANCH   1  13
BRANCH   3  23
ATOM     23  N   UNL     1       4.046  -6.133   1.138  0.00  0.00    -0.318 N 
ATOM     24  H   UNL     1       3.638  -6.274   2.007  0.00  0.00    +0.148 HD
BRANCH  23  25
ATOM     25  C   UNL     1       5.347  -5.627   1.051  0.00  0.00    +0.030 A 
ATOM     26  C   UNL     1       6.000  -5.186   2.195  0.00  0.00    +0.026 A 
ATOM     27  C   UNL     1       7.284  -4.687   2.107  0.00  0.00    +0.041 A 
ATOM     28  C   UNL     1       7.922  -4.624   0.880  0.00  0.00    +0.142 A 
ATOM     29  C   UNL     1       7.273  -5.063  -0.263  0.00  0.00    +0.078 A 
ATOM     30  C   UNL     1       5.990  -5.570  -0.178  0.00  0.00    +0.045 A 
ATOM     31 CL   UNL     1       8.075  -4.984  -1.801  0.00  0.00    -0.081 Cl
ATOM     32  F   UNL     1       9.178  -4.134   0.796  0.00  0.00    -0.204 F 
ENDBRANCH  23  25
ENDBRANCH   3  23
TORSDOF 4
