REMARK  Name = ZINC61889574
REMARK  5 active torsions:
REMARK  status: ('A' for Active; 'I' for Inactive)
REMARK    1  A    between atoms: C_1  and  C_2
REMARK    2  A    between atoms: N_8  and  S_9
REMARK    3  A    between atoms: S_9  and  N_12
REMARK    4  A    between atoms: N_12  and  C_13
REMARK    5  A    between atoms: C_18  and  C_20
REMARK                            x       y       z     vdW  Elec       q    Type
REMARK                         _______ _______ _______ _____ _____    ______ ____
ROOT
ATOM      1  S   UNL     1       1.349   0.648   2.203  0.00  0.00    +0.098 S 
ATOM      2  O   UNL     1       2.562   0.116   2.717  0.00  0.00    -0.141 OA
ATOM      3  O   UNL     1       1.280   1.924   1.582  0.00  0.00    -0.141 OA
ENDROOT
BRANCH   1  10
ATOM      4  C   UNL     1      -0.754   1.345   0.442  0.00  0.00    +0.026 C 
ATOM      5  C   UNL     1      -0.364  -0.120   0.239  0.00  0.00    +0.078 C 
ATOM      6  C   UNL     1       0.029  -0.350  -1.223  0.00  0.00    +0.020 C 
ATOM      7  C   UNL     1       0.550  -1.779  -1.389  0.00  0.00    +0.003 C 
ATOM      8  C   UNL     1       1.794  -1.975  -0.518  0.00  0.00    +0.017 C 
ATOM      9  C   UNL     1       1.421  -1.764   0.952  0.00  0.00    +0.111 C 
ATOM     10  N   UNL     1       0.783  -0.448   1.097  0.00  0.00    -0.164 NA
ENDBRANCH   1  10
BRANCH   1  11
ATOM     11  N   UNL     1       0.273   0.674   3.461  0.00  0.00    -0.175 NA
ATOM     12  H   UNL     1      -0.235   1.479   3.647  0.00  0.00    +0.149 HD
BRANCH  11  13
ATOM     13  C   UNL     1       0.089  -0.517   4.293  0.00  0.00    +0.094 C 
ATOM     14  C   UNL     1      -1.140  -1.314   3.810  0.00  0.00    +0.022 C 
ATOM     15  C   UNL     1      -1.783  -1.848   5.114  0.00  0.00    +0.003 C 
ATOM     16  C   UNL     1      -1.591  -0.667   6.098  0.00  0.00    +0.020 C 
ATOM     17  C   UNL     1      -0.196  -0.105   5.748  0.00  0.00    +0.110 C 
BRANCH  17  18
ATOM     18  C   UNL     1      -0.199   1.362   5.865  0.00  0.00    +0.067 C 
ATOM     19  N   UNL     1      -0.201   2.494   5.956  0.00  0.00    -0.196 NA
ENDBRANCH  17  18
ENDBRANCH  11  13
ENDBRANCH   1  11
TORSDOF 4
