REMARK  Name = ZINC39327620
REMARK  5 active torsions:
REMARK  status: ('A' for Active; 'I' for Inactive)
REMARK    1  A    between atoms: C_1  and  C_2
REMARK    2  A    between atoms: C_4  and  S_10
REMARK    3  A    between atoms: S_10  and  C_11
REMARK    4  A    between atoms: C_11  and  C_12
REMARK    5  A    between atoms: C_17  and  C_22
REMARK                            x       y       z     vdW  Elec       q    Type
REMARK                         _______ _______ _______ _____ _____    ______ ____
ROOT
ATOM      1  C   UNL     1       0.004  -1.641  -3.990  0.00  0.00    +0.132 C 
ENDROOT
BRANCH   1   2
ATOM      2  C   UNL     1       0.006  -2.261  -5.364  0.00  0.00    +0.086 C 
ATOM      3  N   UNL     1       0.016  -3.541  -5.660  0.00  0.00    -0.149 NA
ATOM      4  N   UNL     1       0.018  -3.770  -6.926  0.00  0.00    -0.110 NA
ATOM      5  C   UNL     1       0.016  -2.684  -7.631  0.00  0.00    +0.252 C 
ATOM      6  C   UNL     1      -0.010  -1.570  -6.645  0.00  0.00    +0.062 C 
ATOM      7  C   UNL     1      -0.026  -0.273  -7.018  0.00  0.00    -0.048 C 
ATOM      8  C   UNL     1      -0.096   0.005  -8.510  0.00  0.00    +0.152 C 
ATOM      9  C   UNL     1       0.458  -1.177  -9.270  0.00  0.00    +0.318 C 
ATOM     10  O   UNL     1       1.277  -1.010 -10.142  0.00  0.00    -0.250 OA
ATOM     11  O   UNL     1       0.036  -2.430  -8.965  0.00  0.00    -0.405 OA
ATOM     12  C   UNL     1       0.022   0.843  -6.006  0.00  0.00    +0.040 C 
ENDBRANCH   1   2
BRANCH   1  13
ATOM     13  S   UNL     1       0.029  -2.951  -2.736  0.00  0.00    -0.117 S 
BRANCH  13  17
ATOM     14  C   UNL     1      -0.018   1.503   0.010  0.00  0.00    +0.045 C 
ATOM     15  C   UNL     1       0.002  -0.004   0.002  0.00  0.00    -0.031 A 
ATOM     16  C   UNL     1       0.006  -0.687  -1.199  0.00  0.00    +0.021 A 
ATOM     17  C   UNL     1       0.025  -2.076  -1.206  0.00  0.00    +0.027 A 
ATOM     18  C   UNL     1       0.040  -2.775  -0.004  0.00  0.00    +0.056 A 
ATOM     19  C   UNL     1       0.036  -2.086   1.194  0.00  0.00    +0.041 A 
ATOM     20  C   UNL     1       0.023  -0.701   1.197  0.00  0.00    +0.045 A 
ATOM     21 CL   UNL     1       0.025   0.162   2.703  0.00  0.00    -0.083 Cl
ATOM     22 CL   UNL     1       0.063  -4.511  -0.007  0.00  0.00    -0.082 Cl
ENDBRANCH  13  17
ENDBRANCH   1  13
TORSDOF 3
