REMARK  Name = ZINC19890255
REMARK  2 active torsions:
REMARK  status: ('A' for Active; 'I' for Inactive)
REMARK    1  A    between atoms: C_14  and  C_17
REMARK    2  A    between atoms: C_21  and  N_23
REMARK                            x       y       z     vdW  Elec       q    Type
REMARK                         _______ _______ _______ _____ _____    ______ ____
ROOT
ATOM      1  C   UNL     1       4.476   1.158   1.994  0.00  0.00    +0.000 A 
ATOM      2  C   UNL     1       4.119  -0.058   2.549  0.00  0.00    +0.002 A 
ATOM      3  C   UNL     1       2.877  -0.596   2.277  0.00  0.00    +0.023 A 
ATOM      4  C   UNL     1       1.991   0.083   1.449  0.00  0.00    +0.031 A 
ATOM      5  C   UNL     1       2.344   1.303   0.892  0.00  0.00    -0.019 A 
ATOM      6  C   UNL     1       3.596   1.833   1.173  0.00  0.00    +0.006 A 
ATOM      7  C   UNL     1       1.423   2.072  -0.000  0.00  0.00    +0.049 C 
ATOM      8  C   UNL     1       1.846   1.974  -1.447  0.00  0.00    -0.023 C 
ATOM      9  C   UNL     1       0.793   1.927  -2.225  0.00  0.00    -0.030 C 
ATOM     10  C   UNL     1      -0.479   1.992  -1.403  0.00  0.00    +0.033 C 
ATOM     11  C   UNL     1      -0.019   1.527   0.010  0.00  0.00    +0.029 C 
ATOM     12  C   UNL     1       0.002  -0.004   0.002  0.00  0.00    +0.105 C 
ATOM     13  N   UNL     1       0.737  -0.475   1.180  0.00  0.00    -0.336 N 
ATOM     14  H   UNL     1       0.300  -1.250   1.828  0.00  0.00    +0.147 HD
ENDROOT
BRANCH  12  15
ATOM     15  C   UNL     1       0.686  -0.493  -1.248  0.00  0.00    -0.025 A 
ATOM     16  C   UNL     1       2.067  -0.504  -1.321  0.00  0.00    +0.005 A 
ATOM     17  C   UNL     1       2.695  -0.956  -2.467  0.00  0.00    +0.003 A 
ATOM     18  C   UNL     1       1.942  -1.388  -3.543  0.00  0.00    +0.033 A 
ATOM     19  C   UNL     1       0.562  -1.373  -3.472  0.00  0.00    +0.127 A 
ATOM     20  C   UNL     1      -0.066  -0.924  -2.325  0.00  0.00    +0.038 A 
BRANCH  19  21
ATOM     21  N   UNL     1      -0.244  -1.835  -4.624  0.00  0.00    +0.056 N 
ATOM     22  O   UNL     1      -1.460  -1.821  -4.561  0.00  0.00    -0.126 OA
ATOM     23  O   UNL     1       0.309  -2.230  -5.635  0.00  0.00    -0.126 OA
ENDBRANCH  19  21
ENDBRANCH  12  15
TORSDOF 2
