REMARK  Name = ZINC08838563
REMARK  7 active torsions:
REMARK  status: ('A' for Active; 'I' for Inactive)
REMARK    1  A    between atoms: C_1  and  O_2
REMARK    2  A    between atoms: O_2  and  C_3
REMARK    3  A    between atoms: C_6  and  N_9
REMARK    4  A    between atoms: C_11  and  C_16
REMARK    5  A    between atoms: C_16  and  N_17
REMARK    6  A    between atoms: N_17  and  S_18
REMARK    7  A    between atoms: S_18  and  C_21
REMARK                            x       y       z     vdW  Elec       q    Type
REMARK                         _______ _______ _______ _____ _____    ______ ____
ROOT
ATOM      1  N   UNL     1       1.489   2.417  -1.253  0.00  0.00    -0.234 N 
ATOM      2  C   UNL     1       1.423   1.646  -0.003  0.00  0.00    +0.163 C 
ATOM      3  C   UNL     1      -0.013   1.086   0.008  0.00  0.00    +0.211 C 
ATOM      4  O   UNL     1      -0.599   1.595  -1.224  0.00  0.00    -0.444 OA
ATOM      5  C   UNL     1       0.306   2.334  -1.877  0.00  0.00    +0.408 C 
ATOM      6  O   UNL     1       0.076   2.879  -2.939  0.00  0.00    -0.226 OA
ENDROOT
BRANCH   1  10
ATOM      7  C   UNL     1       4.814   4.523  -2.631  0.00  0.00    +0.120 A 
ATOM      8  C   UNL     1       3.642   4.514  -3.374  0.00  0.00    +0.047 A 
ATOM      9  C   UNL     1       2.541   3.817  -2.918  0.00  0.00    +0.027 A 
ATOM     10  C   UNL     1       2.606   3.125  -1.716  0.00  0.00    +0.040 A 
ATOM     11  C   UNL     1       3.777   3.139  -0.971  0.00  0.00    +0.027 A 
ATOM     12  C   UNL     1       4.880   3.832  -1.430  0.00  0.00    +0.047 A 
BRANCH   7  14
ATOM     13  C   UNL     1       7.071   5.176  -2.265  0.00  0.00    +0.277 C 
ATOM     14  O   UNL     1       5.898   5.210  -3.080  0.00  0.00    -0.495 OA
ENDBRANCH   7  14
ENDBRANCH   1  10
BRANCH   3  15
ATOM     15  C   UNL     1      -0.781   1.604   1.225  0.00  0.00    +0.152 C 
BRANCH  15  16
ATOM     16  N   UNL     1      -2.116   1.001   1.253  0.00  0.00    -0.186 NA
ATOM     17  H   UNL     1      -2.464   0.557   0.464  0.00  0.00    +0.148 HD
BRANCH  16  18
ATOM     18  S   UNL     1      -3.031   1.077   2.631  0.00  0.00    +0.061 S 
ATOM     19  O   UNL     1      -4.265   0.436   2.336  0.00  0.00    -0.153 OA
ATOM     20  O   UNL     1      -2.192   0.660   3.699  0.00  0.00    -0.153 OA
BRANCH  18  21
ATOM     21  C   UNL     1      -3.402   2.776   2.917  0.00  0.00    +0.143 A 
ATOM     22  C   UNL     1      -4.710   3.219   2.850  0.00  0.00    +0.069 A 
ATOM     23  C   UNL     1      -5.001   4.553   3.075  0.00  0.00    +0.125 A 
ATOM     24  C   UNL     1      -3.982   5.445   3.366  0.00  0.00    +0.041 A 
ATOM     25  C   UNL     1      -2.675   5.002   3.434  0.00  0.00    +0.043 A 
ATOM     26  C   UNL     1      -2.384   3.666   3.213  0.00  0.00    +0.150 A 
ATOM     27  F   UNL     1      -1.107   3.233   3.283  0.00  0.00    -0.203 F 
ATOM     28  F   UNL     1      -6.279   4.986   3.009  0.00  0.00    -0.205 F 
ENDBRANCH  18  21
ENDBRANCH  16  18
ENDBRANCH  15  16
ENDBRANCH   3  15
TORSDOF 6
