REMARK  Name = ZINC65265722
REMARK  7 active torsions:
REMARK  status: ('A' for Active; 'I' for Inactive)
REMARK    1  A    between atoms: C_1  and  C_2
REMARK    2  A    between atoms: C_2  and  C_3
REMARK    3  A    between atoms: C_3  and  C_4
REMARK    4  A    between atoms: C_4  and  S_5
REMARK    5  A    between atoms: S_5  and  N_8
REMARK    6  A    between atoms: N_23  and  C_24
REMARK    7  A    between atoms: C_24  and  C_25
REMARK                            x       y       z     vdW  Elec       q    Type
REMARK                         _______ _______ _______ _____ _____    ______ ____
ROOT
ATOM      1  N   UNL     1       1.545  -4.264  -2.652  0.00  0.00    -0.179 NA
ATOM      2  C   UNL     1       2.623  -5.000  -1.977  0.00  0.00    +0.109 C 
ATOM      3  C   UNL     1       3.168  -6.066  -2.933  0.00  0.00    +0.020 C 
ATOM      4  C   UNL     1       2.015  -6.951  -3.414  0.00  0.00    +0.036 C 
ATOM      5  C   UNL     1       0.991  -6.099  -4.159  0.00  0.00    +0.100 C 
ATOM      6  C   UNL     1       0.425  -5.024  -3.225  0.00  0.00    +0.142 C 
ATOM      7  C   UNL     1      -0.136  -6.978  -4.661  0.00  0.00    +0.099 C 
ATOM      8  N   UNL     1      -1.026  -6.397  -5.547  0.00  0.00    -0.286 N 
ATOM      9  C   UNL     1      -0.511  -5.511  -6.501  0.00  0.00    +0.145 A 
ATOM     10  C   UNL     1       0.800  -5.044  -6.384  0.00  0.00    +0.069 A 
ATOM     11  C   UNL     1       1.292  -4.159  -7.332  0.00  0.00    +0.028 A 
ATOM     12  C   UNL     1       0.455  -3.774  -8.371  0.00  0.00    +0.022 A 
ATOM     13  C   UNL     1      -0.828  -4.279  -8.427  0.00  0.00    +0.113 A 
ATOM     14  N   UNL     1      -1.272  -5.119  -7.510  0.00  0.00    -0.238 NA
ATOM     15  N   UNL     1       1.619  -5.469  -5.328  0.00  0.00    -0.328 N 
ATOM     16  N   UNL     1      -0.261  -8.207  -4.280  0.00  0.00    -0.370 N 
ATOM     17  H   UNL     1       2.580  -5.349  -5.369  0.00  0.00    +0.147 HD
ATOM     18  H   UNL     1       0.378  -8.589  -3.657  0.00  0.00    +0.161 HD
ATOM     19  H   UNL     1      -1.974  -6.597  -5.509  0.00  0.00    +0.155 HD
ENDROOT
BRANCH   1  20
ATOM     20  S   UNL     1       1.588  -2.612  -2.758  0.00  0.00    +0.032 S 
ATOM     21  O   UNL     1       0.819  -2.303  -3.912  0.00  0.00    -0.158 OA
ATOM     22  O   UNL     1       2.968  -2.281  -2.697  0.00  0.00    -0.158 OA
BRANCH  20  23
ATOM     23  C   UNL     1       0.739  -2.027  -1.265  0.00  0.00    +0.185 C 
BRANCH  23  24
ATOM     24  C   UNL     1       0.718  -0.497  -1.257  0.00  0.00    +0.024 C 
BRANCH  24  26
ATOM     25  C   UNL     1      -0.019   1.526   0.010  0.00  0.00    +0.004 C 
ATOM     26  C   UNL     1       0.002  -0.004   0.002  0.00  0.00    -0.002 C 
ENDBRANCH  24  26
ENDBRANCH  23  24
ENDBRANCH  20  23
ENDBRANCH   1  20
BRANCH  16  27
ATOM     27  C   UNL     1      -1.365  -9.024  -4.789  0.00  0.00    +0.149 C 
BRANCH  27  28
ATOM     28  C   UNL     1      -1.284 -10.406  -4.195  0.00  0.00    -0.028 A 
ATOM     29  C   UNL     1      -0.558 -11.392  -4.837  0.00  0.00    +0.005 A 
ATOM     30  C   UNL     1      -0.483 -12.661  -4.293  0.00  0.00    +0.000 A 
ATOM     31  C   UNL     1      -1.133 -12.943  -3.106  0.00  0.00    +0.000 A 
ATOM     32  C   UNL     1      -1.858 -11.957  -2.463  0.00  0.00    +0.000 A 
ATOM     33  C   UNL     1      -1.930 -10.687  -3.006  0.00  0.00    +0.005 A 
ENDBRANCH  27  28
ENDBRANCH  16  27
TORSDOF 6
