REMARK  Name = ZINC20355454
REMARK  6 active torsions:
REMARK  status: ('A' for Active; 'I' for Inactive)
REMARK    1  A    between atoms: C_1  and  C_2
REMARK    2  A    between atoms: C_5  and  C_33
REMARK    3  A    between atoms: N_8  and  S_10
REMARK    4  A    between atoms: S_10  and  C_13
REMARK    5  A    between atoms: N_19  and  C_24
REMARK    6  A    between atoms: C_24  and  C_25
REMARK                            x       y       z     vdW  Elec       q    Type
REMARK                         _______ _______ _______ _____ _____    ______ ____
ROOT
ATOM      1  C   UNL     1      -1.253   1.526   4.835  0.00  0.00    +0.107 A 
ATOM      2  C   UNL     1      -2.550   1.989   4.703  0.00  0.00    +0.032 A 
ATOM      3  C   UNL     1      -3.054   2.914   5.599  0.00  0.00    +0.049 A 
ATOM      4  C   UNL     1      -2.258   3.378   6.632  0.00  0.00    +0.143 A 
ATOM      5  C   UNL     1      -0.951   2.913   6.764  0.00  0.00    +0.081 A 
ATOM      6  C   UNL     1      -0.454   1.982   5.867  0.00  0.00    +0.055 A 
ATOM      7  N   UNL     1      -0.155   3.392   7.814  0.00  0.00    -0.256 N 
ATOM      8  C   UNL     1      -0.747   4.036   8.843  0.00  0.00    +0.258 C 
ATOM      9  O   UNL     1      -0.076   4.486   9.748  0.00  0.00    -0.271 OA
ATOM     10  C   UNL     1      -2.247   4.192   8.864  0.00  0.00    +0.325 C 
ATOM     11  O   UNL     1      -2.738   4.286   7.524  0.00  0.00    -0.481 OA
ENDROOT
BRANCH   1  12
ATOM     12  S   UNL     1      -0.621   0.347   3.688  0.00  0.00    +0.061 S 
ATOM     13  O   UNL     1      -1.744  -0.332   3.144  0.00  0.00    -0.153 OA
ATOM     14  O   UNL     1       0.435  -0.336   4.349  0.00  0.00    -0.153 OA
BRANCH  12  20
ATOM     15  C   UNL     1       3.619   1.586   1.189  0.00  0.00    +0.009 C 
ATOM     16  C   UNL     1       2.175   1.082   1.218  0.00  0.00    +0.002 C 
ATOM     17  C   UNL     1       1.423   1.616  -0.003  0.00  0.00    +0.009 C 
ATOM     18  C   UNL     1      -0.013   1.086   0.008  0.00  0.00    +0.002 C 
ATOM     19  C   UNL     1      -0.726   1.581   1.270  0.00  0.00    +0.112 C 
ATOM     20  N   UNL     1       0.069   1.195   2.444  0.00  0.00    -0.176 NA
ATOM     21  C   UNL     1       1.486   1.577   2.494  0.00  0.00    +0.112 C 
ATOM     22  C   UNL     1      -0.754   1.593  -1.230  0.00  0.00    +0.009 C 
ENDBRANCH  12  20
ENDBRANCH   1  12
BRANCH   7  23
ATOM     23  C   UNL     1       1.297   3.199   7.795  0.00  0.00    +0.209 C 
BRANCH  23  24
ATOM     24  C   UNL     1       1.951   4.369   7.105  0.00  0.00    +0.233 C 
ATOM     25  O   UNL     1       1.271   5.275   6.673  0.00  0.00    -0.274 OA
ATOM     26  N   UNL     1       3.291   4.408   6.970  0.00  0.00    -0.300 N 
ATOM     27  C   UNL     1       4.129   3.321   7.494  0.00  0.00    +0.108 C 
ATOM     28  C   UNL     1       5.027   2.805   6.359  0.00  0.00    +0.019 C 
ATOM     29  C   UNL     1       5.815   3.976   5.767  0.00  0.00    +0.003 C 
ATOM     30  C   UNL     1       4.843   5.004   5.183  0.00  0.00    +0.019 C 
ATOM     31  C   UNL     1       3.943   5.542   6.300  0.00  0.00    +0.108 C 
ENDBRANCH  23  24
ENDBRANCH   7  23
TORSDOF 4
