REMARK  Name = ZINC63373111
REMARK  4 active torsions:
REMARK  status: ('A' for Active; 'I' for Inactive)
REMARK    1  A    between atoms: C_8  and  C_16
REMARK    2  A    between atoms: N_22  and  C_25
REMARK    3  A    between atoms: C_25  and  C_26
REMARK    4  A    between atoms: C_26  and  C_27
REMARK                            x       y       z     vdW  Elec       q    Type
REMARK                         _______ _______ _______ _____ _____    ______ ____
ROOT
ATOM      1  C   UNL     1       3.429  -2.235   2.321  0.00  0.00    +0.100 A 
ATOM      2  H   UNL     1       4.961  -1.064   4.923  0.00  0.00    +0.173 HD
ATOM      3  C   UNL     1       4.471  -1.916   3.140  0.00  0.00    +0.263 A 
ATOM      4  N   UNL     1       4.223  -1.294   4.338  0.00  0.00    -0.274 N 
ATOM      5  C   UNL     1       2.962  -1.000   4.705  0.00  0.00    +0.332 A 
ATOM      6  O   UNL     1       2.761  -0.449   5.770  0.00  0.00    -0.246 OA
ATOM      7  N   UNL     1       1.920  -1.307   3.910  0.00  0.00    -0.260 N 
ATOM      8  C   UNL     1       2.120  -1.913   2.723  0.00  0.00    +0.265 A 
ATOM      9  O   UNL     1       1.174  -2.185   2.006  0.00  0.00    -0.267 OA
ATOM     10  O   UNL     1       5.737  -2.209   2.776  0.00  0.00    -0.267 OA
ENDROOT
BRANCH   1  17
ATOM     11  C   UNL     1       7.194  -5.338   4.822  0.00  0.00    +0.001 A 
ATOM     12  C   UNL     1       6.032  -6.056   5.138  0.00  0.00    +0.002 A 
ATOM     13  C   UNL     1       4.924  -6.020   4.369  0.00  0.00    +0.026 A 
ATOM     14  C   UNL     1       4.892  -5.236   3.185  0.00  0.00    +0.043 A 
ATOM     15  N   UNL     1       3.941  -5.024   2.303  0.00  0.00    -0.376 N 
ATOM     16  C   UNL     1       4.483  -4.200   1.227  0.00  0.00    +0.128 C 
ATOM     17  C   UNL     1       3.676  -2.919   1.001  0.00  0.00    +0.121 C 
ATOM     18  N   UNL     1       4.453  -2.032   0.121  0.00  0.00    -0.307 NA
ATOM     19  C   UNL     1       5.682  -1.531   0.743  0.00  0.00    +0.086 C 
ATOM     20  C   UNL     1       6.655  -2.696   1.003  0.00  0.00    +0.048 C 
ATOM     21  C   UNL     1       5.867  -3.782   1.701  0.00  0.00    -0.035 C 
ATOM     22  C   UNL     1       6.106  -4.457   2.832  0.00  0.00    -0.001 A 
ATOM     23  C   UNL     1       7.270  -4.557   3.721  0.00  0.00    +0.010 A 
ATOM     24  H   UNL     1       4.651  -2.481  -0.761  0.00  0.00    +0.123 HD
ATOM     25  H   UNL     1       3.032  -5.358   2.357  0.00  0.00    +0.160 HD
ENDBRANCH   1  17
BRANCH   7  26
ATOM     26  C   UNL     1       0.558  -0.975   4.337  0.00  0.00    +0.134 C 
BRANCH  26  27
ATOM     27  C   UNL     1       0.196   0.426   3.841  0.00  0.00    +0.057 C 
BRANCH  27  28
ATOM     28  C   UNL     1      -1.205   0.768   4.280  0.00  0.00    -0.046 A 
ATOM     29  C   UNL     1      -2.279   0.449   3.470  0.00  0.00    +0.006 A 
ATOM     30  C   UNL     1      -3.564   0.761   3.871  0.00  0.00    +0.038 A 
ATOM     31  C   UNL     1      -3.775   1.393   5.085  0.00  0.00    +0.123 A 
ATOM     32  C   UNL     1      -2.699   1.712   5.895  0.00  0.00    +0.038 A 
ATOM     33  C   UNL     1      -1.415   1.394   5.494  0.00  0.00    +0.006 A 
ATOM     34  F   UNL     1      -5.031   1.700   5.478  0.00  0.00    -0.205 F 
ENDBRANCH  27  28
ENDBRANCH  26  27
ENDBRANCH   7  26
TORSDOF 4
