REMARK  Name = ZINC10355742
REMARK  11 active torsions:
REMARK  status: ('A' for Active; 'I' for Inactive)
REMARK    1  A    between atoms: C_1  and  C_2
REMARK    2  A    between atoms: C_7  and  O_33
REMARK    3  A    between atoms: C_8  and  C_12
REMARK    4  A    between atoms: C_14  and  C_29
REMARK    5  A    between atoms: C_15  and  C_28
REMARK    6  A    between atoms: N_16  and  C_20
REMARK    7  A    between atoms: C_23  and  O_26
REMARK    8  A    between atoms: O_26  and  C_27
REMARK    9  A    between atoms: C_29  and  O_31
REMARK   10  A    between atoms: O_31  and  C_32
REMARK   11  A    between atoms: O_33  and  C_34
REMARK                            x       y       z     vdW  Elec       q    Type
REMARK                         _______ _______ _______ _____ _____    ______ ____
ROOT
ATOM      1  C   UNL     1       1.621  -0.565   0.348  0.00  0.00    +0.145 C 
ATOM      2  C   UNL     1       0.552   0.048  -0.533  0.00  0.00    +0.078 C 
ATOM      3  C   UNL     1       0.606   1.380  -0.752  0.00  0.00    +0.027 C 
ATOM      4  N   UNL     1       1.591   2.147  -0.198  0.00  0.00    -0.255 N 
ATOM      5  C   UNL     1       2.558   1.657   0.588  0.00  0.00    +0.142 C 
ATOM      6  S   UNL     1       3.734   2.730   1.219  0.00  0.00    -0.018 S 
ATOM      7  N   UNL     1       2.638   0.348   0.897  0.00  0.00    -0.315 N 
ATOM      8  C   UNL     1      -0.435   2.030  -1.628  0.00  0.00    +0.062 C 
ATOM      9  H   UNL     1       3.347   0.015   1.468  0.00  0.00    +0.149 HD
ENDROOT
BRANCH   1  16
ATOM     10  C   UNL     1       3.343  -7.205  -2.233  0.00  0.00    +0.052 C 
ATOM     11  C   UNL     1       3.730  -5.909  -1.518  0.00  0.00    +0.175 C 
ATOM     12  C   UNL     1       4.188  -4.838  -2.536  0.00  0.00    +0.083 C 
ATOM     13  C   UNL     1       3.642  -3.565  -1.918  0.00  0.00    +0.001 A 
ATOM     14  C   UNL     1       3.918  -2.235  -2.147  0.00  0.00    +0.053 A 
ATOM     15  C   UNL     1       3.259  -1.256  -1.417  0.00  0.00    +0.126 A 
ATOM     16  C   UNL     1       2.332  -1.625  -0.453  0.00  0.00    +0.023 A 
ATOM     17  C   UNL     1       2.055  -2.957  -0.229  0.00  0.00    +0.055 A 
ATOM     18  C   UNL     1       2.708  -3.944  -0.963  0.00  0.00    +0.125 A 
ATOM     19  O   UNL     1       2.578  -5.299  -0.911  0.00  0.00    -0.488 OA
BRANCH  15  20
ATOM     20  O   UNL     1       3.525   0.059  -1.642  0.00  0.00    -0.495 OA
ATOM     21  C   UNL     1       4.435   0.365  -2.700  0.00  0.00    +0.277 C 
ENDBRANCH  15  20
ENDBRANCH   1  16
BRANCH   4  22
ATOM     22  C   UNL     1       1.588   3.523  -0.465  0.00  0.00    +0.040 A 
ATOM     23  C   UNL     1       2.349   4.028  -1.511  0.00  0.00    +0.027 A 
ATOM     24  C   UNL     1       2.342   5.383  -1.778  0.00  0.00    +0.047 A 
ATOM     25  C   UNL     1       1.583   6.240  -0.994  0.00  0.00    +0.120 A 
ATOM     26  C   UNL     1       0.827   5.737   0.055  0.00  0.00    +0.047 A 
ATOM     27  C   UNL     1       0.829   4.381   0.319  0.00  0.00    +0.027 A 
BRANCH  25  28
ATOM     28  O   UNL     1       1.581   7.575  -1.254  0.00  0.00    -0.495 OA
ATOM     29  C   UNL     1       2.382   8.024  -2.348  0.00  0.00    +0.277 C 
ENDBRANCH  25  28
ENDBRANCH   4  22
BRANCH   2  30
ATOM     30  C   UNL     1      -0.467  -0.747  -1.107  0.00  0.00    +0.339 C 
ATOM     31  O   UNL     1      -1.378  -0.220  -1.719  0.00  0.00    -0.245 OA
BRANCH  30  32
ATOM     32  O   UNL     1      -0.429  -2.090  -0.977  0.00  0.00    -0.465 OA
ATOM     33  C   UNL     1      -1.429  -2.837  -1.673  0.00  0.00    +0.280 C 
ENDBRANCH  30  32
ENDBRANCH   2  30
TORSDOF 6
