REMARK  Name = ZINC63588422
REMARK  2 active torsions:
REMARK  status: ('A' for Active; 'I' for Inactive)
REMARK    1  A    between atoms: C_7  and  S_16
REMARK    2  A    between atoms: S_16  and  N_19
REMARK                            x       y       z     vdW  Elec       q    Type
REMARK                         _______ _______ _______ _____ _____    ______ ____
ROOT
ATOM      1  C   UNL     1      -0.019   1.520   0.010  0.00  0.00    +0.001 C 
ATOM      2  C   UNL     1       1.397   2.085  -0.000  0.00  0.00    +0.005 C 
ATOM      3  C   UNL     1       2.114   1.670  -1.285  0.00  0.00    +0.037 C 
ATOM      4  C   UNL     1       2.812   0.346  -1.065  0.00  0.00    -0.021 C 
ATOM      5  C   UNL     1       3.963  -0.038  -1.638  0.00  0.00    -0.013 C 
ATOM      6  C   UNL     1       4.926   0.645  -2.407  0.00  0.00    +0.035 C 
ATOM      7  C   UNL     1       6.217   0.235  -2.224  0.00  0.00    +0.106 C 
ATOM      8  C   UNL     1       6.517  -0.822  -1.263  0.00  0.00    +0.027 C 
ATOM      9  C   UNL     1       5.580  -1.633  -0.760  0.00  0.00    +0.006 C 
ATOM     10  C   UNL     1       4.160  -1.490  -1.227  0.00  0.00    +0.159 C 
ATOM     11  N   UNL     1       3.166  -1.699  -0.183  0.00  0.00    -0.276 NA
ATOM     12  C   UNL     1       2.398  -0.643  -0.138  0.00  0.00    +0.040 C 
ATOM     13  C   UNL     1       1.210  -0.513   0.790  0.00  0.00    +0.055 C 
ATOM     14  C   UNL     1       0.002  -0.004   0.002  0.00  0.00    +0.006 C 
ENDROOT
BRANCH   7  15
ATOM     15  S   UNL     1       7.518   0.982  -3.147  0.00  0.00    +0.061 S 
ATOM     16  O   UNL     1       8.361  -0.074  -3.589  0.00  0.00    -0.153 OA
ATOM     17  O   UNL     1       6.905   1.895  -4.048  0.00  0.00    -0.153 OA
BRANCH  15  18
ATOM     18  N   UNL     1       8.412   1.889  -2.089  0.00  0.00    -0.172 NA
ATOM     19  C   UNL     1       8.079   3.300  -1.832  0.00  0.00    +0.137 C 
ATOM     20  C   UNL     1       7.999   3.510  -0.316  0.00  0.00    +0.177 C 
ATOM     21  O   UNL     1       9.197   3.019   0.291  0.00  0.00    -0.377 OA
ATOM     22  C   UNL     1       9.409   1.616   0.118  0.00  0.00    +0.177 C 
ATOM     23  C   UNL     1       9.558   1.307  -1.372  0.00  0.00    +0.137 C 
ENDBRANCH  15  18
ENDBRANCH   7  15
TORSDOF 2
