REMARK  Name = ZINC56811415
REMARK  7 active torsions:
REMARK  status: ('A' for Active; 'I' for Inactive)
REMARK    1  A    between atoms: C_1  and  C_2
REMARK    2  A    between atoms: C_5  and  O_27
REMARK    3  A    between atoms: C_6  and  C_8
REMARK    4  A    between atoms: C_8  and  C_10
REMARK    5  A    between atoms: C_8  and  N_11
REMARK    6  A    between atoms: C_20  and  C_22
REMARK    7  A    between atoms: O_27  and  C_28
REMARK                            x       y       z     vdW  Elec       q    Type
REMARK                         _______ _______ _______ _____ _____    ______ ____
ROOT
ATOM      1  N   UNL     1       1.022  -1.945   3.443  0.00  0.00    -0.293 N 
ATOM      2  C   UNL     1       1.608  -2.523   4.511  0.00  0.00    +0.303 C 
ATOM      3  O   UNL     1       1.800  -3.723   4.524  0.00  0.00    -0.253 OA
ATOM      4  N   UNL     1       1.981  -1.769   5.565  0.00  0.00    -0.283 N 
ATOM      5  C   UNL     1       1.855  -0.306   5.519  0.00  0.00    +0.128 C 
ATOM      6  C   UNL     1       1.018   0.151   6.721  0.00  0.00    +0.127 C 
ATOM      7  N   UNL     1       1.557  -0.476   7.935  0.00  0.00    -0.295 N 
ATOM      8  C   UNL     1       1.683  -1.939   7.980  0.00  0.00    +0.127 C 
ATOM      9  C   UNL     1       2.515  -2.397   6.781  0.00  0.00    +0.128 C 
ATOM     10  C   UNL     1       1.930   0.278   8.988  0.00  0.00    +0.247 C 
ATOM     11  O   UNL     1       2.473  -0.241   9.946  0.00  0.00    -0.270 OA
ATOM     12  H   UNL     1       0.938  -0.980   3.399  0.00  0.00    +0.151 HD
ENDROOT
BRANCH  10  13
ATOM     13  C   UNL     1       1.681   1.728   8.981  0.00  0.00    +0.044 A 
ATOM     14  C   UNL     1       2.645   2.663   9.509  0.00  0.00    +0.020 A 
ATOM     15  C   UNL     1       2.297   3.964   9.442  0.00  0.00    +0.046 A 
ATOM     16  S   UNL     1       0.692   3.913   8.676  0.00  0.00    -0.104 S 
ATOM     17  C   UNL     1       0.520   2.257   8.464  0.00  0.00    +0.058 A 
ENDBRANCH  10  13
BRANCH   1  18
ATOM     18  C   UNL     1       0.512  -2.776   2.350  0.00  0.00    +0.105 C 
ATOM     19  C   UNL     1      -0.941  -3.162   2.637  0.00  0.00    +0.033 C 
BRANCH  18  25
ATOM     20  C   UNL     1       0.485   1.591  -0.092  0.00  0.00    +0.044 C 
ATOM     21  C   UNL     1       0.567   0.087  -0.112  0.00  0.00    -0.050 A 
ATOM     22  C   UNL     1       0.706  -0.582  -1.314  0.00  0.00    +0.007 A 
ATOM     23  C   UNL     1       0.781  -1.961  -1.335  0.00  0.00    +0.046 A 
ATOM     24  C   UNL     1       0.719  -2.675  -0.147  0.00  0.00    +0.125 A 
ATOM     25  C   UNL     1       0.580  -2.003   1.058  0.00  0.00    +0.014 A 
ATOM     26  C   UNL     1       0.510  -0.623   1.073  0.00  0.00    +0.012 A 
BRANCH  24  27
ATOM     27  O   UNL     1       0.792  -4.032  -0.165  0.00  0.00    -0.495 OA
ATOM     28  C   UNL     1       0.933  -4.658  -1.442  0.00  0.00    +0.277 C 
ENDBRANCH  24  27
ENDBRANCH  18  25
ENDBRANCH   1  18
TORSDOF 4
