REMARK  Name = ZINC16022845
REMARK  6 active torsions:
REMARK  status: ('A' for Active; 'I' for Inactive)
REMARK    1  A    between atoms: C_1  and  C_2
REMARK    2  A    between atoms: C_12  and  C_14
REMARK    3  A    between atoms: C_18  and  S_20
REMARK    4  A    between atoms: S_20  and  N_23
REMARK    5  A    between atoms: C_25  and  C_32
REMARK    6  A    between atoms: C_28  and  C_31
REMARK                            x       y       z     vdW  Elec       q    Type
REMARK                         _______ _______ _______ _____ _____    ______ ____
ROOT
ATOM      1  C   UNL     1       1.713  -2.587   6.421  0.00  0.00    +0.039 A 
ATOM      2  C   UNL     1       2.549  -1.851   7.262  0.00  0.00    +0.013 A 
ATOM      3  C   UNL     1       3.181  -0.721   6.785  0.00  0.00    +0.003 A 
ATOM      4  C   UNL     1       2.992  -0.320   5.474  0.00  0.00    +0.028 A 
ATOM      5  C   UNL     1       2.161  -1.042   4.637  0.00  0.00    +0.106 A 
ATOM      6  C   UNL     1       1.523  -2.174   5.101  0.00  0.00    +0.041 A 
ENDROOT
BRANCH   1  17
ATOM      7  C   UNL     1       1.195  -1.963   9.378  0.00  0.00    +0.029 C 
ATOM      8  C   UNL     1       1.832  -3.349   9.246  0.00  0.00    +0.083 C 
ATOM      9  C   UNL     1       1.658  -4.138  10.553  0.00  0.00    +0.059 C 
ATOM     10  C   UNL     1       0.854  -5.357  10.158  0.00  0.00    -0.024 A 
ATOM     11  C   UNL     1       0.399  -6.424  10.908  0.00  0.00    +0.005 A 
ATOM     12  C   UNL     1      -0.330  -7.434  10.307  0.00  0.00    +0.000 A 
ATOM     13  C   UNL     1      -0.602  -7.373   8.952  0.00  0.00    +0.002 A 
ATOM     14  C   UNL     1      -0.149  -6.311   8.200  0.00  0.00    +0.024 A 
ATOM     15  C   UNL     1       0.587  -5.287   8.800  0.00  0.00    +0.040 A 
ATOM     16  N   UNL     1       1.132  -4.135   8.226  0.00  0.00    -0.264 N 
ATOM     17  C   UNL     1       1.033  -3.799   6.925  0.00  0.00    +0.251 C 
ATOM     18  O   UNL     1       0.385  -4.492   6.166  0.00  0.00    -0.270 OA
ENDBRANCH   1  17
BRANCH   5  19
ATOM     19  S   UNL     1       1.921  -0.519   2.971  0.00  0.00    +0.061 S 
ATOM     20  O   UNL     1       1.534  -1.671   2.235  0.00  0.00    -0.153 OA
ATOM     21  O   UNL     1       3.057   0.260   2.623  0.00  0.00    -0.153 OA
BRANCH  19  22
ATOM     22  N   UNL     1       0.622   0.507   2.962  0.00  0.00    -0.176 NA
ATOM     23  C   UNL     1      -0.739  -0.009   2.762  0.00  0.00    +0.112 C 
ATOM     24  C   UNL     1      -1.391   0.755   1.605  0.00  0.00    +0.002 C 
ATOM     25  C   UNL     1      -1.325   2.258   1.890  0.00  0.00    +0.009 C 
ATOM     26  C   UNL     1       0.138   2.694   1.994  0.00  0.00    +0.002 C 
ATOM     27  C   UNL     1       0.808   1.952   3.155  0.00  0.00    +0.112 C 
ATOM     28  C   UNL     1       0.864   2.362   0.689  0.00  0.00    +0.009 C 
ATOM     29  C   UNL     1      -2.853   0.325   1.469  0.00  0.00    +0.009 C 
ENDBRANCH  19  22
ENDBRANCH   5  19
TORSDOF 3
