REMARK  Name = ZINC60042337
REMARK  11 active torsions:
REMARK  status: ('A' for Active; 'I' for Inactive)
REMARK    1  A    between atoms: C_1  and  C_2
REMARK    2  A    between atoms: C_2  and  C_4
REMARK    3  A    between atoms: C_2  and  N_14
REMARK    4  A    between atoms: C_6  and  O_12
REMARK    5  A    between atoms: C_9  and  O_10
REMARK    6  A    between atoms: O_10  and  C_11
REMARK    7  A    between atoms: O_12  and  C_13
REMARK    8  A    between atoms: C_15  and  C_17
REMARK    9  A    between atoms: C_17  and  N_18
REMARK   10  A    between atoms: C_24  and  O_28
REMARK   11  A    between atoms: O_28  and  C_29
REMARK                            x       y       z     vdW  Elec       q    Type
REMARK                         _______ _______ _______ _____ _____    ______ ____
ROOT
ATOM      1  N   UNL     1       0.711  -0.489   1.189  0.00  0.00    -0.310 N 
ATOM      2  C   UNL     1       2.054  -0.600   1.174  0.00  0.00    +0.197 C 
ATOM      3  O   UNL     1       2.676  -0.297   0.177  0.00  0.00    -0.278 OA
ATOM      4  H   UNL     1       0.213  -0.731   1.986  0.00  0.00    +0.149 HD
ENDROOT
BRANCH   1   6
ATOM      5  C   UNL     1      -0.019   1.526   0.010  0.00  0.00    +0.033 C 
ATOM      6  C   UNL     1       0.002  -0.004   0.002  0.00  0.00    +0.104 C 
BRANCH   6   7
ATOM      7  C   UNL     1      -1.412  -0.526   0.013  0.00  0.00    +0.018 A 
ATOM      8  C   UNL     1      -2.014  -0.864   1.209  0.00  0.00    +0.054 A 
ATOM      9  C   UNL     1      -3.316  -1.343   1.219  0.00  0.00    +0.121 A 
ATOM     10  C   UNL     1      -4.012  -1.484   0.028  0.00  0.00    +0.049 A 
ATOM     11  C   UNL     1      -3.410  -1.146  -1.168  0.00  0.00    +0.049 A 
ATOM     12  C   UNL     1      -2.110  -0.661  -1.178  0.00  0.00    +0.125 A 
BRANCH  12  13
ATOM     13  O   UNL     1      -1.519  -0.323  -2.355  0.00  0.00    -0.495 OA
ATOM     14  C   UNL     1      -2.296  -0.488  -3.542  0.00  0.00    +0.277 C 
ENDBRANCH  12  13
BRANCH   9  15
ATOM     15  O   UNL     1      -3.908  -1.676   2.397  0.00  0.00    -0.495 OA
ATOM     16  C   UNL     1      -5.250  -2.163   2.332  0.00  0.00    +0.277 C 
ENDBRANCH   9  15
ENDBRANCH   6   7
ENDBRANCH   1   6
BRANCH   2  17
ATOM     17  C   UNL     1       2.783  -1.099   2.395  0.00  0.00    +0.019 C 
BRANCH  17  18
ATOM     18  N   UNL     1       4.226  -1.127   2.125  0.00  0.00    +0.388 N 
ATOM     19  C   UNL     1       4.930  -1.715   3.276  0.00  0.00    -0.073 C 
ATOM     20  C   UNL     1       6.371  -2.019   2.863  0.00  0.00    +0.017 C 
ATOM     21  C   UNL     1       6.990  -0.796   2.234  0.00  0.00    -0.048 A 
ATOM     22  C   UNL     1       8.369  -0.741   2.107  0.00  0.00    +0.007 A 
ATOM     23  C   UNL     1       8.974   0.358   1.534  0.00  0.00    +0.046 A 
ATOM     24  C   UNL     1       8.196   1.415   1.082  0.00  0.00    +0.120 A 
ATOM     25  C   UNL     1       6.818   1.359   1.211  0.00  0.00    +0.047 A 
ATOM     26  C   UNL     1       6.214   0.253   1.789  0.00  0.00    -0.057 A 
ATOM     27  C   UNL     1       4.713   0.239   1.916  0.00  0.00    -0.042 C 
ATOM     28  H   UNL     1       4.405  -1.680   1.300  0.00  0.00    -0.081 HD
BRANCH  24  29
ATOM     29  O   UNL     1       8.785   2.501   0.516  0.00  0.00    -0.495 OA
ATOM     30  C   UNL     1      10.210   2.489   0.417  0.00  0.00    +0.277 C 
ENDBRANCH  24  29
ENDBRANCH  17  18
ENDBRANCH   2  17
TORSDOF 7
