REMARK  Name = ZINC00481405
REMARK  4 active torsions:
REMARK  status: ('A' for Active; 'I' for Inactive)
REMARK    1  A    between atoms: C_1  and  N_2
REMARK    2  A    between atoms: C_5  and  N_15
REMARK    3  A    between atoms: C_6  and  S_7
REMARK    4  A    between atoms: S_7  and  C_8
REMARK                            x       y       z     vdW  Elec       q    Type
REMARK                         _______ _______ _______ _____ _____    ______ ____
ROOT
ATOM      1  C   UNL     1      -0.018   1.461   0.010  0.00  0.00    +0.151 C 
ATOM      2  N   UNL     1       0.002  -0.004   0.002  0.00  0.00    -0.326 N 
ATOM      3  C   UNL     1       0.008  -0.795  -1.087  0.00  0.00    +0.202 A 
ATOM      4  N   UNL     1       0.027  -2.075  -0.748  0.00  0.00    -0.212 NA
ATOM      5  C   UNL     1       0.034  -2.202   0.562  0.00  0.00    +0.247 A 
ATOM      6  C   UNL     1       0.024  -0.828   1.110  0.00  0.00    +0.131 A 
ENDROOT
BRANCH   5   7
ATOM      7  N   UNL     1       0.054  -3.466   1.333  0.00  0.00    +0.078 N 
ATOM      8  O   UNL     1       0.067  -4.622   0.701  0.00  0.00    -0.125 OA
ATOM      9  O   UNL     1       0.059  -3.435   2.649  0.00  0.00    -0.125 OA
ENDBRANCH   5   7
BRANCH   6  10
ATOM     10  S   UNL     1       0.033  -0.376   2.707  0.00  0.00    -0.068 S 
BRANCH  10  11
ATOM     11  C   UNL     1      -1.432  -1.102   3.364  0.00  0.00    +0.014 A 
ATOM     12  C   UNL     1      -2.272  -1.862   2.539  0.00  0.00    +0.016 A 
ATOM     13  C   UNL     1      -3.414  -2.426   3.059  0.00  0.00    +0.016 A 
ATOM     14  C   UNL     1      -3.736  -2.244   4.397  0.00  0.00    +0.018 A 
ATOM     15  C   UNL     1      -2.908  -1.493   5.221  0.00  0.00    +0.016 A 
ATOM     16  C   UNL     1      -1.759  -0.928   4.716  0.00  0.00    +0.016 A 
ATOM     17 BR   UNL     1      -5.308  -3.024   5.102  0.00  0.00    -0.050 Br
ENDBRANCH  10  11
ENDBRANCH   6  10
TORSDOF 3
