REMARK  Name = ZINC66568277
REMARK  8 active torsions:
REMARK  status: ('A' for Active; 'I' for Inactive)
REMARK    1  A    between atoms: C_1  and  C_2
REMARK    2  A    between atoms: C_2  and  N_3
REMARK    3  A    between atoms: C_9  and  C_11
REMARK    4  A    between atoms: C_11  and  C_12
REMARK    5  A    between atoms: N_15  and  C_18
REMARK    6  A    between atoms: C_18  and  C_19
REMARK    7  A    between atoms: N_21  and  C_22
REMARK    8  A    between atoms: C_28  and  C_30
REMARK                            x       y       z     vdW  Elec       q    Type
REMARK                         _______ _______ _______ _____ _____    ______ ____
ROOT
ATOM      1  C   UNL     1       4.492  -4.875  -3.814  0.00  0.00    -0.006 C 
ATOM      2  C   UNL     1       5.420  -4.895  -2.596  0.00  0.00    -0.015 C 
ATOM      3  C   UNL     1       6.685  -5.686  -2.939  0.00  0.00    -0.078 C 
ATOM      4  N   UNL     1       6.323  -7.061  -3.303  0.00  0.00    +0.385 N 
ATOM      5  C   UNL     1       5.492  -7.053  -4.512  0.00  0.00    -0.078 C 
ATOM      6  C   UNL     1       4.181  -6.315  -4.231  0.00  0.00    -0.015 C 
ATOM      7  H   UNL     1       5.808  -7.484  -2.545  0.00  0.00    -0.081 HD
ENDROOT
BRANCH   1   8
ATOM      8  C   UNL     1       3.192  -4.154  -3.455  0.00  0.00    +0.099 C 
BRANCH   8  15
ATOM      9  N   UNL     1       0.690  -0.478  -1.207  0.00  0.00    -0.300 NA
ATOM     10  C   UNL     1       2.110  -0.102  -1.186  0.00  0.00    +0.103 C 
ATOM     11  C   UNL     1       2.747  -0.452  -2.535  0.00  0.00    +0.123 C 
ATOM     12  N   UNL     1       2.483  -1.870  -2.823  0.00  0.00    -0.299 N 
ATOM     13  C   UNL     1       1.097  -2.353  -2.728  0.00  0.00    +0.123 C 
ATOM     14  C   UNL     1       0.525  -1.928  -1.372  0.00  0.00    +0.103 C 
ATOM     15  C   UNL     1       3.485  -2.704  -3.164  0.00  0.00    +0.216 C 
ATOM     16  O   UNL     1       4.622  -2.289  -3.237  0.00  0.00    -0.276 OA
BRANCH   9  18
ATOM     17  C   UNL     1      -0.019   1.526   0.010  0.00  0.00    +0.020 C 
ATOM     18  C   UNL     1       0.002  -0.004   0.002  0.00  0.00    +0.081 C 
ENDBRANCH   9  18
ENDBRANCH   8  15
ENDBRANCH   1   8
BRANCH   4  19
ATOM     19  C   UNL     1       7.544  -7.837  -3.555  0.00  0.00    +0.019 C 
BRANCH  19  20
ATOM     20  C   UNL     1       7.181  -9.277  -3.808  0.00  0.00    +0.197 C 
ATOM     21  O   UNL     1       6.019  -9.623  -3.781  0.00  0.00    -0.278 OA
ATOM     22  N   UNL     1       8.148 -10.181  -4.064  0.00  0.00    -0.314 N 
ATOM     23  H   UNL     1       9.077  -9.904  -4.085  0.00  0.00    +0.149 HD
BRANCH  22  24
ATOM     24  C   UNL     1       7.794 -11.581  -4.311  0.00  0.00    +0.076 C 
ATOM     25  C   UNL     1       7.664 -12.317  -2.975  0.00  0.00    +0.022 C 
ATOM     26  C   UNL     1       8.996 -12.252  -2.225  0.00  0.00    +0.002 C 
ATOM     27  C   UNL     1      10.089 -12.912  -3.067  0.00  0.00    +0.000 C 
ATOM     28  C   UNL     1      10.219 -12.177  -4.402  0.00  0.00    +0.005 C 
ATOM     29  C   UNL     1       8.887 -12.242  -5.153  0.00  0.00    +0.006 C 
ATOM     30  C   UNL     1       9.018 -11.507  -6.488  0.00  0.00    +0.009 C 
ENDBRANCH  22  24
ENDBRANCH  19  20
ENDBRANCH   4  19
TORSDOF 6
