REMARK  Name = ZINC60380662
REMARK  7 active torsions:
REMARK  status: ('A' for Active; 'I' for Inactive)
REMARK    1  A    between atoms: C_4  and  C_8
REMARK    2  A    between atoms: C_6  and  N_7
REMARK    3  A    between atoms: C_8  and  O_10
REMARK    4  A    between atoms: O_10  and  C_11
REMARK    5  A    between atoms: C_11  and  C_12
REMARK    6  A    between atoms: C_21  and  S_23
REMARK    7  A    between atoms: S_23  and  N_26
REMARK                            x       y       z     vdW  Elec       q    Type
REMARK                         _______ _______ _______ _____ _____    ______ ____
ROOT
ATOM      1  C   UNL     1       4.842  -4.146  -0.067  0.00  0.00    +0.258 C 
ATOM      2  O   UNL     1       3.731  -4.631  -0.059  0.00  0.00    -0.272 OA
ATOM      3  N   UNL     1       5.926  -4.947  -0.082  0.00  0.00    -0.268 N 
ATOM      4  C   UNL     1       7.315  -4.480  -0.087  0.00  0.00    +0.118 C 
ATOM      5  C   UNL     1       8.170  -5.757  -0.105  0.00  0.00    +0.056 C 
ATOM      6  C   UNL     1       7.166  -6.888  -0.109  0.00  0.00    -0.023 A 
ATOM      7  C   UNL     1       5.891  -6.344  -0.089  0.00  0.00    +0.040 A 
ATOM      8  C   UNL     1       4.789  -7.202  -0.083  0.00  0.00    +0.026 A 
ATOM      9  C   UNL     1       4.971  -8.568  -0.093  0.00  0.00    +0.030 A 
ATOM     10  C   UNL     1       6.247  -9.100  -0.108  0.00  0.00    +0.105 A 
ATOM     11  C   UNL     1       7.343  -8.257  -0.123  0.00  0.00    +0.034 A 
ENDROOT
BRANCH  10  12
ATOM     12  S   UNL     1       6.476 -10.847  -0.120  0.00  0.00    +0.056 S 
ATOM     13  O   UNL     1       7.769 -11.091   0.417  0.00  0.00    -0.153 OA
ATOM     14  O   UNL     1       5.299 -11.414   0.440  0.00  0.00    -0.153 OA
BRANCH  12  15
ATOM     15  N   UNL     1       6.524 -11.324  -1.705  0.00  0.00    -0.204 NA
ATOM     16  H   UNL     1       6.431 -10.667  -2.412  0.00  0.00    +0.144 HD
ATOM     17  H   UNL     1       6.644 -12.261  -1.926  0.00  0.00    +0.144 HD
ENDBRANCH  12  15
ENDBRANCH  10  12
BRANCH   1  18
ATOM     18  C   UNL     1       5.011  -2.648  -0.061  0.00  0.00    +0.328 C 
BRANCH  18  19
ATOM     19  O   UNL     1       3.726  -2.024  -0.045  0.00  0.00    -0.452 OA
BRANCH  19  20
ATOM     20  C   UNL     1       3.700  -0.677  -0.037  0.00  0.00    +0.341 C 
ATOM     21  O   UNL     1       4.741  -0.050  -0.044  0.00  0.00    -0.245 OA
BRANCH  20  25
ATOM     22  C   UNL     1      -0.017   1.386   0.010  0.00  0.00    +0.024 A 
ATOM     23  C   UNL     1       1.167   2.098   0.002  0.00  0.00    +0.022 A 
ATOM     24  C   UNL     1       2.378   1.434  -0.013  0.00  0.00    +0.055 A 
ATOM     25  C   UNL     1       2.408   0.037  -0.021  0.00  0.00    +0.079 A 
ATOM     26  C   UNL     1       1.211  -0.681  -0.013  0.00  0.00    +0.039 A 
ATOM     27  C   UNL     1       0.002  -0.004   0.002  0.00  0.00    +0.025 A 
ATOM     28 CL   UNL     1       3.863   2.334  -0.023  0.00  0.00    -0.083 Cl
BRANCH  27  29
ATOM     29  N   UNL     1      -1.199  -0.719   0.010  0.00  0.00    -0.358 N 
ATOM     30  H   UNL     1      -2.045  -0.245   0.020  0.00  0.00    +0.142 HD
ATOM     31  H   UNL     1      -1.186  -1.689   0.004  0.00  0.00    +0.142 HD
ENDBRANCH  27  29
ENDBRANCH  20  25
ENDBRANCH  19  20
ENDBRANCH  18  19
ENDBRANCH   1  18
TORSDOF 7
