REMARK  Name = ZINC43328569
REMARK  7 active torsions:
REMARK  status: ('A' for Active; 'I' for Inactive)
REMARK    1  A    between atoms: C_1  and  C_2
REMARK    2  A    between atoms: C_5  and  S_21
REMARK    3  A    between atoms: C_7  and  N_8
REMARK    4  A    between atoms: N_11  and  C_12
REMARK    5  A    between atoms: C_12  and  C_14
REMARK    6  A    between atoms: C_12  and  C_15
REMARK    7  A    between atoms: S_21  and  N_24
REMARK                            x       y       z     vdW  Elec       q    Type
REMARK                         _______ _______ _______ _____ _____    ______ ____
ROOT
ATOM      1  C   UNL     1      -0.008   1.492   0.004  0.00  0.00    +0.045 C 
ATOM      2  C   UNL     1       0.016  -0.014   0.002  0.00  0.00    -0.029 A 
ATOM      3  C   UNL     1       0.028  -0.704  -1.195  0.00  0.00    +0.007 A 
ATOM      4  C   UNL     1       0.051  -2.087  -1.197  0.00  0.00    +0.029 A 
ATOM      5  C   UNL     1       0.060  -2.783  -0.002  0.00  0.00    +0.107 A 
ATOM      6  C   UNL     1       0.048  -2.099   1.197  0.00  0.00    +0.052 A 
ATOM      7  C   UNL     1       0.032  -0.711   1.203  0.00  0.00    +0.040 A 
ENDROOT
BRANCH   7   8
ATOM      8  N   UNL     1       0.025  -0.015   2.417  0.00  0.00    -0.269 N 
ATOM      9  C   UNL     1      -0.632  -0.519   3.480  0.00  0.00    +0.304 C 
ATOM     10  O   UNL     1      -1.151  -1.617   3.409  0.00  0.00    -0.252 OA
ATOM     11  N   UNL     1      -0.716   0.193   4.621  0.00  0.00    -0.294 N 
ATOM     12  H   UNL     1       0.494   0.831   2.494  0.00  0.00    +0.156 HD
ATOM     13  H   UNL     1      -0.302   1.068   4.678  0.00  0.00    +0.151 HD
BRANCH  11  14
ATOM     14  C   UNL     1      -1.431  -0.356   5.776  0.00  0.00    +0.100 C 
ATOM     15  C   UNL     1      -2.923  -0.046   5.647  0.00  0.00    +0.030 C 
BRANCH  14  16
ATOM     16  C   UNL     1      -0.888   0.276   7.059  0.00  0.00    +0.138 C 
ATOM     17  C   UNL     1       0.651   0.112   7.130  0.00  0.00    +0.035 C 
ATOM     18  C   UNL     1       1.032   1.300   8.056  0.00  0.00    +0.031 C 
ATOM     19  C   UNL     1      -0.008   2.370   7.660  0.00  0.00    +0.160 C 
ATOM     20  O   UNL     1      -1.116   1.694   7.051  0.00  0.00    -0.375 OA
ENDBRANCH  14  16
ENDBRANCH  11  14
ENDBRANCH   7   8
BRANCH   5  21
ATOM     21  S   UNL     1       0.087  -4.545  -0.011  0.00  0.00    +0.061 S 
ATOM     22  O   UNL     1      -0.458  -4.966   1.232  0.00  0.00    -0.153 OA
ATOM     23  O   UNL     1      -0.456  -4.954  -1.259  0.00  0.00    -0.153 OA
BRANCH  21  24
ATOM     24  N   UNL     1       1.677  -5.010  -0.012  0.00  0.00    -0.177 NA
ATOM     25  C   UNL     1       2.398  -5.208  -1.276  0.00  0.00    +0.109 C 
ATOM     26  C   UNL     1       3.678  -4.367  -1.251  0.00  0.00    +0.017 C 
ATOM     27  C   UNL     1       4.490  -4.717  -0.002  0.00  0.00    +0.003 C 
ATOM     28  C   UNL     1       3.672  -4.390   1.249  0.00  0.00    +0.017 C 
ATOM     29  C   UNL     1       2.394  -5.226   1.252  0.00  0.00    +0.109 C 
ENDBRANCH  21  24
ENDBRANCH   5  21
TORSDOF 5
