REMARK  Name = ZINC25004603
REMARK  8 active torsions:
REMARK  status: ('A' for Active; 'I' for Inactive)
REMARK    1  A    between atoms: C_1  and  C_2
REMARK    2  A    between atoms: C_3  and  C_8
REMARK    3  A    between atoms: N_6  and  C_7
REMARK    4  A    between atoms: C_8  and  C_10
REMARK    5  A    between atoms: C_8  and  N_11
REMARK    6  A    between atoms: C_12  and  C_14
REMARK    7  A    between atoms: N_16  and  C_23
REMARK    8  A    between atoms: C_19  and  C_22
REMARK                            x       y       z     vdW  Elec       q    Type
REMARK                         _______ _______ _______ _____ _____    ______ ____
ROOT
ATOM      1  C   UNL     1      -0.088   0.117  -0.506  0.00  0.00    +0.200 C 
ATOM      2  N   UNL     1       0.013   1.417  -0.472  0.00  0.00    -0.152 NA
ATOM      3  N   UNL     1       1.175   2.034   0.002  0.00  0.00    -0.157 N 
ATOM      4  C   UNL     1       2.318   1.334   0.147  0.00  0.00    +0.259 C 
ATOM      5  O   UNL     1       3.316   1.875   0.575  0.00  0.00    -0.271 OA
ATOM      6  C   UNL     1       2.346  -0.129  -0.228  0.00  0.00    +0.157 C 
ATOM      7  N   UNL     1       0.986  -0.666  -0.070  0.00  0.00    -0.313 N 
ATOM      8  C   UNL     1       2.796  -0.281  -1.682  0.00  0.00    +0.038 C 
ATOM      9  H   UNL     1       0.835  -1.659   0.380  0.00  0.00    +0.148 HD
ENDROOT
BRANCH   3  10
ATOM     10  C   UNL     1       1.151   3.394   0.329  0.00  0.00    +0.060 A 
ATOM     11  C   UNL     1       0.133   3.900   1.128  0.00  0.00    +0.025 A 
ATOM     12  C   UNL     1       0.115   5.242   1.453  0.00  0.00    +0.002 A 
ATOM     13  C   UNL     1       1.103   6.084   0.976  0.00  0.00    +0.000 A 
ATOM     14  C   UNL     1       2.115   5.585   0.176  0.00  0.00    +0.002 A 
ATOM     15  C   UNL     1       2.142   4.243  -0.148  0.00  0.00    +0.025 A 
ENDBRANCH   3  10
BRANCH   1  17
ATOM     16  N   UNL     1      -2.353   0.239  -1.417  0.00  0.00    -0.302 N 
ATOM     17  C   UNL     1      -1.322  -0.521  -0.999  0.00  0.00    +0.279 C 
ATOM     18  O   UNL     1      -1.410  -1.734  -1.027  0.00  0.00    -0.267 OA
ATOM     19  H   UNL     1      -2.273   1.336  -1.391  0.00  0.00    +0.150 HD
BRANCH  16  20
ATOM     20  C   UNL     1      -3.579  -0.394  -1.907  0.00  0.00    +0.104 C 
ATOM     21  C   UNL     1      -3.420  -0.736  -3.390  0.00  0.00    +0.033 C 
BRANCH  20  24
ATOM     22  C   UNL     1      -6.589  -1.200  -1.626  0.00  0.00    +0.065 C 
ATOM     23  C   UNL     1      -6.040   0.203  -1.610  0.00  0.00    +0.041 A 
ATOM     24  C   UNL     1      -4.739   0.552  -1.731  0.00  0.00    +0.013 A 
ATOM     25  C   UNL     1      -4.659   1.947  -1.659  0.00  0.00    +0.140 A 
ATOM     26  N   UNL     1      -5.870   2.418  -1.509  0.00  0.00    -0.179 NA
ATOM     27  N   UNL     1      -6.759   1.337  -1.472  0.00  0.00    -0.271 N 
ATOM     28  C   UNL     1      -8.213   1.421  -1.311  0.00  0.00    +0.172 C 
ENDBRANCH  20  24
ENDBRANCH  16  20
ENDBRANCH   1  17
TORSDOF 4
