REMARK  Name = ZINC44435256
REMARK  8 active torsions:
REMARK  status: ('A' for Active; 'I' for Inactive)
REMARK    1  A    between atoms: C_1  and  C_2
REMARK    2  A    between atoms: C_4  and  C_24
REMARK    3  A    between atoms: C_5  and  N_9
REMARK    4  A    between atoms: C_6  and  C_8
REMARK    5  A    between atoms: C_11  and  C_16
REMARK    6  A    between atoms: C_18  and  C_21
REMARK    7  A    between atoms: C_21  and  C_22
REMARK    8  A    between atoms: C_21  and  C_23
REMARK                            x       y       z     vdW  Elec       q    Type
REMARK                         _______ _______ _______ _____ _____    ______ ____
ROOT
ATOM      1  N   UNL     1       0.059  -4.170  -0.021  0.00  0.00    -0.270 N 
ATOM      2  C   UNL     1      -1.142  -5.014  -0.025  0.00  0.00    +0.127 C 
ATOM      3  C   UNL     1      -0.661  -6.413  -0.469  0.00  0.00    +0.104 C 
ATOM      4  C   UNL     1       0.826  -6.385  -0.044  0.00  0.00    +0.111 C 
ATOM      5  C   UNL     1       1.178  -4.913  -0.031  0.00  0.00    +0.221 C 
ATOM      6  O   UNL     1       2.307  -4.470  -0.029  0.00  0.00    -0.275 OA
ENDROOT
BRANCH   1  11
ATOM      7  C   UNL     1      -0.018   1.503   0.010  0.00  0.00    +0.044 C 
ATOM      8  C   UNL     1       0.002  -0.004   0.002  0.00  0.00    -0.050 A 
ATOM      9  C   UNL     1       0.006  -0.687  -1.200  0.00  0.00    +0.008 A 
ATOM     10  C   UNL     1       0.025  -2.068  -1.211  0.00  0.00    -0.029 A 
ATOM     11  C   UNL     1       0.040  -2.771  -0.013  0.00  0.00    +0.042 A 
ATOM     12  C   UNL     1       0.037  -2.081   1.192  0.00  0.00    -0.029 A 
ATOM     13  C   UNL     1       0.023  -0.700   1.197  0.00  0.00    +0.008 A 
ATOM     14  C   UNL     1       0.053  -2.840   2.495  0.00  0.00    +0.046 C 
ATOM     15  C   UNL     1       0.028  -2.812  -2.522  0.00  0.00    +0.046 C 
ENDBRANCH   1  11
BRANCH   3  16
ATOM     16  C   UNL     1      -1.410  -7.498   0.261  0.00  0.00    +0.232 A 
ATOM     17  N   UNL     1      -2.142  -8.425  -0.291  0.00  0.00    -0.196 NA
ATOM     18  C   UNL     1      -2.661  -9.222   0.650  0.00  0.00    +0.174 A 
ATOM     19  N   UNL     1      -2.264  -8.808   1.819  0.00  0.00    -0.061 NA
ATOM     20  O   UNL     1      -1.435  -7.678   1.588  0.00  0.00    -0.338 OA
BRANCH  18  21
ATOM     21  C   UNL     1      -3.560 -10.405   0.399  0.00  0.00    +0.054 C 
ATOM     22  C   UNL     1      -2.900 -11.672   0.946  0.00  0.00    +0.015 C 
ATOM     23  C   UNL     1      -4.901 -10.185   1.100  0.00  0.00    +0.015 C 
ENDBRANCH  18  21
ENDBRANCH   3  16
TORSDOF 3
