REMARK  Name = ZINC06818742
REMARK  6 active torsions:
REMARK  status: ('A' for Active; 'I' for Inactive)
REMARK    1  A    between atoms: C_1  and  C_2
REMARK    2  A    between atoms: N_8  and  S_9
REMARK    3  A    between atoms: S_9  and  C_12
REMARK    4  A    between atoms: C_18  and  C_23
REMARK    5  A    between atoms: C_18  and  C_24
REMARK    6  A    between atoms: N_21  and  C_22
REMARK                            x       y       z     vdW  Elec       q    Type
REMARK                         _______ _______ _______ _____ _____    ______ ____
ROOT
ATOM      1  C   UNL     1       0.280   0.575   3.600  0.00  0.00    +0.106 A 
ATOM      2  C   UNL     1      -0.772   1.472   3.612  0.00  0.00    +0.030 A 
ATOM      3  C   UNL     1      -1.664   1.488   4.664  0.00  0.00    +0.026 A 
ATOM      4  C   UNL     1      -1.510   0.598   5.725  0.00  0.00    +0.040 A 
ATOM      5  C   UNL     1      -0.450  -0.299   5.702  0.00  0.00    -0.010 A 
ATOM      6  C   UNL     1       0.436  -0.316   4.648  0.00  0.00    +0.035 A 
ATOM      7  C   UNL     1      -0.555  -1.115   6.970  0.00  0.00    +0.068 C 
ATOM      8  C   UNL     1      -1.778  -0.558   7.665  0.00  0.00    +0.230 C 
ATOM      9  O   UNL     1      -2.233  -0.926   8.728  0.00  0.00    -0.274 OA
ATOM     10  N   UNL     1      -2.266   0.420   6.884  0.00  0.00    -0.273 N 
ATOM     11  C   UNL     1      -3.456   1.210   7.212  0.00  0.00    +0.138 C 
ATOM     12  C   UNL     1       0.690  -0.920   7.837  0.00  0.00    +0.025 C 
ATOM     13  C   UNL     1      -0.753  -2.595   6.639  0.00  0.00    +0.025 C 
ENDROOT
BRANCH   1  14
ATOM     14  S   UNL     1       1.415   0.561   2.252  0.00  0.00    +0.061 S 
ATOM     15  O   UNL     1       2.621  -0.009   2.743  0.00  0.00    -0.153 OA
ATOM     16  O   UNL     1       1.367   1.855   1.668  0.00  0.00    -0.153 OA
BRANCH  14  23
ATOM     17  C   UNL     1      -0.408   1.456   0.281  0.00  0.00    +0.026 C 
ATOM     18  C   UNL     1      -0.192  -0.053   0.150  0.00  0.00    +0.077 C 
ATOM     19  C   UNL     1       0.304  -0.380  -1.263  0.00  0.00    +0.020 C 
ATOM     20  C   UNL     1       0.651  -1.868  -1.346  0.00  0.00    +0.003 C 
ATOM     21  C   UNL     1       1.772  -2.188  -0.354  0.00  0.00    +0.017 C 
ATOM     22  C   UNL     1       1.294  -1.882   1.068  0.00  0.00    +0.110 C 
ATOM     23  N   UNL     1       0.819  -0.492   1.122  0.00  0.00    -0.174 NA
ENDBRANCH  14  23
ENDBRANCH   1  14
TORSDOF 2
