REMARK  Name = ZINC66937528
REMARK  3 active torsions:
REMARK  status: ('A' for Active; 'I' for Inactive)
REMARK    1  A    between atoms: C_4  and  C_7
REMARK    2  A    between atoms: N_12  and  S_15
REMARK    3  A    between atoms: S_15  and  N_18
REMARK                            x       y       z     vdW  Elec       q    Type
REMARK                         _______ _______ _______ _____ _____    ______ ____
ROOT
ATOM      1  C   UNL     1       3.711  -0.707  -0.038  0.00  0.00    +0.020 C 
ATOM      2  C   UNL     1       3.813  -1.617   1.152  0.00  0.00    +0.009 C 
ATOM      3  C   UNL     1       5.264  -1.657   1.691  0.00  0.00    +0.018 C 
ATOM      4  C   UNL     1       6.271  -1.650   0.514  0.00  0.00    +0.110 C 
ATOM      5  N   UNL     1       5.929  -2.470  -0.613  0.00  0.00    -0.167 NA
ATOM      6  C   UNL     1       5.146  -1.863  -1.741  0.00  0.00    +0.111 C 
ATOM      7  C   UNL     1       3.790  -1.619  -1.257  0.00  0.00    +0.025 C 
ENDROOT
BRANCH   1  11
ATOM      8  C   UNL     1      -0.017   1.378   0.010  0.00  0.00    +0.000 A 
ATOM      9  C   UNL     1       1.171   2.086   0.002  0.00  0.00    +0.000 A 
ATOM     10  C   UNL     1       2.377   1.411  -0.013  0.00  0.00    +0.004 A 
ATOM     11  C   UNL     1       2.396   0.029  -0.020  0.00  0.00    -0.044 A 
ATOM     12  C   UNL     1       1.208  -0.679  -0.012  0.00  0.00    +0.004 A 
ATOM     13  C   UNL     1       0.002  -0.004   0.002  0.00  0.00    +0.000 A 
ENDBRANCH   1  11
BRANCH   5  14
ATOM     14  S   UNL     1       6.392  -4.059  -0.668  0.00  0.00    +0.095 S 
ATOM     15  O   UNL     1       6.426  -4.425  -2.041  0.00  0.00    -0.141 OA
ATOM     16  O   UNL     1       7.525  -4.182   0.181  0.00  0.00    -0.141 OA
BRANCH  14  17
ATOM     17  N   UNL     1       5.179  -4.946   0.028  0.00  0.00    -0.193 NA
ATOM     18  H   UNL     1       5.017  -5.857  -0.263  0.00  0.00    +0.145 HD
ATOM     19  H   UNL     1       4.632  -4.555   0.727  0.00  0.00    +0.145 HD
ENDBRANCH  14  17
ENDBRANCH   5  14
TORSDOF 3
