REMARK  Name = ZINC05908928
REMARK  3 active torsions:
REMARK  status: ('A' for Active; 'I' for Inactive)
REMARK    1  A    between atoms: C_9  and  C_11
REMARK    2  A    between atoms: C_11  and  C_13
REMARK    3  A    between atoms: C_11  and  C_15
REMARK                            x       y       z     vdW  Elec       q    Type
REMARK                         _______ _______ _______ _____ _____    ______ ____
ROOT
ATOM      1  C   UNL     1       3.912  -3.804  -1.472  0.00  0.00    +0.249 C 
ATOM      2  O   UNL     1       3.412  -3.174  -2.380  0.00  0.00    -0.273 OA
ATOM      3  N   UNL     1       4.693  -4.869  -1.740  0.00  0.00    -0.237 N 
ATOM      4  C   UNL     1       5.263  -5.581  -0.678  0.00  0.00    +0.055 A 
ATOM      5  C   UNL     1       5.719  -4.912   0.448  0.00  0.00    +0.025 A 
ATOM      6  C   UNL     1       6.282  -5.622   1.493  0.00  0.00    +0.002 A 
ATOM      7  C   UNL     1       6.395  -6.997   1.425  0.00  0.00    +0.001 A 
ATOM      8  C   UNL     1       5.943  -7.676   0.306  0.00  0.00    +0.017 A 
ATOM      9  C   UNL     1       5.380  -6.971  -0.742  0.00  0.00    +0.035 A 
ATOM     10  S   UNL     1       4.795  -7.808  -2.182  0.00  0.00    -0.086 S 
ATOM     11  C   UNL     1       4.986  -6.580  -3.436  0.00  0.00    +0.035 A 
ATOM     12  C   UNL     1       4.908  -5.236  -3.075  0.00  0.00    +0.055 A 
ATOM     13  C   UNL     1       5.052  -4.265  -4.054  0.00  0.00    +0.025 A 
ATOM     14  C   UNL     1       5.266  -4.635  -5.369  0.00  0.00    +0.002 A 
ATOM     15  C   UNL     1       5.338  -5.971  -5.718  0.00  0.00    +0.001 A 
ATOM     16  C   UNL     1       5.205  -6.942  -4.753  0.00  0.00    +0.017 A 
ENDROOT
BRANCH   1  17
ATOM     17  C   UNL     1       3.660  -3.396  -0.043  0.00  0.00    +0.243 C 
BRANCH  17  26
ATOM     18  C   UNL     1      -1.181   0.187   0.133  0.00  0.00    +0.002 A 
ATOM     19  C   UNL     1      -0.216   1.184   0.126  0.00  0.00    +0.002 A 
ATOM     20  C   UNL     1       1.112   0.868   0.088  0.00  0.00    +0.030 A 
ATOM     21  C   UNL     1       1.509  -0.471   0.057  0.00  0.00    +0.089 A 
ATOM     22  C   UNL     1       0.532  -1.482   0.065  0.00  0.00    +0.066 A 
ATOM     23  C   UNL     1      -0.813  -1.141   0.103  0.00  0.00    +0.028 A 
ATOM     24  N   UNL     1       1.221  -2.678   0.029  0.00  0.00    -0.340 N 
ATOM     25  H   UNL     1       0.831  -3.566   0.024  0.00  0.00    +0.167 HD
ATOM     26  C   UNL     1       2.548  -2.380   0.000  0.00  0.00    +0.134 A 
ATOM     27  N   UNL     1       2.717  -1.090   0.017  0.00  0.00    -0.231 NA
ENDBRANCH  17  26
BRANCH  17  28
ATOM     28  C   UNL     1       3.275  -4.579   0.744  0.00  0.00    +0.083 C 
ATOM     29  N   UNL     1       2.978  -5.491   1.352  0.00  0.00    -0.195 NA
ENDBRANCH  17  28
ENDBRANCH   1  17
TORSDOF 3
