REMARK  Name = ZINC09411474
REMARK  8 active torsions:
REMARK  status: ('A' for Active; 'I' for Inactive)
REMARK    1  A    between atoms: C_1  and  C_2
REMARK    2  A    between atoms: C_2  and  C_3
REMARK    3  A    between atoms: C_3  and  C_4
REMARK    4  A    between atoms: C_5  and  O_19
REMARK    5  A    between atoms: N_9  and  C_12
REMARK    6  A    between atoms: N_20  and  C_21
REMARK    7  A    between atoms: C_21  and  C_22
REMARK    8  A    between atoms: C_22  and  C_23
REMARK                            x       y       z     vdW  Elec       q    Type
REMARK                         _______ _______ _______ _____ _____    ______ ____
ROOT
ATOM      1  C   UNL     1       2.564   6.588  -3.821  0.00  0.00    +0.202 C 
ATOM      2  C   UNL     1       2.420   7.672  -2.840  0.00  0.00    +0.198 C 
ATOM      3  N   UNL     1       2.620   8.917  -3.241  0.00  0.00    -0.131 NA
ATOM      4  C   UNL     1       2.946   9.210  -4.497  0.00  0.00    +0.339 C 
ATOM      5  O   UNL     1       3.114  10.381  -4.790  0.00  0.00    -0.250 OA
ATOM      6  N   UNL     1       3.099   8.288  -5.458  0.00  0.00    -0.192 N 
ATOM      7  C   UNL     1       2.931   6.974  -5.196  0.00  0.00    +0.245 C 
ATOM      8  O   UNL     1       3.075   6.136  -6.066  0.00  0.00    -0.274 OA
ENDROOT
BRANCH   6   9
ATOM      9  C   UNL     1       3.444   8.693  -6.754  0.00  0.00    +0.046 A 
ATOM     10  C   UNL     1       4.679   9.281  -6.993  0.00  0.00    +0.025 A 
ATOM     11  C   UNL     1       5.019   9.675  -8.272  0.00  0.00    +0.022 A 
ATOM     12  C   UNL     1       4.126   9.495  -9.314  0.00  0.00    +0.041 A 
ATOM     13  C   UNL     1       2.892   8.914  -9.077  0.00  0.00    +0.022 A 
ATOM     14  C   UNL     1       2.550   8.513  -7.801  0.00  0.00    +0.025 A 
ATOM     15 CL   UNL     1       4.553   9.997 -10.919  0.00  0.00    -0.084 Cl
ENDBRANCH   6   9
BRANCH   1  16
ATOM     16  C   UNL     1       2.368   5.261  -3.469  0.00  0.00    +0.034 C 
ATOM     17  N   UNL     1       2.192   4.927  -2.177  0.00  0.00    -0.291 NA
BRANCH  16  19
ATOM     18  C   UNL     1       3.789   3.764  -4.843  0.00  0.00    +0.010 C 
ATOM     19  C   UNL     1       2.354   4.194  -4.532  0.00  0.00    +0.048 C 
ENDBRANCH  16  19
BRANCH  17  20
ATOM     20  C   UNL     1       1.986   3.526  -1.804  0.00  0.00    +0.146 C 
BRANCH  20  21
ATOM     21  C   UNL     1       1.813   3.421  -0.288  0.00  0.00    +0.053 C 
BRANCH  21  22
ATOM     22  C   UNL     1       1.600   1.979   0.096  0.00  0.00    -0.072 C 
ATOM     23  C   UNL     1       2.633   1.291   0.464  0.00  0.00    -0.028 C 
ATOM     24  C   UNL     1       2.580  -0.155   0.863  0.00  0.00    +0.027 C 
ATOM     25  C   UNL     1       1.140  -0.562   1.181  0.00  0.00    +0.004 C 
ATOM     26  C   UNL     1       0.240  -0.099   0.028  0.00  0.00    +0.005 C 
ATOM     27  C   UNL     1       0.205   1.430   0.025  0.00  0.00    +0.030 C 
ENDBRANCH  21  22
ENDBRANCH  20  21
ENDBRANCH  17  20
ENDBRANCH   1  16
BRANCH   2  28
ATOM     28  O   UNL     1       2.091   7.404  -1.559  0.00  0.00    -0.496 OA
ATOM     29  H   UNL     1       2.023   8.189  -0.998  0.00  0.00    +0.293 HD
ENDBRANCH   2  28
TORSDOF 7
