REMARK  Name = ZINC51584385
REMARK  4 active torsions:
REMARK  status: ('A' for Active; 'I' for Inactive)
REMARK    1  A    between atoms: C_4  and  C_7
REMARK    2  A    between atoms: C_7  and  C_8
REMARK    3  A    between atoms: C_13  and  N_14
REMARK    4  A    between atoms: C_21  and  C_24
REMARK                            x       y       z     vdW  Elec       q    Type
REMARK                         _______ _______ _______ _____ _____    ______ ____
ROOT
ATOM      1  N   UNL     1       2.810  -2.959   1.452  0.00  0.00    -0.269 N 
ATOM      2  C   UNL     1       2.448  -4.094   2.081  0.00  0.00    +0.307 C 
ATOM      3  O   UNL     1       2.819  -4.303   3.220  0.00  0.00    -0.252 OA
ATOM      4  N   UNL     1       1.676  -4.999   1.448  0.00  0.00    -0.280 N 
ATOM      5  C   UNL     1       1.317  -4.829   0.031  0.00  0.00    +0.137 C 
ATOM      6  C   UNL     1       1.635  -6.134  -0.708  0.00  0.00    +0.180 C 
ATOM      7  O   UNL     1       1.016  -7.226  -0.023  0.00  0.00    -0.364 OA
ATOM      8  C   UNL     1       1.491  -7.425   1.310  0.00  0.00    +0.221 C 
ATOM      9  C   UNL     1       1.171  -6.189   2.151  0.00  0.00    +0.150 C 
ATOM     10  H   UNL     1       2.463  -2.763   0.568  0.00  0.00    +0.156 HD
ENDROOT
BRANCH   1  16
ATOM     11  C   UNL     1       4.469  -1.209   1.308  0.00  0.00    -0.022 A 
ATOM     12  C   UNL     1       5.329  -0.322   1.925  0.00  0.00    +0.006 A 
ATOM     13  C   UNL     1       5.415  -0.287   3.305  0.00  0.00    +0.000 A 
ATOM     14  C   UNL     1       4.642  -1.140   4.071  0.00  0.00    +0.002 A 
ATOM     15  C   UNL     1       3.780  -2.030   3.460  0.00  0.00    +0.023 A 
ATOM     16  C   UNL     1       3.687  -2.063   2.074  0.00  0.00    +0.038 A 
BRANCH  11  17
ATOM     17  C   UNL     1       4.375  -1.246  -0.196  0.00  0.00    +0.072 C 
BRANCH  17  21
ATOM     18  C   UNL     1       1.140   1.228  -1.484  0.00  0.00    +0.000 A 
ATOM     19  C   UNL     1       2.407   1.764  -1.344  0.00  0.00    +0.000 A 
ATOM     20  C   UNL     1       3.454   0.963  -0.927  0.00  0.00    +0.004 A 
ATOM     21  C   UNL     1       3.234  -0.373  -0.650  0.00  0.00    -0.043 A 
ATOM     22  C   UNL     1       1.967  -0.909  -0.789  0.00  0.00    +0.004 A 
ATOM     23  C   UNL     1       0.920  -0.109  -1.207  0.00  0.00    +0.000 A 
ENDBRANCH  17  21
ENDBRANCH  11  17
ENDBRANCH   1  16
BRANCH   8  24
ATOM     24  C   UNL     1       0.818  -8.633   1.910  0.00  0.00    +0.241 C 
ATOM     25  O   UNL     1      -0.055  -9.208   1.295  0.00  0.00    -0.273 OA
ATOM     26  N   UNL     1       1.186  -9.074   3.129  0.00  0.00    -0.327 N 
ATOM     27  H   UNL     1       1.884  -8.614   3.621  0.00  0.00    +0.145 HD
ATOM     28  H   UNL     1       0.753  -9.851   3.514  0.00  0.00    +0.145 HD
ENDBRANCH   8  24
TORSDOF 4
