REMARK  Name = ZINC63141401
REMARK  7 active torsions:
REMARK  status: ('A' for Active; 'I' for Inactive)
REMARK    1  A    between atoms: C_1  and  C_2
REMARK    2  A    between atoms: C_2  and  C_3
REMARK    3  A    between atoms: C_3  and  C_4
REMARK    4  A    between atoms: C_4  and  N_5
REMARK    5  A    between atoms: C_25  and  C_27
REMARK    6  A    between atoms: C_32  and  O_33
REMARK    7  A    between atoms: O_33  and  C_34
REMARK                            x       y       z     vdW  Elec       q    Type
REMARK                         _______ _______ _______ _____ _____    ______ ____
ROOT
ATOM      1  N   UNL     1       1.471  -2.526   2.420  0.00  0.00    -0.291 N 
ATOM      2  C   UNL     1       2.927  -2.758   2.411  0.00  0.00    +0.203 C 
ATOM      3  C   UNL     1       3.518  -2.155   3.667  0.00  0.00    +0.234 C 
ATOM      4  O   UNL     1       4.541  -1.504   3.639  0.00  0.00    -0.274 OA
ATOM      5  N   UNL     1       2.842  -2.380   4.842  0.00  0.00    -0.279 N 
ATOM      6  C   UNL     1       1.683  -3.240   4.737  0.00  0.00    +0.167 C 
ATOM      7  C   UNL     1       0.817  -2.780   3.592  0.00  0.00    +0.237 C 
ATOM      8  O   UNL     1      -0.384  -2.648   3.703  0.00  0.00    -0.274 OA
ATOM      9  C   UNL     1       0.883  -3.518   5.984  0.00  0.00    +0.065 C 
ATOM     10  C   UNL     1       1.349  -2.625   7.100  0.00  0.00    -0.034 C 
ATOM     11  C   UNL     1       0.692  -1.957   8.039  0.00  0.00    -0.001 A 
ATOM     12  C   UNL     1      -0.741  -1.879   8.364  0.00  0.00    +0.010 A 
ATOM     13  C   UNL     1      -1.077  -1.074   9.407  0.00  0.00    +0.001 A 
ATOM     14  C   UNL     1      -0.141  -0.348  10.151  0.00  0.00    +0.002 A 
ATOM     15  C   UNL     1       1.197  -0.365   9.925  0.00  0.00    +0.026 A 
ATOM     16  C   UNL     1       1.672  -1.178   8.855  0.00  0.00    +0.043 A 
ATOM     17  N   UNL     1       2.882  -1.385   8.431  0.00  0.00    -0.375 N 
ATOM     18  C   UNL     1       2.834  -2.337   7.314  0.00  0.00    +0.131 C 
ATOM     19  C   UNL     1       3.334  -1.695   6.029  0.00  0.00    +0.137 C 
ATOM     20  H   UNL     1       3.685  -0.978   8.792  0.00  0.00    +0.160 HD
ENDROOT
BRANCH  19  21
ATOM     21  C   UNL     1       2.841  -0.271   6.014  0.00  0.00    +0.017 A 
ATOM     22  C   UNL     1       1.688   0.054   5.326  0.00  0.00    +0.009 A 
ATOM     23  C   UNL     1       1.236   1.360   5.312  0.00  0.00    +0.001 A 
ATOM     24  C   UNL     1       1.935   2.345   5.986  0.00  0.00    +0.004 A 
ATOM     25  C   UNL     1       3.088   2.024   6.675  0.00  0.00    +0.046 A 
ATOM     26  C   UNL     1       3.542   0.713   6.696  0.00  0.00    +0.125 A 
BRANCH  26  27
ATOM     27  O   UNL     1       4.673   0.395   7.378  0.00  0.00    -0.495 OA
ATOM     28  C   UNL     1       5.343   1.459   8.056  0.00  0.00    +0.277 C 
ENDBRANCH  26  27
ENDBRANCH  19  21
BRANCH   1  29
ATOM     29  C   UNL     1       0.763  -2.041   1.233  0.00  0.00    +0.108 C 
BRANCH  29  30
ATOM     30  C   UNL     1       0.742  -0.511   1.242  0.00  0.00    +0.019 C 
BRANCH  30  32
ATOM     31  C   UNL     1      -0.019   1.526   0.010  0.00  0.00    +0.004 C 
ATOM     32  C   UNL     1       0.002  -0.004   0.002  0.00  0.00    -0.002 C 
ENDBRANCH  30  32
ENDBRANCH  29  30
ENDBRANCH   1  29
TORSDOF 5
