REMARK  Name = ZINC15433783
REMARK  5 active torsions:
REMARK  status: ('A' for Active; 'I' for Inactive)
REMARK    1  A    between atoms: C_4  and  C_7
REMARK    2  A    between atoms: C_7  and  C_8
REMARK    3  A    between atoms: C_14  and  C_16
REMARK    4  A    between atoms: N_19  and  S_22
REMARK    5  A    between atoms: S_22  and  C_25
REMARK                            x       y       z     vdW  Elec       q    Type
REMARK                         _______ _______ _______ _____ _____    ______ ____
ROOT
ATOM      1  C   UNL     1      -0.731  -2.208   0.852  0.00  0.00    +0.078 C 
ATOM      2  C   UNL     1      -1.283  -2.618  -0.515  0.00  0.00    +0.030 C 
ATOM      3  C   UNL     1      -1.314  -4.146  -0.612  0.00  0.00    +0.110 C 
ATOM      4  N   UNL     1      -2.072  -4.677   0.528  0.00  0.00    -0.177 NA
ATOM      5  C   UNL     1      -1.682  -4.274   1.886  0.00  0.00    +0.110 C 
ATOM      6  C   UNL     1      -1.647  -2.744   1.955  0.00  0.00    +0.030 C 
ENDROOT
BRANCH   1  13
ATOM      7  C   UNL     1       2.895   1.240   0.306  0.00  0.00    -0.004 C 
ATOM      8  C   UNL     1       1.717   1.897   1.029  0.00  0.00    +0.023 C 
ATOM      9  C   UNL     1       0.406   1.426   0.391  0.00  0.00    +0.108 C 
ATOM     10  N   UNL     1       0.376  -0.043   0.400  0.00  0.00    -0.301 N 
ATOM     11  C   UNL     1       1.505  -0.776  -0.188  0.00  0.00    +0.108 C 
ATOM     12  C   UNL     1       2.804  -0.281   0.456  0.00  0.00    +0.023 C 
ATOM     13  C   UNL     1      -0.667  -0.705   0.939  0.00  0.00    +0.219 C 
ATOM     14  O   UNL     1      -1.555  -0.091   1.492  0.00  0.00    -0.275 OA
BRANCH   7  15
ATOM     15  C   UNL     1       4.207   1.734   0.918  0.00  0.00    +0.038 C 
BRANCH  15  19
ATOM     16  C   UNL     1       4.627   5.923   0.196  0.00  0.00    +0.000 A 
ATOM     17  C   UNL     1       3.991   5.480   1.340  0.00  0.00    +0.000 A 
ATOM     18  C   UNL     1       3.856   4.124   1.574  0.00  0.00    +0.003 A 
ATOM     19  C   UNL     1       4.355   3.212   0.663  0.00  0.00    -0.047 A 
ATOM     20  C   UNL     1       4.996   3.655  -0.479  0.00  0.00    +0.003 A 
ATOM     21  C   UNL     1       5.127   5.011  -0.715  0.00  0.00    +0.000 A 
ENDBRANCH  15  19
ENDBRANCH   7  15
ENDBRANCH   1  13
BRANCH   4  22
ATOM     22  S   UNL     1      -3.344  -5.710   0.288  0.00  0.00    +0.061 S 
ATOM     23  O   UNL     1      -3.131  -6.330  -0.972  0.00  0.00    -0.153 OA
ATOM     24  O   UNL     1      -3.494  -6.456   1.489  0.00  0.00    -0.153 OA
BRANCH  22  25
ATOM     25  C   UNL     1      -4.794  -4.723   0.125  0.00  0.00    +0.108 A 
ATOM     26  C   UNL     1      -5.540  -4.401   1.244  0.00  0.00    +0.031 A 
ATOM     27  C   UNL     1      -6.675  -3.621   1.119  0.00  0.00    +0.043 A 
ATOM     28  C   UNL     1      -7.071  -3.171  -0.129  0.00  0.00    +0.159 A 
ATOM     29  C   UNL     1      -6.327  -3.499  -1.251  0.00  0.00    +0.160 A 
ATOM     30  C   UNL     1      -5.188  -4.275  -1.122  0.00  0.00    +0.069 A 
ATOM     31  F   UNL     1      -6.712  -3.061  -2.470  0.00  0.00    -0.202 F 
ATOM     32  F   UNL     1      -8.183  -2.414  -0.252  0.00  0.00    -0.202 F 
ENDBRANCH  22  25
ENDBRANCH   4  22
TORSDOF 5
