REMARK  Name = ZINC04250482
REMARK  5 active torsions:
REMARK  status: ('A' for Active; 'I' for Inactive)
REMARK    1  A    between atoms: C_1  and  C_2
REMARK    2  A    between atoms: C_3  and  C_22
REMARK    3  A    between atoms: C_12  and  S_13
REMARK    4  A    between atoms: S_13  and  C_14
REMARK    5  A    between atoms: C_14  and  C_15
REMARK                            x       y       z     vdW  Elec       q    Type
REMARK                         _______ _______ _______ _____ _____    ______ ____
ROOT
ATOM      1  C   UNL     1       1.222  -6.164  -6.277  0.00  0.00    +0.051 C 
ATOM      2  C   UNL     1       1.238  -6.347  -4.782  0.00  0.00    +0.033 A 
ATOM      3  C   UNL     1       1.232  -5.274  -3.971  0.00  0.00    +0.034 A 
ATOM      4  N   UNL     1       1.241  -5.438  -2.605  0.00  0.00    -0.260 N 
ATOM      5  C   UNL     1       1.267  -6.698  -2.062  0.00  0.00    +0.237 A 
ATOM      6  N   UNL     1       1.274  -7.809  -2.888  0.00  0.00    -0.291 N 
ATOM      7  H   UNL     1       1.288  -8.700  -2.504  0.00  0.00    +0.172 HD
ATOM      8  C   UNL     1       1.260  -7.652  -4.227  0.00  0.00    +0.256 A 
ATOM      9  O   UNL     1       1.265  -8.626  -4.957  0.00  0.00    -0.267 OA
ATOM     10  N   UNL     1       1.278  -6.575  -0.757  0.00  0.00    -0.109 NA
ATOM     11  N   UNL     1       1.263  -5.208  -0.449  0.00  0.00    -0.120 NA
ATOM     12  C   UNL     1       1.245  -4.537  -1.575  0.00  0.00    +0.198 A 
ATOM     13  C   UNL     1       1.208  -3.887  -4.561  0.00  0.00    +0.064 C 
ENDROOT
BRANCH  12  14
ATOM     14  S   UNL     1       1.220  -2.782  -1.734  0.00  0.00    -0.081 S 
BRANCH  14  15
ATOM     15  C   UNL     1       1.228  -2.186  -0.020  0.00  0.00    +0.112 C 
BRANCH  15  16
ATOM     16  C   UNL     1       1.208  -0.679  -0.013  0.00  0.00    -0.037 A 
ATOM     17  C   UNL     1       0.002  -0.004   0.002  0.00  0.00    +0.006 A 
ATOM     18  C   UNL     1      -0.017   1.378   0.010  0.00  0.00    +0.020 A 
ATOM     19  C   UNL     1       1.172   2.086   0.002  0.00  0.00    +0.041 A 
ATOM     20  C   UNL     1       2.379   1.409  -0.013  0.00  0.00    +0.020 A 
ATOM     21  C   UNL     1       2.397   0.027  -0.021  0.00  0.00    +0.006 A 
ATOM     22 CL   UNL     1       1.149   3.821   0.011  0.00  0.00    -0.084 Cl
ENDBRANCH  15  16
ENDBRANCH  14  15
ENDBRANCH  12  14
TORSDOF 3
