REMARK  Name = ZINC01650546
REMARK  8 active torsions:
REMARK  status: ('A' for Active; 'I' for Inactive)
REMARK    1  A    between atoms: C_1  and  C_2
REMARK    2  A    between atoms: C_2  and  O_3
REMARK    3  A    between atoms: O_3  and  C_4
REMARK    4  A    between atoms: C_7  and  N_10
REMARK    5  A    between atoms: C_14  and  C_28
REMARK    6  A    between atoms: C_15  and  C_22
REMARK    7  A    between atoms: N_16  and  C_21
REMARK    8  A    between atoms: N_19  and  C_20
REMARK                            x       y       z     vdW  Elec       q    Type
REMARK                         _______ _______ _______ _____ _____    ______ ____
ROOT
ATOM      1  N   UNL     1       0.728  -6.008   1.792  0.00  0.00    -0.225 N 
ATOM      2  C   UNL     1       0.138  -6.982   1.088  0.00  0.00    +0.310 C 
ATOM      3  O   UNL     1      -0.704  -6.768   0.237  0.00  0.00    -0.252 OA
ATOM      4  N   UNL     1       0.558  -8.213   1.405  0.00  0.00    -0.270 N 
ATOM      5  C   UNL     1       1.573  -8.124   2.463  0.00  0.00    +0.176 C 
ATOM      6  C   UNL     1       1.696  -6.601   2.726  0.00  0.00    +0.182 C 
ATOM      7  N   UNL     1       1.209  -6.449   4.104  0.00  0.00    -0.259 N 
ATOM      8  C   UNL     1       0.860  -7.649   4.586  0.00  0.00    +0.308 C 
ATOM      9  O   UNL     1       0.422  -7.810   5.709  0.00  0.00    -0.252 OA
ATOM     10  N   UNL     1       1.027  -8.656   3.719  0.00  0.00    -0.260 N 
ATOM     11  C   UNL     1       0.726 -10.066   3.982  0.00  0.00    +0.136 C 
ATOM     12  C   UNL     1       1.120  -5.183   4.837  0.00  0.00    +0.136 C 
ATOM     13  H   UNL     1       0.241  -9.036   0.999  0.00  0.00    +0.153 HD
ENDROOT
BRANCH   1  17
ATOM     14  C   UNL     1      -0.044  -1.931   1.386  0.00  0.00    +0.121 A 
ATOM     15  C   UNL     1      -0.821  -2.855   0.703  0.00  0.00    +0.047 A 
ATOM     16  C   UNL     1      -0.566  -4.205   0.837  0.00  0.00    +0.027 A 
ATOM     17  C   UNL     1       0.469  -4.638   1.655  0.00  0.00    +0.041 A 
ATOM     18  C   UNL     1       1.246  -3.712   2.338  0.00  0.00    +0.027 A 
ATOM     19  C   UNL     1       0.993  -2.362   2.199  0.00  0.00    +0.047 A 
BRANCH  14  20
ATOM     20  O   UNL     1      -0.296  -0.601   1.253  0.00  0.00    -0.492 OA
BRANCH  20  22
ATOM     21  C   UNL     1      -1.509   1.297   0.376  0.00  0.00    +0.048 C 
ATOM     22  C   UNL     1      -1.380  -0.228   0.399  0.00  0.00    +0.225 C 
ENDBRANCH  20  22
ENDBRANCH  14  20
ENDBRANCH   1  17
BRANCH   6  23
ATOM     23  C   UNL     1       3.095  -6.077   2.527  0.00  0.00    -0.001 A 
ATOM     24  C   UNL     1       3.500  -5.647   1.277  0.00  0.00    +0.007 A 
ATOM     25  C   UNL     1       4.783  -5.167   1.094  0.00  0.00    +0.000 A 
ATOM     26  C   UNL     1       5.661  -5.116   2.161  0.00  0.00    +0.000 A 
ATOM     27  C   UNL     1       5.255  -5.545   3.411  0.00  0.00    +0.000 A 
ATOM     28  C   UNL     1       3.970  -6.022   3.595  0.00  0.00    +0.007 A 
ENDBRANCH   6  23
BRANCH   5  29
ATOM     29  C   UNL     1       2.878  -8.770   2.075  0.00  0.00    -0.002 A 
ATOM     30  C   UNL     1       3.694  -9.318   3.047  0.00  0.00    +0.007 A 
ATOM     31  C   UNL     1       4.891  -9.911   2.691  0.00  0.00    +0.000 A 
ATOM     32  C   UNL     1       5.272  -9.956   1.363  0.00  0.00    +0.000 A 
ATOM     33  C   UNL     1       4.456  -9.408   0.391  0.00  0.00    +0.000 A 
ATOM     34  C   UNL     1       3.257  -8.819   0.747  0.00  0.00    +0.007 A 
ENDBRANCH   5  29
TORSDOF 5
