REMARK  Name = ZINC63617095
REMARK  5 active torsions:
REMARK  status: ('A' for Active; 'I' for Inactive)
REMARK    1  A    between atoms: C_1  and  C_2
REMARK    2  A    between atoms: C_4  and  N_17
REMARK    3  A    between atoms: N_8  and  C_11
REMARK    4  A    between atoms: N_9  and  C_10
REMARK    5  A    between atoms: C_18  and  C_20
REMARK                            x       y       z     vdW  Elec       q    Type
REMARK                         _______ _______ _______ _____ _____    ______ ____
ROOT
ATOM      1  N   UNL     1      -1.992  -1.474  -0.540  0.00  0.00    -0.301 N 
ATOM      2  C   UNL     1      -3.271  -1.429  -0.963  0.00  0.00    +0.240 C 
ATOM      3  O   UNL     1      -3.926  -0.420  -0.807  0.00  0.00    -0.273 OA
ATOM      4  H   UNL     1      -1.469  -2.281  -0.665  0.00  0.00    +0.150 HD
ENDROOT
BRANCH   2   5
ATOM      5  C   UNL     1      -3.887  -2.631  -1.631  0.00  0.00    +0.190 C 
ATOM      6  C   UNL     1      -3.149  -2.952  -2.911  0.00  0.00    +0.016 C 
ATOM      7  C   UNL     1      -4.058  -2.840  -3.906  0.00  0.00    -0.002 A 
ATOM      8  C   UNL     1      -3.969  -3.021  -5.360  0.00  0.00    +0.029 A 
ATOM      9  C   UNL     1      -5.077  -2.834  -6.114  0.00  0.00    +0.042 A 
ATOM     10  C   UNL     1      -6.306  -2.472  -5.542  0.00  0.00    +0.022 A 
ATOM     11  C   UNL     1      -6.465  -2.287  -4.215  0.00  0.00    +0.027 A 
ATOM     12  C   UNL     1      -5.366  -2.458  -3.328  0.00  0.00    +0.043 A 
ATOM     13  N   UNL     1      -5.270  -2.339  -2.024  0.00  0.00    -0.370 N 
ATOM     14 CL   UNL     1      -4.975  -3.047  -7.834  0.00  0.00    -0.084 Cl
ATOM     15  H   UNL     1      -5.991  -2.098  -1.421  0.00  0.00    +0.161 HD
ENDBRANCH   2   5
BRANCH   1  18
ATOM     16  C   UNL     1       0.695   1.111  -0.144  0.00  0.00    +0.028 C 
ATOM     17  C   UNL     1       0.146  -0.314  -0.051  0.00  0.00    +0.102 C 
ATOM     18  C   UNL     1      -1.394  -0.305   0.109  0.00  0.00    +0.179 C 
ATOM     19  C   UNL     1      -1.561  -0.373   1.616  0.00  0.00    +0.256 C 
ATOM     20  O   UNL     1      -2.579  -0.139   2.232  0.00  0.00    -0.272 OA
ATOM     21  N   UNL     1      -0.380  -0.739   2.148  0.00  0.00    -0.201 N 
ATOM     22  N   UNL     1       0.580  -0.968   1.206  0.00  0.00    -0.218 NA
ATOM     23  C   UNL     1       0.787  -2.408   1.005  0.00  0.00    +0.128 C 
BRANCH  21  24
ATOM     24  C   UNL     1      -0.160  -0.870   3.523  0.00  0.00    +0.053 A 
ATOM     25  C   UNL     1       0.964  -0.299   4.106  0.00  0.00    +0.025 A 
ATOM     26  C   UNL     1       1.179  -0.430   5.464  0.00  0.00    +0.002 A 
ATOM     27  C   UNL     1       0.277  -1.131   6.243  0.00  0.00    +0.000 A 
ATOM     28  C   UNL     1      -0.843  -1.702   5.667  0.00  0.00    +0.002 A 
ATOM     29  C   UNL     1      -1.067  -1.568   4.310  0.00  0.00    +0.025 A 
ENDBRANCH  21  24
ENDBRANCH   1  18
TORSDOF 3
