REMARK  Name = ZINC05044841
REMARK  5 active torsions:
REMARK  status: ('A' for Active; 'I' for Inactive)
REMARK    1  A    between atoms: C_1  and  C_2
REMARK    2  A    between atoms: C_10  and  C_12
REMARK    3  A    between atoms: C_12  and  C_24
REMARK    4  A    between atoms: C_13  and  C_14
REMARK    5  A    between atoms: C_16  and  N_21
REMARK                            x       y       z     vdW  Elec       q    Type
REMARK                         _______ _______ _______ _____ _____    ______ ____
ROOT
ATOM      1  C   UNL     1      -0.077  -5.588   2.240  0.00  0.00    +0.095 C 
ATOM      2  C   UNL     1       0.102  -6.726   1.510  0.00  0.00    +0.032 C 
ENDROOT
BRANCH   1  12
ATOM      3  C   UNL     1      -0.204   1.514   0.102  0.00  0.00    +0.044 C 
ATOM      4  C   UNL     1      -0.107   0.010   0.080  0.00  0.00    -0.048 A 
ATOM      5  C   UNL     1       0.113  -0.648  -1.122  0.00  0.00    +0.005 A 
ATOM      6  C   UNL     1       0.204  -2.011  -1.163  0.00  0.00    +0.030 A 
ATOM      7  C   UNL     1       0.076  -2.754   0.015  0.00  0.00    +0.089 A 
ATOM      8  C   UNL     1      -0.146  -2.086   1.233  0.00  0.00    +0.067 A 
ATOM      9  C   UNL     1      -0.231  -0.701   1.255  0.00  0.00    +0.031 A 
ATOM     10  N   UNL     1      -0.229  -3.067   2.202  0.00  0.00    -0.337 N 
ATOM     11  H   UNL     1      -0.379  -2.929   3.150  0.00  0.00    +0.167 HD
ATOM     12  C   UNL     1      -0.061  -4.273   1.573  0.00  0.00    +0.150 A 
ATOM     13  N   UNL     1       0.118  -4.080   0.287  0.00  0.00    -0.227 NA
ENDBRANCH   1  12
BRANCH   2  14
ATOM     14  C   UNL     1       0.235  -8.020   2.188  0.00  0.00    -0.003 A 
ATOM     15  C   UNL     1       0.854  -8.098   3.443  0.00  0.00    +0.042 A 
ATOM     16  C   UNL     1       0.974  -9.317   4.073  0.00  0.00    +0.127 A 
ATOM     17  C   UNL     1       0.486 -10.464   3.470  0.00  0.00    +0.034 A 
ATOM     18  C   UNL     1      -0.127 -10.398   2.231  0.00  0.00    +0.023 A 
ATOM     19  C   UNL     1      -0.262  -9.185   1.588  0.00  0.00    +0.048 A 
ATOM     20 CL   UNL     1      -1.038  -9.102   0.037  0.00  0.00    -0.083 Cl
BRANCH  16  21
ATOM     21  N   UNL     1       1.628  -9.401   5.398  0.00  0.00    +0.056 N 
ATOM     22  O   UNL     1       2.055  -8.401   5.926  0.00  0.00    -0.126 OA
ATOM     23  O   UNL     1       1.734 -10.470   5.953  0.00  0.00    -0.126 OA
ENDBRANCH  16  21
ENDBRANCH   2  14
BRANCH   1  24
ATOM     24  C   UNL     1      -0.281  -5.670   3.655  0.00  0.00    +0.103 C 
ATOM     25  N   UNL     1      -0.443  -5.735   4.778  0.00  0.00    -0.191 NA
ENDBRANCH   1  24
TORSDOF 4
