REMARK  Name = ZINC40260442
REMARK  4 active torsions:
REMARK  status: ('A' for Active; 'I' for Inactive)
REMARK    1  A    between atoms: C_1  and  C_2
REMARK    2  A    between atoms: C_7  and  C_8
REMARK    3  A    between atoms: C_8  and  C_10
REMARK    4  A    between atoms: C_8  and  O_21
REMARK                            x       y       z     vdW  Elec       q    Type
REMARK                         _______ _______ _______ _____ _____    ______ ____
ROOT
ATOM      1  C   UNL     1       1.439   0.420   2.866  0.00  0.00    -0.013 A 
ATOM      2  C   UNL     1       2.279  -0.520   3.433  0.00  0.00    +0.010 A 
ATOM      3  C   UNL     1       3.578  -0.184   3.767  0.00  0.00    +0.048 A 
ATOM      4  C   UNL     1       4.040   1.099   3.533  0.00  0.00    +0.142 A 
ATOM      5  C   UNL     1       3.193   2.048   2.962  0.00  0.00    +0.076 A 
ATOM      6  C   UNL     1       1.895   1.703   2.624  0.00  0.00    +0.033 A 
ATOM      7  N   UNL     1       3.673   3.345   2.732  0.00  0.00    -0.280 N 
ATOM      8  C   UNL     1       5.005   3.566   2.768  0.00  0.00    +0.255 C 
ATOM      9  O   UNL     1       5.441   4.686   2.603  0.00  0.00    -0.272 OA
ATOM     10  C   UNL     1       5.948   2.416   3.013  0.00  0.00    +0.325 C 
ATOM     11  O   UNL     1       5.315   1.447   3.853  0.00  0.00    -0.481 OA
ATOM     12  H   UNL     1       3.058   4.073   2.550  0.00  0.00    +0.155 HD
ENDROOT
BRANCH   1  13
ATOM     13  C   UNL     1       0.025   0.045   2.504  0.00  0.00    +0.175 C 
BRANCH  13  20
ATOM     14  C   UNL     1      -0.018   1.503   0.010  0.00  0.00    +0.044 C 
ATOM     15  C   UNL     1       0.002  -0.004   0.002  0.00  0.00    -0.045 A 
ATOM     16  C   UNL     1       0.006  -0.689  -1.199  0.00  0.00    +0.004 A 
ATOM     17  C   UNL     1       0.025  -2.071  -1.207  0.00  0.00    +0.000 A 
ATOM     18  C   UNL     1       0.040  -2.768  -0.013  0.00  0.00    +0.000 A 
ATOM     19  C   UNL     1       0.037  -2.084   1.188  0.00  0.00    +0.007 A 
ATOM     20  C   UNL     1       0.023  -0.702   1.195  0.00  0.00    -0.012 A 
ENDBRANCH  13  20
BRANCH  13  21
ATOM     21  O   UNL     1      -0.523  -0.787   3.528  0.00  0.00    -0.383 OA
ATOM     22  H   UNL     1      -0.036  -1.611   3.668  0.00  0.00    +0.211 HD
ENDBRANCH  13  21
ENDBRANCH   1  13
TORSDOF 3
