REMARK  Name = ZINC03009250
REMARK  4 active torsions:
REMARK  status: ('A' for Active; 'I' for Inactive)
REMARK    1  A    between atoms: C_1  and  C_2
REMARK    2  A    between atoms: C_5  and  C_8
REMARK    3  A    between atoms: N_10  and  C_11
REMARK    4  A    between atoms: N_15  and  C_16
REMARK                            x       y       z     vdW  Elec       q    Type
REMARK                         _______ _______ _______ _____ _____    ______ ____
ROOT
ATOM      1  C   UNL     1      -0.246  -0.010  -0.253  0.00  0.00    +0.134 A 
ATOM      2  C   UNL     1      -0.206   1.351  -0.048  0.00  0.00    +0.038 A 
ATOM      3  C   UNL     1       1.117   1.713   0.139  0.00  0.00    +0.091 A 
ATOM      4  N   UNL     1       1.863   0.621   0.053  0.00  0.00    -0.168 NA
ATOM      5  N   UNL     1       1.028  -0.470  -0.192  0.00  0.00    -0.218 N 
ATOM      6  C   UNL     1       1.396   3.194   0.386  0.00  0.00    +0.223 C 
ATOM      7  S   UNL     1      -0.281   3.829   0.800  0.00  0.00    -0.021 S 
ATOM      8  O   UNL     1      -0.467   3.783   2.208  0.00  0.00    -0.174 OA
ATOM      9  O   UNL     1      -0.513   5.041   0.096  0.00  0.00    -0.174 OA
ATOM     10  C   UNL     1      -1.242   2.471   0.019  0.00  0.00    +0.206 C 
ENDROOT
BRANCH   5  11
ATOM     11  C   UNL     1       1.434  -1.804  -0.349  0.00  0.00    +0.068 A 
ATOM     12  C   UNL     1       0.702  -2.826   0.239  0.00  0.00    +0.030 A 
ATOM     13  C   UNL     1       1.100  -4.139   0.080  0.00  0.00    +0.040 A 
ATOM     14  C   UNL     1       2.235  -4.435  -0.657  0.00  0.00    +0.124 A 
ATOM     15  C   UNL     1       2.970  -3.415  -1.240  0.00  0.00    +0.040 A 
ATOM     16  C   UNL     1       2.571  -2.102  -1.087  0.00  0.00    +0.030 A 
ATOM     17  F   UNL     1       2.627  -5.719  -0.806  0.00  0.00    -0.205 F 
ENDBRANCH   5  11
BRANCH   1  20
ATOM     18  C   UNL     1      -2.472  -0.213  -1.052  0.00  0.00    +0.249 C 
ATOM     19  O   UNL     1      -2.425   0.935  -1.448  0.00  0.00    -0.270 OA
ATOM     20  N   UNL     1      -1.388  -0.775  -0.482  0.00  0.00    -0.266 N 
ATOM     21  H   UNL     1      -1.402  -1.712  -0.231  0.00  0.00    +0.157 HD
BRANCH  18  26
ATOM     22  C   UNL     1      -7.326  -3.253  -1.616  0.00  0.00    +0.044 C 
ATOM     23  C   UNL     1      -6.055  -2.457  -1.468  0.00  0.00    -0.050 A 
ATOM     24  C   UNL     1      -6.004  -1.149  -1.919  0.00  0.00    +0.004 A 
ATOM     25  C   UNL     1      -4.844  -0.415  -1.787  0.00  0.00    +0.013 A 
ATOM     26  C   UNL     1      -3.719  -0.994  -1.196  0.00  0.00    +0.037 A 
ATOM     27  C   UNL     1      -3.775  -2.315  -0.749  0.00  0.00    +0.013 A 
ATOM     28  C   UNL     1      -4.944  -3.036  -0.882  0.00  0.00    +0.004 A 
ENDBRANCH  18  26
ENDBRANCH   1  20
TORSDOF 3
