REMARK  Name = ZINC43641864
REMARK  9 active torsions:
REMARK  status: ('A' for Active; 'I' for Inactive)
REMARK    1  A    between atoms: C_1  and  C_2
REMARK    2  A    between atoms: C_2  and  C_34
REMARK    3  A    between atoms: C_7  and  C_11
REMARK    4  A    between atoms: C_11  and  N_12
REMARK    5  A    between atoms: N_20  and  C_25
REMARK    6  A    between atoms: N_23  and  C_24
REMARK    7  A    between atoms: C_25  and  C_26
REMARK    8  A    between atoms: C_26  and  C_27
REMARK    9  A    between atoms: C_27  and  C_28
REMARK                            x       y       z     vdW  Elec       q    Type
REMARK                         _______ _______ _______ _____ _____    ______ ____
ROOT
ATOM      1  N   UNL     1       1.482  -2.905   3.193  0.00  0.00    +0.382 N 
ATOM      2  C   UNL     1       2.158  -1.698   3.686  0.00  0.00    -0.076 C 
ATOM      3  C   UNL     1       3.470  -2.089   4.371  0.00  0.00    +0.017 C 
ATOM      4  C   UNL     1       3.171  -3.037   5.528  0.00  0.00    +0.112 C 
ATOM      5  C   UNL     1       2.384  -4.247   5.035  0.00  0.00    +0.017 C 
ATOM      6  C   UNL     1       1.115  -3.769   4.322  0.00  0.00    -0.076 C 
ATOM      7  C   UNL     1       4.453  -3.477   6.197  0.00  0.00    +0.247 C 
ATOM      8  O   UNL     1       5.369  -4.092   5.695  0.00  0.00    -0.273 OA
ATOM      9  N   UNL     1       4.362  -3.039   7.470  0.00  0.00    -0.224 N 
ATOM     10  C   UNL     1       3.211  -2.392   7.689  0.00  0.00    +0.312 C 
ATOM     11  O   UNL     1       2.901  -1.907   8.759  0.00  0.00    -0.252 OA
ATOM     12  N   UNL     1       2.434  -2.340   6.589  0.00  0.00    -0.274 N 
ATOM     13  C   UNL     1       1.116  -1.712   6.475  0.00  0.00    +0.134 C 
ATOM     14  H   UNL     1       2.103  -3.407   2.576  0.00  0.00    -0.081 HD
ENDROOT
BRANCH   1  15
ATOM     15  C   UNL     1       0.269  -2.520   2.460  0.00  0.00    -0.047 C 
BRANCH  15  21
ATOM     16  C   UNL     1       0.193   2.013   0.243  0.00  0.00    +0.012 C 
ATOM     17  C   UNL     1       0.227   0.489   0.117  0.00  0.00    -0.025 C 
ATOM     18  C   UNL     1       1.406  -0.042  -0.723  0.00  0.00    -0.000 C 
ATOM     19  C   UNL     1       1.164  -1.498  -1.145  0.00  0.00    +0.031 C 
ATOM     20  C   UNL     1       0.787  -2.321   0.063  0.00  0.00    -0.029 C 
ATOM     21  C   UNL     1       0.653  -1.736   1.231  0.00  0.00    -0.086 C 
ATOM     22  C   UNL     1       0.911  -0.220   1.301  0.00  0.00    +0.019 C 
ATOM     23  C   UNL     1       2.236   0.097   0.565  0.00  0.00    +0.012 C 
ATOM     24  C   UNL     1      -1.128  -0.111  -0.264  0.00  0.00    +0.012 C 
ENDBRANCH  15  21
ENDBRANCH   1  15
BRANCH   9  25
ATOM     25  C   UNL     1       5.396  -3.247   8.487  0.00  0.00    +0.118 C 
BRANCH  25  26
ATOM     26  C   UNL     1       6.382  -2.078   8.460  0.00  0.00    +0.024 C 
BRANCH  26  27
ATOM     27  C   UNL     1       7.461  -2.295   9.522  0.00  0.00    +0.037 C 
BRANCH  27  28
ATOM     28  C   UNL     1       8.432  -1.143   9.494  0.00  0.00    -0.044 A 
ATOM     29  C   UNL     1       9.554  -1.180   8.680  0.00  0.00    +0.023 A 
ATOM     30  C   UNL     1      10.423  -0.105   8.681  0.00  0.00    +0.111 A 
ATOM     31  N   UNL     1      10.194   0.946   9.445  0.00  0.00    -0.263 NA
ATOM     32  C   UNL     1       9.138   1.015  10.231  0.00  0.00    +0.111 A 
ATOM     33  C   UNL     1       8.223  -0.019  10.278  0.00  0.00    +0.023 A 
ENDBRANCH  27  28
ENDBRANCH  26  27
ENDBRANCH  25  26
ENDBRANCH   9  25
TORSDOF 6
