REMARK  Name = ZINC29138139
REMARK  5 active torsions:
REMARK  status: ('A' for Active; 'I' for Inactive)
REMARK    1  A    between atoms: C_1  and  C_2
REMARK    2  A    between atoms: C_2  and  C_3
REMARK    3  A    between atoms: C_2  and  C_4
REMARK    4  A    between atoms: C_6  and  C_9
REMARK    5  A    between atoms: C_9  and  N_10
REMARK                            x       y       z     vdW  Elec       q    Type
REMARK                         _______ _______ _______ _____ _____    ______ ____
ROOT
ATOM      1  C   UNL     1       2.362   4.593   0.004  0.00  0.00    +0.246 C 
ENDROOT
BRANCH   1   2
ATOM      2  N   UNL     1       1.116   3.823   0.011  0.00  0.00    -0.219 N 
ATOM      3  C   UNL     1       1.177   2.478   0.004  0.00  0.00    +0.288 A 
ATOM      4  O   UNL     1       2.257   1.909  -0.008  0.00  0.00    -0.265 OA
ATOM      5  C   UNL     1      -0.021   1.732   0.012  0.00  0.00    +0.126 A 
ATOM      6  C   UNL     1      -1.203   2.423   0.021  0.00  0.00    +0.084 A 
ATOM      7  C   UNL     1      -1.152   3.828   0.033  0.00  0.00    +0.154 A 
ATOM      8  N   UNL     1      -0.005   4.448   0.025  0.00  0.00    -0.175 NA
ATOM      9 CL   UNL     1      -2.724   1.587   0.024  0.00  0.00    -0.080 Cl
ATOM     10 CL   UNL     1       0.002  -0.004   0.002  0.00  0.00    -0.076 Cl
ENDBRANCH   1   2
BRANCH   1  13
ATOM     11  C   UNL     1       3.034   5.718  -3.339  0.00  0.00    +0.174 A 
ATOM     12  N   UNL     1       2.433   5.898  -2.149  0.00  0.00    -0.194 NA
ATOM     13  C   UNL     1       2.776   4.864  -1.420  0.00  0.00    +0.249 A 
ATOM     14  O   UNL     1       3.559   4.094  -2.181  0.00  0.00    -0.336 OA
ATOM     15  N   UNL     1       3.694   4.600  -3.276  0.00  0.00    -0.061 NA
BRANCH  11  17
ATOM     16  C   UNL     1       4.357   7.123  -4.895  0.00  0.00    +0.015 C 
ATOM     17  C   UNL     1       2.953   6.639  -4.528  0.00  0.00    +0.054 C 
ATOM     18  C   UNL     1       2.346   5.888  -5.715  0.00  0.00    +0.015 C 
ENDBRANCH  11  17
ENDBRANCH   1  13
TORSDOF 3
