REMARK  Name = ZINC00989019
REMARK  12 active torsions:
REMARK  status: ('A' for Active; 'I' for Inactive)
REMARK    1  A    between atoms: C_1  and  C_2
REMARK    2  A    between atoms: C_2  and  C_3
REMARK    3  A    between atoms: C_2  and  N_4
REMARK    4  A    between atoms: C_11  and  C_23
REMARK    5  A    between atoms: C_13  and  C_19
REMARK    6  A    between atoms: C_13  and  C_21
REMARK    7  A    between atoms: C_14  and  N_18
REMARK    8  A    between atoms: C_15  and  C_16
REMARK    9  A    between atoms: C_25  and  O_31
REMARK   10  A    between atoms: C_28  and  O_29
REMARK   11  A    between atoms: O_29  and  C_30
REMARK   12  A    between atoms: O_31  and  C_32
REMARK                            x       y       z     vdW  Elec       q    Type
REMARK                         _______ _______ _______ _____ _____    ______ ____
ROOT
ATOM      1  N   UNL     1      -0.771  -0.772  -0.537  0.00  0.00    -0.296 NA
ATOM      2  C   UNL     1      -1.127  -0.245   0.792  0.00  0.00    +0.112 C 
ATOM      3  C   UNL     1      -2.610  -0.449   0.981  0.00  0.00    -0.006 C 
ATOM      4  C   UNL     1      -3.204  -1.500   0.446  0.00  0.00    -0.026 C 
ATOM      5  C   UNL     1      -2.460  -2.559  -0.316  0.00  0.00    +0.044 C 
ATOM      6  C   UNL     1      -1.014  -2.216  -0.591  0.00  0.00    +0.094 C 
ATOM      7  C   UNL     1      -3.237  -2.855  -1.600  0.00  0.00    +0.071 C 
ATOM      8  C   UNL     1      -4.609  -3.420  -1.230  0.00  0.00    +0.188 C 
ATOM      9  C   UNL     1      -5.310  -2.564  -0.220  0.00  0.00    +0.054 C 
ATOM     10  C   UNL     1      -4.672  -1.671   0.580  0.00  0.00    +0.074 C 
ENDROOT
BRANCH   7  11
ATOM     11  C   UNL     1      -3.408  -1.583  -2.390  0.00  0.00    +0.004 A 
ATOM     12  C   UNL     1      -4.397  -0.682  -2.043  0.00  0.00    +0.053 A 
ATOM     13  C   UNL     1      -4.555   0.488  -2.770  0.00  0.00    +0.121 A 
ATOM     14  C   UNL     1      -3.720   0.755  -3.845  0.00  0.00    +0.049 A 
ATOM     15  C   UNL     1      -2.731  -0.145  -4.191  0.00  0.00    +0.049 A 
ATOM     16  C   UNL     1      -2.570  -1.313  -3.461  0.00  0.00    +0.124 A 
BRANCH  16  17
ATOM     17  O   UNL     1      -1.593  -2.197  -3.799  0.00  0.00    -0.495 OA
ATOM     18  C   UNL     1      -0.767  -1.855  -4.914  0.00  0.00    +0.277 C 
ENDBRANCH  16  17
BRANCH  13  19
ATOM     19  O   UNL     1      -5.528   1.374  -2.429  0.00  0.00    -0.495 OA
ATOM     20  C   UNL     1      -5.634   2.559  -3.220  0.00  0.00    +0.277 C 
ENDBRANCH  13  19
ENDBRANCH   7  11
BRANCH   1  22
ATOM     21  C   UNL     1       0.811   1.056  -0.926  0.00  0.00    +0.024 C 
ATOM     22  C   UNL     1       0.626  -0.461  -0.870  0.00  0.00    +0.051 C 
ATOM     23  C   UNL     1       1.548  -1.048   0.201  0.00  0.00    +0.024 C 
ENDBRANCH   1  22
BRANCH   9  24
ATOM     24  N   UNL     1      -6.665  -2.688  -0.097  0.00  0.00    -0.358 N 
ATOM     25  H   UNL     1      -7.147  -3.318  -0.655  0.00  0.00    +0.142 HD
ATOM     26  H   UNL     1      -7.146  -2.147   0.549  0.00  0.00    +0.142 HD
ENDBRANCH   9  24
BRANCH  10  27
ATOM     27  C   UNL     1      -5.407  -0.905   1.541  0.00  0.00    +0.101 C 
ATOM     28  N   UNL     1      -5.989  -0.296   2.304  0.00  0.00    -0.191 NA
ENDBRANCH  10  27
BRANCH   8  29
ATOM     29  C   UNL     1      -4.436  -4.772  -0.676  0.00  0.00    +0.091 C 
ATOM     30  N   UNL     1      -4.303  -5.816  -0.248  0.00  0.00    -0.194 NA
ENDBRANCH   8  29
BRANCH   8  31
ATOM     31  C   UNL     1      -5.436  -3.504  -2.445  0.00  0.00    +0.091 C 
ATOM     32  N   UNL     1      -6.074  -3.568  -3.382  0.00  0.00    -0.194 NA
ENDBRANCH   8  31
TORSDOF 8
