REMARK  Name = ZINC00085224
REMARK  4 active torsions:
REMARK  status: ('A' for Active; 'I' for Inactive)
REMARK    1  A    between atoms: C_1  and  C_2
REMARK    2  A    between atoms: C_2  and  C_3
REMARK    3  A    between atoms: C_6  and  C_9
REMARK    4  A    between atoms: C_12  and  C_20
REMARK                            x       y       z     vdW  Elec       q    Type
REMARK                         _______ _______ _______ _____ _____    ______ ____
ROOT
ATOM      1  C   UNL     1       2.797  -1.919   4.683  0.00  0.00    +0.106 C 
ATOM      2  C   UNL     1       2.604  -3.434   4.812  0.00  0.00    +0.059 C 
ATOM      3  C   UNL     1       1.108  -3.764   4.880  0.00  0.00    +0.144 C 
ATOM      4  N   UNL     1       0.480  -2.897   5.873  0.00  0.00    -0.206 N 
ATOM      5  C   UNL     1       1.022  -1.742   6.335  0.00  0.00    +0.236 A 
ATOM      6  N   UNL     1       0.189  -1.244   7.206  0.00  0.00    -0.092 NA
ATOM      7  N   UNL     1      -0.843  -2.006   7.323  0.00  0.00    -0.021 NA
ATOM      8  N   UNL     1      -0.737  -3.032   6.541  0.00  0.00    -0.042 NA
ATOM      9  N   UNL     1       2.250  -1.265   5.889  0.00  0.00    -0.305 N 
ATOM     10  H   UNL     1       2.722  -0.549   6.342  0.00  0.00    +0.150 HD
ENDROOT
BRANCH   1  14
ATOM     11  C   UNL     1       0.731  -0.503   1.223  0.00  0.00    -0.048 A 
ATOM     12  C   UNL     1       2.097  -0.710   1.176  0.00  0.00    +0.004 A 
ATOM     13  C   UNL     1       2.766  -1.167   2.296  0.00  0.00    +0.006 A 
ATOM     14  C   UNL     1       2.068  -1.419   3.463  0.00  0.00    -0.027 A 
ATOM     15  C   UNL     1       0.702  -1.212   3.510  0.00  0.00    +0.006 A 
ATOM     16  C   UNL     1       0.034  -0.750   2.391  0.00  0.00    +0.004 A 
BRANCH  11  18
ATOM     17  C   UNL     1      -0.019   1.526   0.010  0.00  0.00    +0.009 C 
ATOM     18  C   UNL     1       0.002  -0.004   0.002  0.00  0.00    +0.032 C 
ENDBRANCH  11  18
ENDBRANCH   1  14
BRANCH   3  19
ATOM     19  C   UNL     1       0.925  -5.206   5.276  0.00  0.00    -0.023 A 
ATOM     20  C   UNL     1       1.414  -5.657   6.487  0.00  0.00    +0.006 A 
ATOM     21  C   UNL     1       1.247  -6.980   6.851  0.00  0.00    +0.000 A 
ATOM     22  C   UNL     1       0.590  -7.852   6.003  0.00  0.00    +0.000 A 
ATOM     23  C   UNL     1       0.099  -7.401   4.792  0.00  0.00    +0.000 A 
ATOM     24  C   UNL     1       0.263  -6.077   4.430  0.00  0.00    +0.006 A 
ENDBRANCH   3  19
TORSDOF 3
