REMARK  Name = ZINC04487243
REMARK  4 active torsions:
REMARK  status: ('A' for Active; 'I' for Inactive)
REMARK    1  A    between atoms: C_1  and  C_2
REMARK    2  A    between atoms: N_5  and  S_11
REMARK    3  A    between atoms: C_7  and  C_10
REMARK    4  A    between atoms: S_11  and  C_14
REMARK                            x       y       z     vdW  Elec       q    Type
REMARK                         _______ _______ _______ _____ _____    ______ ____
ROOT
ATOM      1  S   UNL     1       2.212   4.088   0.829  0.00  0.00    +0.061 S 
ATOM      2  O   UNL     1       1.556   5.348   0.775  0.00  0.00    -0.153 OA
ATOM      3  O   UNL     1       2.400   3.379   2.046  0.00  0.00    -0.153 OA
ENDROOT
BRANCH   1   4
ATOM      4  C   UNL     1       3.812   4.323   0.131  0.00  0.00    +0.106 A 
ATOM      5  C   UNL     1       4.847   3.466   0.477  0.00  0.00    +0.032 A 
ATOM      6  C   UNL     1       6.106   3.628  -0.063  0.00  0.00    +0.049 A 
ATOM      7  C   UNL     1       6.346   4.667  -0.954  0.00  0.00    +0.139 A 
ATOM      8  C   UNL     1       5.297   5.537  -1.298  0.00  0.00    +0.019 A 
ATOM      9  C   UNL     1       4.026   5.351  -0.744  0.00  0.00    +0.040 A 
ATOM     10  C   UNL     1       5.559   6.630  -2.239  0.00  0.00    +0.018 A 
ATOM     11  C   UNL     1       6.814   6.757  -2.740  0.00  0.00    +0.092 A 
ATOM     12  C   UNL     1       7.820   5.847  -2.350  0.00  0.00    +0.337 A 
ATOM     13  O   UNL     1       8.942   5.971  -2.808  0.00  0.00    -0.245 OA
ATOM     14  O   UNL     1       7.572   4.848  -1.489  0.00  0.00    -0.422 OA
ENDBRANCH   1   4
BRANCH   1  18
ATOM     15  C   UNL     1      -0.731   1.580   1.265  0.00  0.00    +0.039 C 
ATOM     16  C   UNL     1      -0.013   1.086   0.008  0.00  0.00    +0.131 C 
ATOM     17  C   UNL     1       1.425   1.617  -0.003  0.00  0.00    +0.140 C 
ATOM     18  N   UNL     1       1.379   3.077  -0.183  0.00  0.00    -0.172 NA
ATOM     19  C   UNL     1       0.570   3.612  -1.290  0.00  0.00    +0.140 C 
ATOM     20  C   UNL     1      -0.826   2.983  -1.217  0.00  0.00    +0.131 C 
ATOM     21  O   UNL     1      -0.699   1.560  -1.153  0.00  0.00    -0.371 OA
ATOM     22  C   UNL     1      -1.627   3.370  -2.462  0.00  0.00    +0.039 C 
ENDBRANCH   1  18
TORSDOF 2
