REMARK  Name = ZINC39890321
REMARK  5 active torsions:
REMARK  status: ('A' for Active; 'I' for Inactive)
REMARK    1  A    between atoms: C_1  and  C_2
REMARK    2  A    between atoms: C_2  and  N_3
REMARK    3  A    between atoms: C_18  and  C_30
REMARK    4  A    between atoms: N_26  and  C_27
REMARK    5  A    between atoms: C_27  and  C_28
REMARK                            x       y       z     vdW  Elec       q    Type
REMARK                         _______ _______ _______ _____ _____    ______ ____
ROOT
ATOM      1  N   UNL     1       0.711  -0.489   1.189  0.00  0.00    -0.269 N 
ATOM      2  C   UNL     1       2.074  -0.724   1.234  0.00  0.00    +0.042 A 
ATOM      3  C   UNL     1       3.033  -0.570   0.232  0.00  0.00    +0.024 A 
ATOM      4  C   UNL     1       4.344  -0.882   0.556  0.00  0.00    +0.002 A 
ATOM      5  C   UNL     1       4.700  -1.327   1.813  0.00  0.00    +0.000 A 
ATOM      6  C   UNL     1       3.754  -1.485   2.820  0.00  0.00    +0.008 A 
ATOM      7  C   UNL     1       2.448  -1.178   2.506  0.00  0.00    +0.011 A 
ATOM      8  C   UNL     1       1.193  -1.230   3.316  0.00  0.00    +0.174 C 
ATOM      9  C   UNL     1       0.112  -0.755   2.369  0.00  0.00    +0.253 C 
ATOM     10  O   UNL     1      -1.068  -0.638   2.622  0.00  0.00    -0.272 OA
ATOM     11  C   UNL     1       1.259  -0.377   4.534  0.00  0.00    +0.084 A 
ATOM     12  C   UNL     1       1.521   1.056   4.707  0.00  0.00    +0.199 A 
ATOM     13  O   UNL     1       1.578   1.839   3.775  0.00  0.00    -0.287 OA
ATOM     14  C   UNL     1       1.709   1.462   6.122  0.00  0.00    +0.065 A 
ATOM     15  C   UNL     1       2.148   2.748   6.436  0.00  0.00    +0.018 A 
ATOM     16  C   UNL     1       2.320   3.105   7.745  0.00  0.00    -0.050 A 
ATOM     17  C   UNL     1       2.059   2.193   8.758  0.00  0.00    +0.007 A 
ATOM     18  C   UNL     1       1.624   0.920   8.466  0.00  0.00    +0.047 A 
ATOM     19  C   UNL     1       1.437   0.532   7.139  0.00  0.00    +0.139 A 
ATOM     20  O   UNL     1       0.997  -0.719   6.877  0.00  0.00    -0.450 OA
ATOM     21  C   UNL     1       1.020  -1.183   5.612  0.00  0.00    +0.200 A 
ATOM     22  C   UNL     1       0.810  -2.558   5.125  0.00  0.00    +0.284 C 
ATOM     23  O   UNL     1       0.581  -3.520   5.831  0.00  0.00    -0.267 OA
ATOM     24  N   UNL     1       0.909  -2.593   3.779  0.00  0.00    -0.269 N 
ATOM     25  C   UNL     1       2.793   4.494   8.088  0.00  0.00    +0.044 C 
ENDROOT
BRANCH   1  27
ATOM     26  C   UNL     1      -0.019   1.526   0.010  0.00  0.00    +0.025 C 
ATOM     27  C   UNL     1       0.002  -0.004   0.002  0.00  0.00    +0.110 C 
ENDBRANCH   1  27
BRANCH  24  28
ATOM     28  C   UNL     1       0.761  -3.779   2.932  0.00  0.00    +0.136 C 
BRANCH  28  29
ATOM     29  C   UNL     1       2.104  -4.438   2.751  0.00  0.00    -0.016 C 
ATOM     30  C   UNL     1       2.260  -5.703   3.057  0.00  0.00    +0.005 C 
ENDBRANCH  28  29
ENDBRANCH  24  28
TORSDOF 3
