REMARK  Name = ZINC66938643
REMARK  6 active torsions:
REMARK  status: ('A' for Active; 'I' for Inactive)
REMARK    1  A    between atoms: C_1  and  C_2
REMARK    2  A    between atoms: C_2  and  C_3
REMARK    3  A    between atoms: C_2  and  O_4
REMARK    4  A    between atoms: O_4  and  C_5
REMARK    5  A    between atoms: C_8  and  N_11
REMARK    6  A    between atoms: C_15  and  C_18
REMARK                            x       y       z     vdW  Elec       q    Type
REMARK                         _______ _______ _______ _____ _____    ______ ____
ROOT
ATOM      1  N   UNL     1      -2.519  -5.155  -2.724  0.00  0.00    -0.294 N 
ATOM      2  C   UNL     1      -3.828  -5.535  -2.901  0.00  0.00    +0.153 C 
ATOM      3  N   UNL     1      -4.135  -6.590  -3.627  0.00  0.00    -0.258 N 
ATOM      4  N   UNL     1      -5.311  -7.007  -3.848  0.00  0.00    -0.176 NA
ATOM      5  C   UNL     1      -6.433  -6.382  -3.740  0.00  0.00    +0.079 C 
ATOM      6  C   UNL     1      -6.512  -4.929  -3.329  0.00  0.00    +0.134 C 
ATOM      7  S   UNL     1      -5.149  -4.625  -2.151  0.00  0.00    -0.084 S 
ATOM      8  H   UNL     1      -1.856  -5.372  -3.398  0.00  0.00    +0.154 HD
ATOM      9  H   UNL     1      -3.402  -7.086  -4.026  0.00  0.00    +0.191 HD
ENDROOT
BRANCH   5  10
ATOM     10  C   UNL     1      -7.680  -7.108  -4.026  0.00  0.00    -0.001 A 
ATOM     11  C   UNL     1      -8.913  -6.453  -3.921  0.00  0.00    +0.011 A 
ATOM     12  C   UNL     1     -10.078  -7.136  -4.190  0.00  0.00    +0.024 A 
ATOM     13  C   UNL     1     -10.032  -8.475  -4.565  0.00  0.00    +0.037 A 
ATOM     14  C   UNL     1      -8.809  -9.129  -4.670  0.00  0.00    -0.025 A 
ATOM     15  C   UNL     1      -7.638  -8.453  -4.408  0.00  0.00    +0.015 A 
ATOM     16  C   UNL     1      -8.767 -10.579  -5.078  0.00  0.00    +0.046 C 
ATOM     17  C   UNL     1      -9.996 -11.301  -4.523  0.00  0.00    +0.101 C 
ATOM     18  C   UNL     1     -11.238 -10.511  -4.835  0.00  0.00    +0.218 C 
ATOM     19  O   UNL     1     -12.271 -11.094  -5.087  0.00  0.00    -0.275 OA
ATOM     20  N   UNL     1     -11.216  -9.166  -4.838  0.00  0.00    -0.285 N 
ATOM     21  H   UNL     1     -12.028  -8.671  -5.029  0.00  0.00    +0.155 HD
ENDBRANCH   5  10
BRANCH   1  25
ATOM     22  C   UNL     1      -1.398  -3.070   0.707  0.00  0.00    +0.121 A 
ATOM     23  C   UNL     1      -2.419  -4.008   0.768  0.00  0.00    +0.047 A 
ATOM     24  C   UNL     1      -2.791  -4.699  -0.368  0.00  0.00    +0.027 A 
ATOM     25  C   UNL     1      -2.143  -4.455  -1.572  0.00  0.00    +0.033 A 
ATOM     26  C   UNL     1      -1.121  -3.516  -1.632  0.00  0.00    +0.027 A 
ATOM     27  C   UNL     1      -0.754  -2.822  -0.496  0.00  0.00    +0.047 A 
BRANCH  22  28
ATOM     28  O   UNL     1      -1.033  -2.390   1.827  0.00  0.00    -0.489 OA
BRANCH  28  30
ATOM     29  C   UNL     1      -0.141  -0.363   2.795  0.00  0.00    +0.051 C 
ATOM     30  C   UNL     1      -0.009  -1.404   1.681  0.00  0.00    +0.167 C 
ATOM     31  C   UNL     1       1.363  -2.075   1.770  0.00  0.00    +0.051 C 
ENDBRANCH  28  30
ENDBRANCH  22  28
ENDBRANCH   1  25
TORSDOF 4
