REMARK  Name = ZINC44963339
REMARK  8 active torsions:
REMARK  status: ('A' for Active; 'I' for Inactive)
REMARK    1  A    between atoms: C_1  and  C_2
REMARK    2  A    between atoms: C_13  and  C_15
REMARK    3  A    between atoms: N_17  and  C_18
REMARK    4  A    between atoms: C_18  and  C_19
REMARK    5  A    between atoms: C_18  and  C_20
REMARK    6  A    between atoms: C_18  and  C_21
REMARK    7  A    between atoms: C_21  and  O_22
REMARK    8  A    between atoms: C_27  and  C_33
REMARK                            x       y       z     vdW  Elec       q    Type
REMARK                         _______ _______ _______ _____ _____    ______ ____
ROOT
ATOM      1  C   UNL     1       0.131   1.580   0.021  0.00  0.00    +0.012 C 
ATOM      2  C   UNL     1       0.079   0.041   0.028  0.00  0.00    -0.018 C 
ATOM      3  C   UNL     1      -1.372  -0.366   0.135  0.00  0.00    +0.008 C 
ATOM      4  C   UNL     1      -1.539  -1.851   0.447  0.00  0.00    +0.005 C 
ATOM      5  C   UNL     1      -0.814  -2.152   1.765  0.00  0.00    +0.004 C 
ATOM      6  C   UNL     1       0.680  -1.919   1.553  0.00  0.00    -0.003 C 
ATOM      7  C   UNL     1       0.957  -0.466   1.177  0.00  0.00    -0.001 C 
ATOM      8  C   UNL     1       2.392  -0.390   0.601  0.00  0.00    +0.005 C 
ATOM      9  C   UNL     1       2.252  -0.564  -0.921  0.00  0.00    +0.013 C 
ATOM     10  C   UNL     1       0.750  -0.464  -1.259  0.00  0.00    +0.081 C 
ATOM     11  C   UNL     1       1.237  -2.880   0.509  0.00  0.00    +0.006 C 
ATOM     12  C   UNL     1       0.976  -4.332   0.929  0.00  0.00    +0.023 C 
ATOM     13  C   UNL     1      -0.521  -4.540   1.104  0.00  0.00    +0.083 C 
ATOM     14  C   UNL     1      -1.076  -3.599   2.171  0.00  0.00    +0.008 C 
ATOM     15  C   UNL     1      -2.559  -3.852   2.308  0.00  0.00    -0.013 C 
ATOM     16  C   UNL     1      -3.015  -5.100   2.195  0.00  0.00    +0.063 C 
ATOM     17  C   UNL     1      -2.080  -6.204   1.920  0.00  0.00    +0.237 C 
ATOM     18  O   UNL     1      -2.425  -7.359   2.074  0.00  0.00    -0.271 OA
ATOM     19  N   UNL     1      -0.840  -5.923   1.458  0.00  0.00    -0.308 N 
ATOM     20  C   UNL     1      -0.421  -3.887   3.524  0.00  0.00    +0.017 C 
ATOM     21  H   UNL     1      -0.178  -6.622   1.360  0.00  0.00    +0.149 HD
ENDROOT
BRANCH  10  22
ATOM     22  C   UNL     1       0.539   0.526  -2.383  0.00  0.00    +0.217 C 
ATOM     23  O   UNL     1       1.354   1.402  -2.580  0.00  0.00    -0.275 OA
ATOM     24  N   UNL     1      -0.554   0.434  -3.166  0.00  0.00    -0.308 N 
ATOM     25  H   UNL     1      -1.206  -0.267  -3.008  0.00  0.00    +0.149 HD
BRANCH  24  26
ATOM     26  C   UNL     1      -0.759   1.393  -4.254  0.00  0.00    +0.052 C 
ATOM     27  C   UNL     1      -0.834   2.808  -3.680  0.00  0.00    +0.033 C 
ATOM     28  C   UNL     1       0.409   1.303  -5.239  0.00  0.00    +0.033 C 
BRANCH  26  29
ATOM     29  C   UNL     1      -2.065   1.068  -4.982  0.00  0.00    +0.181 C 
BRANCH  29  30
ATOM     30  O   UNL     1      -2.264   2.003  -6.044  0.00  0.00    -0.393 OA
ATOM     31  H   UNL     1      -3.075   1.857  -6.549  0.00  0.00    +0.209 HD
ENDBRANCH  29  30
ENDBRANCH  26  29
ENDBRANCH  24  26
ENDBRANCH  10  22
TORSDOF 4
