REMARK  Name = ZINC39463173
REMARK  2 active torsions:
REMARK  status: ('A' for Active; 'I' for Inactive)
REMARK    1  A    between atoms: C_1  and  O_2
REMARK    2  A    between atoms: O_2  and  C_3
REMARK                            x       y       z     vdW  Elec       q    Type
REMARK                         _______ _______ _______ _____ _____    ______ ____
ROOT
ATOM      1  C   UNL     1      -1.200  -0.634  -0.096  0.00  0.00    +0.220 A 
ATOM      2  C   UNL     1      -1.407  -1.973  -0.106  0.00  0.00    +0.178 A 
ATOM      3  N   UNL     1      -2.722  -2.199  -0.215  0.00  0.00    -0.232 NA
ATOM      4  C   UNL     1      -3.360  -1.041  -0.275  0.00  0.00    +0.142 A 
ATOM      5  N   UNL     1      -2.426  -0.035  -0.196  0.00  0.00    -0.258 N 
ATOM      6  C   UNL     1      -2.816   1.276  -0.229  0.00  0.00    +0.091 A 
ATOM      7  C   UNL     1      -4.121   1.601  -0.335  0.00  0.00    +0.053 A 
ATOM      8  C   UNL     1      -5.100   0.594  -0.414  0.00  0.00    +0.047 A 
ATOM      9  C   UNL     1      -4.726  -0.715  -0.392  0.00  0.00    +0.067 A 
ATOM     10 CL   UNL     1      -6.778   1.019  -0.550  0.00  0.00    -0.083 Cl
ATOM     11  I   UNL     1      -1.375   2.791  -0.111  0.00  0.00    -0.023 I 
ENDROOT
BRANCH   1  13
ATOM     12  C   UNL     1       1.170  -0.828  -0.012  0.00  0.00    +0.279 C 
ATOM     13  O   UNL     1       0.002  -0.004   0.002  0.00  0.00    -0.479 OA
ENDBRANCH   1  13
TORSDOF 1
