REMARK  Name = ZINC10874956
REMARK  5 active torsions:
REMARK  status: ('A' for Active; 'I' for Inactive)
REMARK    1  A    between atoms: C_1  and  C_2
REMARK    2  A    between atoms: C_3  and  C_24
REMARK    3  A    between atoms: C_4  and  C_13
REMARK    4  A    between atoms: N_5  and  C_7
REMARK    5  A    between atoms: C_13  and  N_14
REMARK                            x       y       z     vdW  Elec       q    Type
REMARK                         _______ _______ _______ _____ _____    ______ ____
ROOT
ATOM      1  C   UNL     1       0.486  -3.397   1.099  0.00  0.00    +0.069 C 
ATOM      2  C   UNL     1      -0.037  -2.103   0.532  0.00  0.00    +0.078 A 
ATOM      3  C   UNL     1       0.714  -0.922   0.331  0.00  0.00    +0.097 A 
ATOM      4  C   UNL     1      -0.142   0.019  -0.205  0.00  0.00    +0.082 A 
ATOM      5  N   UNL     1      -1.354  -0.558  -0.318  0.00  0.00    -0.233 N 
ATOM      6  N   UNL     1      -1.261  -1.876   0.140  0.00  0.00    -0.170 NA
ENDROOT
BRANCH   5   7
ATOM      7  C   UNL     1      -2.511   0.058  -0.815  0.00  0.00    +0.066 A 
ATOM      8  C   UNL     1      -2.845   1.342  -0.407  0.00  0.00    +0.028 A 
ATOM      9  C   UNL     1      -3.983   1.948  -0.901  0.00  0.00    +0.002 A 
ATOM     10  C   UNL     1      -4.796   1.273  -1.794  0.00  0.00    +0.000 A 
ATOM     11  C   UNL     1      -4.468  -0.008  -2.198  0.00  0.00    +0.002 A 
ATOM     12  C   UNL     1      -3.329  -0.618  -1.711  0.00  0.00    +0.028 A 
ENDBRANCH   5   7
BRANCH   3  13
ATOM     13  C   UNL     1       2.103  -0.737   0.627  0.00  0.00    +0.103 C 
ATOM     14  N   UNL     1       3.204  -0.590   0.863  0.00  0.00    -0.191 NA
ENDBRANCH   3  13
BRANCH   4  15
ATOM     15  C   UNL     1       0.213   1.433  -0.587  0.00  0.00    +0.183 C 
BRANCH  15  16
ATOM     16  N   UNL     1       0.592   1.477  -2.001  0.00  0.00    -0.292 N 
ATOM     17  C   UNL     1      -0.361   1.590  -2.963  0.00  0.00    +0.203 A 
ATOM     18  N   UNL     1      -0.089   1.633  -4.228  0.00  0.00    -0.236 NA
ATOM     19  C   UNL     1       1.200   1.568  -4.698  0.00  0.00    +0.085 A 
ATOM     20  C   UNL     1       1.648   1.602  -6.025  0.00  0.00    +0.036 A 
ATOM     21  C   UNL     1       2.969   1.524  -6.298  0.00  0.00    +0.048 A 
ATOM     22  S   UNL     1       3.699   1.394  -4.675  0.00  0.00    -0.090 S 
ATOM     23  C   UNL     1       2.205   1.450  -3.722  0.00  0.00    +0.102 A 
ATOM     24  C   UNL     1       1.896   1.410  -2.362  0.00  0.00    +0.269 A 
ATOM     25  O   UNL     1       2.775   1.313  -1.522  0.00  0.00    -0.266 OA
ENDBRANCH  15  16
ENDBRANCH   4  15
TORSDOF 4
