REMARK  Name = ZINC33671704
REMARK  10 active torsions:
REMARK  status: ('A' for Active; 'I' for Inactive)
REMARK    1  A    between atoms: C_1  and  C_2
REMARK    2  A    between atoms: C_18  and  C_36
REMARK    3  A    between atoms: C_21  and  O_35
REMARK    4  A    between atoms: C_24  and  C_34
REMARK    5  A    between atoms: C_25  and  C_26
REMARK    6  A    between atoms: C_25  and  O_33
REMARK    7  A    between atoms: C_26  and  C_28
REMARK    8  A    between atoms: C_28  and  O_29
REMARK    9  A    between atoms: O_29  and  C_30
REMARK   10  A    between atoms: C_30  and  C_32
REMARK                            x       y       z     vdW  Elec       q    Type
REMARK                         _______ _______ _______ _____ _____    ______ ____
ROOT
ATOM      1  C   UNL     1      -1.749   0.006  -1.102  0.00  0.00    +0.011 C 
ATOM      2  C   UNL     1      -0.837   1.199  -0.806  0.00  0.00    +0.026 C 
ATOM      3  C   UNL     1      -0.069   0.969   0.522  0.00  0.00    +0.011 C 
ATOM      4  C   UNL     1      -0.814   1.849   1.530  0.00  0.00    +0.002 C 
ATOM      5  C   UNL     1      -0.040   2.282   2.752  0.00  0.00    -0.001 C 
ATOM      6  C   UNL     1       0.498   1.068   3.507  0.00  0.00    +0.004 C 
ATOM      7  C   UNL     1      -0.688   0.237   3.998  0.00  0.00    +0.005 C 
ATOM      8  C   UNL     1      -1.450   1.072   5.027  0.00  0.00    +0.006 C 
ATOM      9  C   UNL     1      -2.584   0.210   5.601  0.00  0.00    +0.083 C 
ATOM     10  C   UNL     1      -3.512  -0.122   4.449  0.00  0.00    +0.156 C 
ATOM     11  O   UNL     1      -3.867  -1.254   4.224  0.00  0.00    -0.293 OA
ATOM     12  C   UNL     1      -3.951   1.010   3.624  0.00  0.00    +0.042 C 
ATOM     13  C   UNL     1      -3.253   2.141   3.633  0.00  0.00    -0.016 C 
ATOM     14  C   UNL     1      -1.997   2.355   4.411  0.00  0.00    -0.005 C 
ATOM     15  C   UNL     1      -0.954   3.136   3.637  0.00  0.00    +0.031 C 
ATOM     16  C   UNL     1      -1.515   4.307   2.843  0.00  0.00    +0.119 C 
ATOM     17  C   UNL     1      -2.130   3.941   1.489  0.00  0.00    +0.041 C 
ATOM     18  C   UNL     1      -1.170   3.096   0.687  0.00  0.00    +0.009 C 
ATOM     19  C   UNL     1      -1.688   2.481  -0.614  0.00  0.00    +0.135 C 
ATOM     20  C   UNL     1       0.078   3.917   0.342  0.00  0.00    +0.015 C 
ATOM     21  C   UNL     1      -2.389   3.223   5.634  0.00  0.00    +0.016 C 
ENDROOT
BRANCH  19  22
ATOM     22  C   UNL     1      -3.147   2.128  -0.529  0.00  0.00    +0.202 C 
ATOM     23  O   UNL     1      -3.629   1.807   0.530  0.00  0.00    -0.291 OA
BRANCH  22  24
ATOM     24  C   UNL     1      -4.006   2.176  -1.766  0.00  0.00    +0.309 C 
BRANCH  24  25
ATOM     25  O   UNL     1      -5.347   1.721  -1.441  0.00  0.00    -0.457 OA
BRANCH  25  26
ATOM     26  C   UNL     1      -6.243   1.702  -2.441  0.00  0.00    +0.304 C 
ATOM     27  O   UNL     1      -5.918   2.055  -3.550  0.00  0.00    -0.251 OA
ATOM     28  C   UNL     1      -7.654   1.242  -2.179  0.00  0.00    +0.136 C 
ENDBRANCH  25  26
ENDBRANCH  24  25
ENDBRANCH  22  24
ENDBRANCH  19  22
BRANCH  19  29
ATOM     29  O   UNL     1      -1.462   3.385  -1.700  0.00  0.00    -0.380 OA
ATOM     30  H   UNL     1      -1.986   4.352  -1.729  0.00  0.00    +0.211 HD
ENDBRANCH  19  29
BRANCH  16  31
ATOM     31  O   UNL     1      -2.474   5.052   3.597  0.00  0.00    -0.391 OA
ATOM     32  H   UNL     1      -2.964   5.929   3.149  0.00  0.00    +0.210 HD
ENDBRANCH  16  31
TORSDOF 6
