REMARK  Name = ZINC04479602
REMARK  6 active torsions:
REMARK  status: ('A' for Active; 'I' for Inactive)
REMARK    1  A    between atoms: C_1  and  O_2
REMARK    2  A    between atoms: O_2  and  C_3
REMARK    3  A    between atoms: C_6  and  N_9
REMARK    4  A    between atoms: C_11  and  N_16
REMARK    5  A    between atoms: N_19  and  C_20
REMARK    6  A    between atoms: C_23  and  C_26
REMARK                            x       y       z     vdW  Elec       q    Type
REMARK                         _______ _______ _______ _____ _____    ______ ____
ROOT
ATOM      1  N   UNL     1      -2.389   0.934   0.120  0.00  0.00    -0.294 N 
ATOM      2  C   UNL     1      -1.257   1.656   0.008  0.00  0.00    +0.304 C 
ATOM      3  O   UNL     1      -1.314   2.868  -0.073  0.00  0.00    -0.253 OA
ATOM      4  N   UNL     1      -0.061   1.034  -0.013  0.00  0.00    -0.269 N 
ATOM      5  H   UNL     1      -2.344  -0.033   0.185  0.00  0.00    +0.151 HD
ATOM      6  H   UNL     1      -0.018   0.066  -0.014  0.00  0.00    +0.156 HD
ENDROOT
BRANCH   1   9
ATOM      7  N   UNL     1      -5.300   0.113   1.100  0.00  0.00    -0.270 N 
ATOM      8  C   UNL     1      -4.830   0.624  -0.193  0.00  0.00    +0.136 C 
ATOM      9  C   UNL     1      -3.689   1.609   0.144  0.00  0.00    +0.101 C 
ATOM     10  C   UNL     1      -4.061   2.043   1.580  0.00  0.00    +0.120 C 
ATOM     11  C   UNL     1      -4.888   0.894   2.113  0.00  0.00    +0.222 C 
ATOM     12  O   UNL     1      -5.141   0.704   3.284  0.00  0.00    -0.275 OA
BRANCH   7  16
ATOM     13  C   UNL     1      -7.618  -3.322   1.570  0.00  0.00    +0.120 A 
ATOM     14  C   UNL     1      -7.128  -2.982   0.317  0.00  0.00    +0.047 A 
ATOM     15  C   UNL     1      -6.361  -1.845   0.161  0.00  0.00    +0.027 A 
ATOM     16  C   UNL     1      -6.079  -1.042   1.258  0.00  0.00    +0.037 A 
ATOM     17  C   UNL     1      -6.564  -1.386   2.512  0.00  0.00    +0.027 A 
ATOM     18  C   UNL     1      -7.336  -2.520   2.666  0.00  0.00    +0.047 A 
BRANCH  13  20
ATOM     19  C   UNL     1      -8.844  -4.732   3.041  0.00  0.00    +0.277 C 
ATOM     20  O   UNL     1      -8.373  -4.442   1.723  0.00  0.00    -0.495 OA
ENDBRANCH  13  20
ENDBRANCH   7  16
ENDBRANCH   1   9
BRANCH   4  21
ATOM     21  C   UNL     1       1.119   1.788  -0.041  0.00  0.00    +0.035 A 
ATOM     22  C   UNL     1       1.163   2.985  -0.742  0.00  0.00    +0.024 A 
ATOM     23  C   UNL     1       2.327   3.729  -0.762  0.00  0.00    +0.014 A 
ATOM     24  C   UNL     1       3.450   3.276  -0.095  0.00  0.00    +0.055 A 
ATOM     25  C   UNL     1       3.410   2.081   0.600  0.00  0.00    +0.014 A 
ATOM     26  C   UNL     1       2.248   1.336   0.629  0.00  0.00    +0.024 A 
BRANCH  24  27
ATOM     27  C   UNL     1       4.720   4.087  -0.123  0.00  0.00    +0.417 C 
ATOM     28  F   UNL     1       5.499   3.695  -1.217  0.00  0.00    -0.166 F 
ATOM     29  F   UNL     1       4.403   5.445  -0.240  0.00  0.00    -0.166 F 
ATOM     30  F   UNL     1       5.436   3.875   1.060  0.00  0.00    -0.166 F 
ENDBRANCH  24  27
ENDBRANCH   4  21
TORSDOF 5
