REMARK  Name = ZINC03830291
REMARK  10 active torsions:
REMARK  status: ('A' for Active; 'I' for Inactive)
REMARK    1  A    between atoms: C_1  and  C_2
REMARK    2  A    between atoms: C_17  and  C_35
REMARK    3  A    between atoms: C_19  and  O_33
REMARK    4  A    between atoms: C_22  and  C_32
REMARK    5  A    between atoms: C_23  and  C_24
REMARK    6  A    between atoms: C_23  and  O_31
REMARK    7  A    between atoms: C_24  and  C_26
REMARK    8  A    between atoms: C_26  and  O_27
REMARK    9  A    between atoms: O_27  and  C_28
REMARK   10  A    between atoms: C_28  and  C_30
REMARK                            x       y       z     vdW  Elec       q    Type
REMARK                         _______ _______ _______ _____ _____    ______ ____
ROOT
ATOM      1  C   UNL     1      -2.088  -4.621  -4.555  0.00  0.00    +0.011 C 
ATOM      2  C   UNL     1      -0.828  -4.809  -3.714  0.00  0.00    +0.026 C 
ATOM      3  C   UNL     1      -0.945  -4.011  -2.385  0.00  0.00    +0.011 C 
ATOM      4  C   UNL     1       0.052  -2.850  -2.568  0.00  0.00    +0.005 C 
ATOM      5  C   UNL     1       0.496  -2.187  -1.271  0.00  0.00    +0.034 C 
ATOM      6  C   UNL     1      -0.543  -1.099  -0.992  0.00  0.00    +0.011 C 
ATOM      7  C   UNL     1      -0.137  -0.138   0.121  0.00  0.00    +0.032 C 
ATOM      8  C   UNL     1       1.211   0.428  -0.284  0.00  0.00    -0.053 C 
ATOM      9  C   UNL     1       1.372   1.734  -0.434  0.00  0.00    +0.051 C 
ATOM     10  C   UNL     1       2.698   2.278  -0.779  0.00  0.00    +0.179 C 
ATOM     11  O   UNL     1       2.859   3.476  -0.942  0.00  0.00    -0.288 OA
ATOM     12  C   UNL     1       3.829   1.344  -0.927  0.00  0.00    +0.047 C 
ATOM     13  C   UNL     1       3.632   0.040  -0.783  0.00  0.00    -0.009 C 
ATOM     14  C   UNL     1       2.307  -0.567  -0.476  0.00  0.00    +0.044 C 
ATOM     15  C   UNL     1       1.918  -1.672  -1.434  0.00  0.00    +0.153 C 
ATOM     16  C   UNL     1       2.208  -1.303  -2.885  0.00  0.00    +0.154 C 
ATOM     17  C   UNL     1       2.272  -2.577  -3.747  0.00  0.00    +0.044 C 
ATOM     18  C   UNL     1       1.195  -3.541  -3.330  0.00  0.00    +0.010 C 
ATOM     19  C   UNL     1       0.403  -4.227  -4.462  0.00  0.00    +0.135 C 
ATOM     20  C   UNL     1       1.800  -4.690  -2.506  0.00  0.00    +0.015 C 
ATOM     21  F   UNL     1       2.805  -2.724  -1.095  0.00  0.00    -0.238 F 
ATOM     22  C   UNL     1       2.503  -1.254   0.886  0.00  0.00    +0.023 C 
ENDROOT
BRANCH  19  23
ATOM     23  C   UNL     1      -0.042  -3.256  -5.516  0.00  0.00    +0.202 C 
ATOM     24  O   UNL     1      -0.186  -2.090  -5.239  0.00  0.00    -0.291 OA
BRANCH  23  25
ATOM     25  C   UNL     1      -0.308  -3.736  -6.919  0.00  0.00    +0.309 C 
BRANCH  25  26
ATOM     26  O   UNL     1      -0.722  -2.615  -7.744  0.00  0.00    -0.457 OA
BRANCH  26  27
ATOM     27  C   UNL     1      -0.999  -2.876  -9.031  0.00  0.00    +0.304 C 
ATOM     28  O   UNL     1      -0.899  -4.003  -9.455  0.00  0.00    -0.251 OA
ATOM     29  C   UNL     1      -1.435  -1.762  -9.948  0.00  0.00    +0.136 C 
ENDBRANCH  26  27
ENDBRANCH  25  26
ENDBRANCH  23  25
ENDBRANCH  19  23
BRANCH  19  30
ATOM     30  O   UNL     1       1.182  -5.280  -5.028  0.00  0.00    -0.380 OA
ATOM     31  H   UNL     1       0.741  -5.753  -5.747  0.00  0.00    +0.211 HD
ENDBRANCH  19  30
BRANCH  16  32
ATOM     32  O   UNL     1       1.216  -0.409  -3.391  0.00  0.00    -0.389 OA
ATOM     33  H   UNL     1       1.357  -0.145  -4.310  0.00  0.00    +0.210 HD
ENDBRANCH  16  32
TORSDOF 6
