REMARK  Name = ZINC13468862
REMARK  3 active torsions:
REMARK  status: ('A' for Active; 'I' for Inactive)
REMARK    1  A    between atoms: C_4  and  O_7
REMARK    2  A    between atoms: O_7  and  C_8
REMARK    3  A    between atoms: C_12  and  C_13
REMARK                            x       y       z     vdW  Elec       q    Type
REMARK                         _______ _______ _______ _____ _____    ______ ____
ROOT
ATOM      1  C   UNL     1       0.907   5.526  -0.276  0.00  0.00    +0.143 A 
ATOM      2  C   UNL     1      -0.235   6.270  -0.465  0.00  0.00    +0.054 A 
ATOM      3  C   UNL     1      -1.437   5.639  -0.519  0.00  0.00    +0.049 A 
ATOM      4  S   UNL     1      -1.026   3.968  -0.316  0.00  0.00    -0.093 S 
ATOM      5  C   UNL     1       0.742   4.141  -0.151  0.00  0.00    +0.055 A 
ENDROOT
BRANCH   5   6
ATOM      6  C   UNL     1       1.713   3.148   0.045  0.00  0.00    +0.032 C 
ATOM      7  C   UNL     1       1.396   2.000   0.755  0.00  0.00    +0.047 C 
ATOM      8  C   UNL     1       2.228   0.787   0.906  0.00  0.00    +0.008 A 
ATOM      9  C   UNL     1       3.484   0.419   0.436  0.00  0.00    +0.010 A 
ATOM     10  C   UNL     1       4.000  -0.819   0.761  0.00  0.00    +0.001 A 
ATOM     11  C   UNL     1       3.270  -1.691   1.552  0.00  0.00    +0.002 A 
ATOM     12  C   UNL     1       2.022  -1.336   2.024  0.00  0.00    +0.024 A 
ATOM     13  C   UNL     1       1.487  -0.095   1.707  0.00  0.00    +0.042 A 
ATOM     14  N   UNL     1       0.284   0.519   2.032  0.00  0.00    -0.281 N 
ATOM     15  C   UNL     1       0.206   1.745   1.488  0.00  0.00    +0.249 C 
ATOM     16  O   UNL     1      -0.734   2.512   1.601  0.00  0.00    -0.270 OA
ATOM     17  H   UNL     1      -0.408   0.116   2.580  0.00  0.00    +0.155 HD
ENDBRANCH   5   6
BRANCH   1  18
ATOM     18  O   UNL     1       2.132   6.106  -0.214  0.00  0.00    -0.455 OA
BRANCH  18  22
ATOM     19  C   UNL     1       2.328  10.226  -0.198  0.00  0.00    +0.000 A 
ATOM     20  C   UNL     1       1.824   9.555   0.901  0.00  0.00    +0.004 A 
ATOM     21  C   UNL     1       1.758   8.175   0.898  0.00  0.00    +0.046 A 
ATOM     22  C   UNL     1       2.197   7.463  -0.209  0.00  0.00    +0.128 A 
ATOM     23  C   UNL     1       2.706   8.139  -1.309  0.00  0.00    +0.046 A 
ATOM     24  C   UNL     1       2.766   9.519  -1.302  0.00  0.00    +0.004 A 
ENDBRANCH  18  22
ENDBRANCH   1  18
TORSDOF 3
