REMARK  Name = ZINC20786110
REMARK  9 active torsions:
REMARK  status: ('A' for Active; 'I' for Inactive)
REMARK    1  A    between atoms: C_1  and  N_2
REMARK    2  A    between atoms: N_2  and  C_3
REMARK    3  A    between atoms: C_7  and  C_9
REMARK    4  A    between atoms: C_9  and  N_10
REMARK    5  A    between atoms: C_14  and  N_17
REMARK    6  A    between atoms: C_22  and  O_29
REMARK    7  A    between atoms: C_23  and  O_27
REMARK    8  A    between atoms: O_27  and  C_28
REMARK    9  A    between atoms: O_29  and  C_30
REMARK                            x       y       z     vdW  Elec       q    Type
REMARK                         _______ _______ _______ _____ _____    ______ ____
ROOT
ATOM      1  N   UNL     1      -1.414  -2.003   0.031  0.00  0.00    -0.299 NA
ATOM      2  C   UNL     1      -0.749  -2.514   1.237  0.00  0.00    +0.084 C 
ATOM      3  C   UNL     1       0.707  -2.043   1.257  0.00  0.00    +0.014 C 
ATOM      4  C   UNL     1       0.743  -0.512   1.242  0.00  0.00    -0.013 C 
ATOM      5  C   UNL     1       0.002  -0.004   0.002  0.00  0.00    -0.054 C 
ATOM      6  C   UNL     1      -1.433  -0.535   0.018  0.00  0.00    +0.069 C 
ENDROOT
BRANCH   5   7
ATOM      7  N   UNL     1      -0.018   1.465   0.010  0.00  0.00    +0.385 N 
ATOM      8  C   UNL     1       1.349   2.011   0.000  0.00  0.00    -0.073 C 
ATOM      9  C   UNL     1       1.276   3.495  -0.360  0.00  0.00    +0.017 C 
ATOM     10  C   UNL     1       0.258   4.186   0.512  0.00  0.00    -0.044 A 
ATOM     11  C   UNL     1       0.291   5.571   0.592  0.00  0.00    +0.053 A 
ATOM     12  C   UNL     1      -0.625   6.248   1.376  0.00  0.00    +0.162 A 
ATOM     13  C   UNL     1      -1.584   5.534   2.089  0.00  0.00    +0.162 A 
ATOM     14  C   UNL     1      -1.611   4.153   2.007  0.00  0.00    +0.051 A 
ATOM     15  C   UNL     1      -0.689   3.478   1.219  0.00  0.00    -0.057 A 
ATOM     16  C   UNL     1      -0.759   1.974   1.169  0.00  0.00    -0.042 C 
ATOM     17  H   UNL     1      -0.535   1.796  -0.903  0.00  0.00    -0.081 HD
BRANCH  13  18
ATOM     18  O   UNL     1      -2.491   6.190   2.861  0.00  0.00    -0.491 OA
ATOM     19  C   UNL     1      -3.445   5.390   3.563  0.00  0.00    +0.277 C 
ENDBRANCH  13  18
BRANCH  12  20
ATOM     20  O   UNL     1      -0.590   7.606   1.451  0.00  0.00    -0.491 OA
ATOM     21  C   UNL     1       0.422   8.271   0.693  0.00  0.00    +0.277 C 
ENDBRANCH  12  20
ENDBRANCH   5   7
BRANCH   1  22
ATOM     22  C   UNL     1      -2.772  -2.549  -0.093  0.00  0.00    +0.128 C 
BRANCH  22  29
ATOM     23  C   UNL     1      -6.493  -0.253   4.761  0.00  0.00    +0.131 C 
ATOM     24  N   UNL     1      -5.612  -1.388   4.475  0.00  0.00    -0.316 N 
ATOM     25  C   UNL     1      -5.391  -2.419   5.492  0.00  0.00    +0.131 C 
ATOM     26  C   UNL     1      -4.987  -1.487   3.241  0.00  0.00    +0.160 A 
ATOM     27  N   UNL     1      -5.059  -0.670   2.208  0.00  0.00    -0.233 NA
ATOM     28  C   UNL     1      -4.388  -0.912   1.098  0.00  0.00    +0.125 A 
ATOM     29  C   UNL     1      -3.627  -2.030   1.034  0.00  0.00    +0.025 A 
ATOM     30  S   UNL     1      -3.909  -2.718   2.659  0.00  0.00    -0.056 S 
ENDBRANCH  22  29
ENDBRANCH   1  22
TORSDOF 5
