REMARK  Name = ZINC00508225
REMARK  3 active torsions:
REMARK  status: ('A' for Active; 'I' for Inactive)
REMARK    1  A    between atoms: C_1  and  C_2
REMARK    2  A    between atoms: N_12  and  C_15
REMARK    3  A    between atoms: C_20  and  O_21
REMARK                            x       y       z     vdW  Elec       q    Type
REMARK                         _______ _______ _______ _____ _____    ______ ____
ROOT
ATOM      1  C   UNL     1       5.663  -3.119   1.322  0.00  0.00    +0.022 C 
ATOM      2  C   UNL     1       5.559  -1.716   0.720  0.00  0.00    +0.063 C 
ATOM      3  C   UNL     1       6.757  -0.790   1.100  0.00  0.00    +0.027 C 
ATOM      4  C   UNL     1       6.627   0.298  -0.056  0.00  0.00    +0.017 C 
ATOM      5  C   UNL     1       6.735  -0.767  -1.208  0.00  0.00    +0.025 C 
ATOM      6  C   UNL     1       5.545  -1.707  -0.837  0.00  0.00    +0.098 C 
ATOM      7  C   UNL     1       4.252  -0.997  -1.169  0.00  0.00    +0.231 C 
ATOM      8  O   UNL     1       3.841  -0.777  -2.288  0.00  0.00    -0.274 OA
ATOM      9  N   UNL     1       3.633  -0.647  -0.036  0.00  0.00    -0.206 N 
ATOM     10  C   UNL     1       4.276  -1.004   1.082  0.00  0.00    +0.234 C 
ATOM     11  O   UNL     1       3.889  -0.789   2.211  0.00  0.00    -0.274 OA
ATOM     12  C   UNL     1       7.979  -1.544  -0.760  0.00  0.00    -0.027 C 
ATOM     13  C   UNL     1       8.003  -1.567   0.557  0.00  0.00    -0.026 C 
ENDROOT
BRANCH   9  14
ATOM     14  C   UNL     1       2.406   0.034  -0.021  0.00  0.00    +0.087 A 
ATOM     15  C   UNL     1       2.381   1.421  -0.013  0.00  0.00    +0.047 A 
ATOM     16  C   UNL     1       1.170   2.090   0.002  0.00  0.00    +0.043 A 
ATOM     17  C   UNL     1      -0.017   1.378   0.010  0.00  0.00    +0.023 A 
ATOM     18  C   UNL     1       0.002  -0.004   0.002  0.00  0.00    +0.049 A 
ATOM     19  C   UNL     1       1.211  -0.681  -0.013  0.00  0.00    +0.139 A 
ATOM     20 CL   UNL     1       1.140   3.825   0.012  0.00  0.00    -0.083 Cl
BRANCH  19  21
ATOM     21  O   UNL     1       1.231  -2.041  -0.020  0.00  0.00    -0.505 OA
ATOM     22  H   UNL     1       1.228  -2.429  -0.906  0.00  0.00    +0.292 HD
ENDBRANCH  19  21
ENDBRANCH   9  14
TORSDOF 2
