REMARK  Name = ZINC63411438
REMARK  5 active torsions:
REMARK  status: ('A' for Active; 'I' for Inactive)
REMARK    1  A    between atoms: C_1  and  O_2
REMARK    2  A    between atoms: O_2  and  C_3
REMARK    3  A    between atoms: C_6  and  C_9
REMARK    4  A    between atoms: C_12  and  C_15
REMARK    5  A    between atoms: C_17  and  C_28
REMARK                            x       y       z     vdW  Elec       q    Type
REMARK                         _______ _______ _______ _____ _____    ______ ____
ROOT
ATOM      1  C   UNL     1      -6.881  -5.111   2.052  0.00  0.00    +0.154 C 
ATOM      2  C   UNL     1      -7.140  -6.551   1.651  0.00  0.00    -0.014 C 
ATOM      3  C   UNL     1      -8.472  -6.972   1.623  0.00  0.00    +0.002 A 
ATOM      4  C   UNL     1      -8.802  -8.296   1.263  0.00  0.00    +0.030 A 
ATOM      5  C   UNL     1     -10.107  -8.680   1.244  0.00  0.00    +0.042 A 
ATOM      6  C   UNL     1     -11.129  -7.792   1.574  0.00  0.00    +0.022 A 
ATOM      7  C   UNL     1     -10.872  -6.503   1.931  0.00  0.00    +0.025 A 
ATOM      8  C   UNL     1      -9.546  -6.036   1.972  0.00  0.00    +0.041 A 
ATOM      9  N   UNL     1      -9.296  -4.770   2.322  0.00  0.00    -0.284 N 
ATOM     10  C   UNL     1      -8.084  -4.257   2.385  0.00  0.00    +0.230 C 
ATOM     11  O   UNL     1      -7.932  -3.095   2.712  0.00  0.00    -0.274 OA
ATOM     12 CL   UNL     1     -10.508 -10.310   0.799  0.00  0.00    -0.084 Cl
ATOM     13  H   UNL     1     -10.048  -4.198   2.542  0.00  0.00    +0.155 HD
ENDROOT
BRANCH   2  14
ATOM     14  C   UNL     1      -6.077  -7.429   1.320  0.00  0.00    -0.020 A 
ATOM     15  C   UNL     1      -5.984  -7.969   0.027  0.00  0.00    +0.008 A 
ATOM     16  C   UNL     1      -4.948  -8.822  -0.285  0.00  0.00    +0.001 A 
ATOM     17  C   UNL     1      -4.001  -9.147   0.672  0.00  0.00    +0.000 A 
ATOM     18  C   UNL     1      -4.084  -8.620   1.951  0.00  0.00    +0.001 A 
ATOM     19  C   UNL     1      -5.109  -7.761   2.281  0.00  0.00    +0.008 A 
ENDBRANCH   2  14
BRANCH   1  22
ATOM     20  C   UNL     1      -5.264  -2.759  -0.529  0.00  0.00    +0.240 C 
ATOM     21  C   UNL     1      -5.513  -3.062   0.968  0.00  0.00    +0.107 C 
ATOM     22  C   UNL     1      -6.138  -4.443   0.923  0.00  0.00    +0.078 C 
ATOM     23  N   UNL     1      -5.929  -4.944  -0.232  0.00  0.00    -0.092 NA
ATOM     24  O   UNL     1      -5.197  -4.088  -1.086  0.00  0.00    -0.385 OA
BRANCH  20  28
ATOM     25  C   UNL     1      -1.572  -0.677  -1.077  0.00  0.00    +0.120 A 
ATOM     26  C   UNL     1      -2.768   0.026  -1.041  0.00  0.00    +0.046 A 
ATOM     27  C   UNL     1      -3.960  -0.649  -0.864  0.00  0.00    +0.011 A 
ATOM     28  C   UNL     1      -3.962  -2.025  -0.723  0.00  0.00    -0.004 A 
ATOM     29  C   UNL     1      -2.772  -2.728  -0.757  0.00  0.00    +0.011 A 
ATOM     30  C   UNL     1      -1.578  -2.058  -0.940  0.00  0.00    +0.046 A 
BRANCH  25  32
ATOM     31  C   UNL     1      -0.469   1.406  -1.385  0.00  0.00    +0.277 C 
ATOM     32  O   UNL     1      -0.398  -0.015  -1.252  0.00  0.00    -0.495 OA
ENDBRANCH  25  32
ENDBRANCH  20  28
ENDBRANCH   1  22
TORSDOF 4
