REMARK  Name = ZINC39732599
REMARK  6 active torsions:
REMARK  status: ('A' for Active; 'I' for Inactive)
REMARK    1  A    between atoms: C_1  and  C_2
REMARK    2  A    between atoms: C_2  and  C_3
REMARK    3  A    between atoms: C_2  and  C_4
REMARK    4  A    between atoms: C_2  and  N_5
REMARK    5  A    between atoms: C_12  and  N_14
REMARK    6  A    between atoms: C_15  and  C_16
REMARK                            x       y       z     vdW  Elec       q    Type
REMARK                         _______ _______ _______ _____ _____    ______ ____
ROOT
ATOM      1  N   UNL     1       0.974   1.547  -0.774  0.00  0.00    -0.308 N 
ATOM      2  C   UNL     1       0.358   0.215  -0.805  0.00  0.00    +0.211 C 
ATOM      3  N   UNL     1       1.343  -0.667  -1.442  0.00  0.00    -0.327 N 
ATOM      4  C   UNL     1       2.461   0.118  -1.756  0.00  0.00    +0.052 A 
ATOM      5  C   UNL     1       2.234   1.440  -1.361  0.00  0.00    +0.053 A 
ATOM      6  C   UNL     1       3.212   2.410  -1.580  0.00  0.00    +0.027 A 
ATOM      7  C   UNL     1       4.400   2.077  -2.186  0.00  0.00    +0.029 A 
ATOM      8  C   UNL     1       4.634   0.753  -2.589  0.00  0.00    +0.066 A 
ATOM      9  C   UNL     1       3.656  -0.226  -2.362  0.00  0.00    +0.052 A 
ATOM     10  H   UNL     1       1.240  -1.616  -1.612  0.00  0.00    +0.148 HD
ENDROOT
BRANCH   1  12
ATOM     11  C   UNL     1       0.254   3.815  -1.338  0.00  0.00    +0.031 C 
ATOM     12  C   UNL     1       0.372   2.767  -0.230  0.00  0.00    +0.028 C 
ATOM     13  C   UNL     1       1.254   3.312   0.896  0.00  0.00    +0.031 C 
ATOM     14  C   UNL     1      -1.019   2.448   0.321  0.00  0.00    +0.031 C 
ENDBRANCH   1  12
BRANCH   8  15
ATOM     15  N   UNL     1       5.800   0.421  -3.186  0.00  0.00    -0.255 NA
ATOM     16  C   UNL     1       5.905   0.469  -4.493  0.00  0.00    +0.117 C 
BRANCH  16  17
ATOM     17  C   UNL     1       4.768   0.713  -5.279  0.00  0.00    -0.001 C 
ATOM     18  C   UNL     1       4.724   0.908  -6.656  0.00  0.00    +0.004 A 
ATOM     19  C   UNL     1       5.728   0.927  -7.651  0.00  0.00    +0.010 A 
ATOM     20  C   UNL     1       5.387   1.147  -8.945  0.00  0.00    +0.001 A 
ATOM     21  C   UNL     1       4.058   1.358  -9.329  0.00  0.00    +0.002 A 
ATOM     22  C   UNL     1       3.045   1.354  -8.432  0.00  0.00    +0.026 A 
ATOM     23  C   UNL     1       3.321   1.130  -7.055  0.00  0.00    +0.043 A 
ATOM     24  N   UNL     1       2.532   1.079  -6.007  0.00  0.00    -0.380 N 
ATOM     25  C   UNL     1       3.334   0.812  -4.809  0.00  0.00    +0.150 C 
ATOM     26  H   UNL     1       1.569   1.196  -6.023  0.00  0.00    +0.160 HD
ENDBRANCH  16  17
ENDBRANCH   8  15
TORSDOF 3
