REMARK  Name = ZINC67294000
REMARK  7 active torsions:
REMARK  status: ('A' for Active; 'I' for Inactive)
REMARK    1  A    between atoms: C_1  and  O_2
REMARK    2  A    between atoms: O_2  and  C_3
REMARK    3  A    between atoms: N_11  and  C_12
REMARK    4  A    between atoms: C_15  and  C_18
REMARK    5  A    between atoms: C_22  and  C_24
REMARK    6  A    between atoms: N_26  and  C_27
REMARK    7  A    between atoms: C_27  and  C_28
REMARK                            x       y       z     vdW  Elec       q    Type
REMARK                         _______ _______ _______ _____ _____    ______ ____
ROOT
ATOM      1  C   UNL     1      -1.221  -0.683   0.104  0.00  0.00    +0.163 A 
ATOM      2  C   UNL     1      -2.391   0.057   0.128  0.00  0.00    +0.049 A 
ATOM      3  C   UNL     1      -3.626  -0.575   0.112  0.00  0.00    +0.004 A 
ATOM      4  C   UNL     1      -3.706  -1.949   0.075  0.00  0.00    +0.012 A 
ATOM      5  C   UNL     1      -2.532  -2.713   0.053  0.00  0.00    +0.022 A 
ATOM      6  C   UNL     1      -1.280  -2.072   0.059  0.00  0.00    +0.179 A 
ATOM      7  O   UNL     1      -0.144  -2.811   0.023  0.00  0.00    -0.435 OA
ATOM      8  C   UNL     1      -0.207  -4.065   0.539  0.00  0.00    +0.212 A 
ATOM      9  N   UNL     1       0.776  -4.549   1.267  0.00  0.00    -0.325 N 
ATOM     10  C   UNL     1      -1.413  -4.869   0.258  0.00  0.00    +0.097 A 
ATOM     11  C   UNL     1      -2.591  -4.176   0.020  0.00  0.00    +0.030 A 
ATOM     12  H   UNL     1       0.679  -5.412   1.701  0.00  0.00    +0.169 HD
ENDROOT
BRANCH   9  13
ATOM     13  C   UNL     1       1.935  -3.838   1.412  0.00  0.00    +0.042 A 
ATOM     14  C   UNL     1       2.529  -3.232   0.302  0.00  0.00    +0.026 A 
ATOM     15  C   UNL     1       3.698  -2.516   0.456  0.00  0.00    +0.014 A 
ATOM     16  C   UNL     1       4.281  -2.396   1.705  0.00  0.00    +0.055 A 
ATOM     17  C   UNL     1       3.698  -2.994   2.808  0.00  0.00    +0.014 A 
ATOM     18  C   UNL     1       2.526  -3.708   2.671  0.00  0.00    +0.026 A 
BRANCH  16  19
ATOM     19  C   UNL     1       5.558  -1.612   1.864  0.00  0.00    +0.417 C 
ATOM     20  F   UNL     1       5.253  -0.274   2.136  0.00  0.00    -0.166 F 
ATOM     21  F   UNL     1       6.303  -2.144   2.922  0.00  0.00    -0.166 F 
ATOM     22  F   UNL     1       6.304  -1.690   0.683  0.00  0.00    -0.166 F 
ENDBRANCH  16  19
ENDBRANCH   9  13
BRANCH  10  23
ATOM     23  C   UNL     1      -1.370  -6.341   0.243  0.00  0.00    +0.249 C 
ATOM     24  O   UNL     1      -0.344  -6.922   0.541  0.00  0.00    -0.270 OA
ATOM     25  N   UNL     1      -2.467  -7.044  -0.101  0.00  0.00    -0.309 N 
ATOM     26  H   UNL     1      -3.262  -6.582  -0.410  0.00  0.00    +0.149 HD
BRANCH  25  27
ATOM     27  C   UNL     1      -2.459  -8.506  -0.008  0.00  0.00    +0.136 C 
BRANCH  27  28
ATOM     28  C   UNL     1      -3.817  -9.053  -0.454  0.00  0.00    +0.135 C 
ATOM     29  C   UNL     1      -3.859 -10.582  -0.246  0.00  0.00    +0.035 C 
ATOM     30  C   UNL     1      -4.625 -11.065  -1.508  0.00  0.00    +0.031 C 
ATOM     31  C   UNL     1      -4.129 -10.043  -2.561  0.00  0.00    +0.160 C 
ATOM     32  O   UNL     1      -4.008  -8.799  -1.850  0.00  0.00    -0.375 OA
ENDBRANCH  27  28
ENDBRANCH  25  27
ENDBRANCH  10  23
BRANCH   1  34
ATOM     33  C   UNL     1      -0.032   1.376   0.166  0.00  0.00    +0.277 C 
ATOM     34  O   UNL     1      -0.016  -0.052   0.119  0.00  0.00    -0.491 OA
ENDBRANCH   1  34
TORSDOF 6
