REMARK  Name = ZINC05678007
REMARK  6 active torsions:
REMARK  status: ('A' for Active; 'I' for Inactive)
REMARK    1  A    between atoms: C_1  and  C_2
REMARK    2  A    between atoms: C_3  and  C_22
REMARK    3  A    between atoms: C_7  and  C_12
REMARK    4  A    between atoms: C_8  and  C_11
REMARK    5  A    between atoms: C_12  and  C_14
REMARK    6  A    between atoms: C_15  and  C_16
REMARK                            x       y       z     vdW  Elec       q    Type
REMARK                         _______ _______ _______ _____ _____    ______ ____
ROOT
ATOM      1  C   UNL     1      -0.353  -2.388  -1.987  0.00  0.00    +0.068 C 
ATOM      2  C   UNL     1       0.432  -2.897  -0.805  0.00  0.00    +0.070 A 
ATOM      3  C   UNL     1       1.169  -2.105   0.084  0.00  0.00    +0.051 A 
ATOM      4  C   UNL     1       1.745  -2.964   1.024  0.00  0.00    +0.186 A 
ATOM      5  N   UNL     1       2.538  -2.763   2.082  0.00  0.00    -0.128 NA
ATOM      6  N   UNL     1       2.944  -3.744   2.809  0.00  0.00    -0.142 NA
ATOM      7  C   UNL     1       2.589  -5.012   2.538  0.00  0.00    +0.154 A 
ATOM      8  C   UNL     1       1.765  -5.280   1.462  0.00  0.00    +0.073 A 
ATOM      9  N   UNL     1       1.343  -4.237   0.694  0.00  0.00    -0.214 N 
ATOM     10  N   UNL     1       0.536  -4.153  -0.443  0.00  0.00    -0.169 NA
ATOM     11  C   UNL     1       1.356  -6.693   1.137  0.00  0.00    +0.068 C 
ENDROOT
BRANCH   3  12
ATOM     12  C   UNL     1       1.317  -0.632   0.034  0.00  0.00    -0.013 A 
ATOM     13  C   UNL     1       0.207   0.190   0.231  0.00  0.00    +0.009 A 
ATOM     14  C   UNL     1       0.351   1.561   0.183  0.00  0.00    +0.001 A 
ATOM     15  C   UNL     1       1.593   2.122  -0.059  0.00  0.00    +0.000 A 
ATOM     16  C   UNL     1       2.697   1.312  -0.254  0.00  0.00    +0.001 A 
ATOM     17  C   UNL     1       2.566  -0.061  -0.209  0.00  0.00    +0.009 A 
ENDBRANCH   3  12
BRANCH   7  18
ATOM     18  C   UNL     1       3.073  -6.115   3.393  0.00  0.00    +0.208 C 
ATOM     19  O   UNL     1       2.847  -7.270   3.082  0.00  0.00    -0.286 OA
BRANCH  18  20
ATOM     20  C   UNL     1       3.822  -5.820   4.614  0.00  0.00    +0.054 C 
ATOM     21  C   UNL     1       4.264  -6.828   5.396  0.00  0.00    +0.012 C 
BRANCH  21  22
ATOM     22  C   UNL     1       5.018  -6.531   6.623  0.00  0.00    -0.025 A 
ATOM     23  C   UNL     1       5.284  -5.205   6.982  0.00  0.00    +0.008 A 
ATOM     24  C   UNL     1       5.987  -4.935   8.136  0.00  0.00    +0.001 A 
ATOM     25  C   UNL     1       6.439  -5.971   8.935  0.00  0.00    +0.000 A 
ATOM     26  C   UNL     1       6.184  -7.286   8.585  0.00  0.00    +0.001 A 
ATOM     27  C   UNL     1       5.478  -7.573   7.436  0.00  0.00    +0.008 A 
ENDBRANCH  21  22
ENDBRANCH  18  20
ENDBRANCH   7  18
TORSDOF 4
