REMARK  Name = ZINC64889896
REMARK  4 active torsions:
REMARK  status: ('A' for Active; 'I' for Inactive)
REMARK    1  A    between atoms: C_1  and  C_2
REMARK    2  A    between atoms: C_7  and  C_8
REMARK    3  A    between atoms: N_13  and  S_16
REMARK    4  A    between atoms: S_16  and  C_19
REMARK                            x       y       z     vdW  Elec       q    Type
REMARK                         _______ _______ _______ _____ _____    ______ ____
ROOT
ATOM      1  C   UNL     1       0.142  -0.146   2.576  0.00  0.00    +0.247 C 
ATOM      2  O   UNL     1       0.030   1.060   2.673  0.00  0.00    -0.270 OA
ATOM      3  N   UNL     1       0.340  -0.896   3.678  0.00  0.00    -0.295 N 
ATOM      4  C   UNL     1       0.610  -2.336   3.565  0.00  0.00    +0.125 C 
ATOM      5  C   UNL     1       1.923  -2.647   4.295  0.00  0.00    +0.128 C 
ATOM      6  N   UNL     1       1.872  -2.039   5.631  0.00  0.00    -0.174 NA
ATOM      7  C   UNL     1       1.602  -0.599   5.745  0.00  0.00    +0.128 C 
ATOM      8  C   UNL     1       0.295  -0.287   5.015  0.00  0.00    +0.125 C 
ENDROOT
BRANCH   1  15
ATOM      9  C   UNL     1       1.760   0.856   0.397  0.00  0.00    +0.044 C 
ATOM     10  C   UNL     1       0.837  -0.317   0.190  0.00  0.00    -0.038 A 
ATOM     11  C   UNL     1       0.760  -0.927  -1.046  0.00  0.00    +0.004 A 
ATOM     12  C   UNL     1      -0.087  -2.003  -1.238  0.00  0.00    +0.000 A 
ATOM     13  C   UNL     1      -0.863  -2.475  -0.194  0.00  0.00    +0.001 A 
ATOM     14  C   UNL     1      -0.796  -1.875   1.046  0.00  0.00    +0.013 A 
ATOM     15  C   UNL     1       0.061  -0.791   1.248  0.00  0.00    +0.040 A 
ENDBRANCH   1  15
BRANCH   6  16
ATOM     16  S   UNL     1       2.115  -2.960   6.986  0.00  0.00    +0.061 S 
ATOM     17  O   UNL     1       1.477  -2.281   8.059  0.00  0.00    -0.153 OA
ATOM     18  O   UNL     1       1.792  -4.298   6.631  0.00  0.00    -0.153 OA
BRANCH  16  19
ATOM     19  C   UNL     1       3.843  -2.934   7.330  0.00  0.00    +0.107 A 
ATOM     20  C   UNL     1       4.671  -3.891   6.774  0.00  0.00    +0.032 A 
ATOM     21  C   UNL     1       6.029  -3.878   7.039  0.00  0.00    +0.049 A 
ATOM     22  C   UNL     1       6.560  -2.902   7.864  0.00  0.00    +0.142 A 
ATOM     23  C   UNL     1       5.725  -1.938   8.426  0.00  0.00    +0.078 A 
ATOM     24  C   UNL     1       4.367  -1.954   8.152  0.00  0.00    +0.055 A 
ATOM     25  N   UNL     1       6.276  -0.957   9.263  0.00  0.00    -0.280 N 
ATOM     26  C   UNL     1       7.614  -0.769   9.259  0.00  0.00    +0.255 C 
ATOM     27  O   UNL     1       8.116   0.052   9.997  0.00  0.00    -0.272 OA
ATOM     28  C   UNL     1       8.480  -1.585   8.333  0.00  0.00    +0.325 C 
ATOM     29  O   UNL     1       7.893  -2.873   8.135  0.00  0.00    -0.481 OA
ATOM     30  H   UNL     1       5.705  -0.421   9.836  0.00  0.00    +0.155 HD
ENDBRANCH  16  19
ENDBRANCH   6  16
TORSDOF 3
