REMARK  Name = ZINC13635162
REMARK  4 active torsions:
REMARK  status: ('A' for Active; 'I' for Inactive)
REMARK    1  A    between atoms: C_1  and  O_2
REMARK    2  A    between atoms: O_2  and  C_3
REMARK    3  A    between atoms: C_6  and  C_9
REMARK    4  A    between atoms: C_22  and  N_25
REMARK                            x       y       z     vdW  Elec       q    Type
REMARK                         _______ _______ _______ _____ _____    ______ ____
ROOT
ATOM      1  C   UNL     1       4.681   1.445  -0.625  0.00  0.00    +0.105 C 
ATOM      2  C   UNL     1       5.495   0.292  -0.032  0.00  0.00    +0.029 C 
ATOM      3  C   UNL     1       6.699   0.024  -0.978  0.00  0.00    +0.033 C 
ATOM      4  C   UNL     1       6.108  -0.847  -2.069  0.00  0.00    -0.030 C 
ATOM      5  C   UNL     1       5.013  -1.429  -1.650  0.00  0.00    -0.023 C 
ATOM      6  C   UNL     1       4.711  -1.024  -0.225  0.00  0.00    +0.049 C 
ATOM      7  C   UNL     1       3.237  -0.820  -0.034  0.00  0.00    -0.017 A 
ATOM      8  C   UNL     1       2.420  -1.943  -0.020  0.00  0.00    +0.006 A 
ATOM      9  C   UNL     1       1.056  -1.819   0.145  0.00  0.00    +0.003 A 
ATOM     10  C   UNL     1       0.489  -0.567   0.300  0.00  0.00    +0.034 A 
ATOM     11  C   UNL     1       1.291   0.554   0.291  0.00  0.00    +0.147 A 
ATOM     12  C   UNL     1       2.670   0.432   0.124  0.00  0.00    +0.062 A 
ATOM     13  N   UNL     1       3.435   1.598   0.127  0.00  0.00    -0.335 N 
ATOM     14  H   UNL     1       3.618   1.909   1.070  0.00  0.00    +0.147 HD
ENDROOT
BRANCH   1  18
ATOM     15  C   UNL     1       3.781   0.599  -4.716  0.00  0.00    +0.120 A 
ATOM     16  C   UNL     1       2.826   0.377  -3.734  0.00  0.00    +0.046 A 
ATOM     17  C   UNL     1       3.119   0.652  -2.413  0.00  0.00    +0.009 A 
ATOM     18  C   UNL     1       4.364   1.146  -2.067  0.00  0.00    -0.027 A 
ATOM     19  C   UNL     1       5.315   1.373  -3.045  0.00  0.00    +0.009 A 
ATOM     20  C   UNL     1       5.029   1.095  -4.367  0.00  0.00    +0.046 A 
BRANCH  15  22
ATOM     21  C   UNL     1       4.526   0.582  -6.973  0.00  0.00    +0.277 C 
ATOM     22  O   UNL     1       3.495   0.330  -6.017  0.00  0.00    -0.495 OA
ENDBRANCH  15  22
ENDBRANCH   1  18
BRANCH  11  23
ATOM     23  N   UNL     1       0.686   1.894   0.457  0.00  0.00    +0.058 N 
ATOM     24  O   UNL     1      -0.519   2.005   0.603  0.00  0.00    -0.126 OA
ATOM     25  O   UNL     1       1.391   2.887   0.449  0.00  0.00    -0.126 OA
ENDBRANCH  11  23
TORSDOF 3
