REMARK  Name = ZINC38489340
REMARK  9 active torsions:
REMARK  status: ('A' for Active; 'I' for Inactive)
REMARK    1  A    between atoms: C_1  and  C_2
REMARK    2  A    between atoms: C_3  and  S_18
REMARK    3  A    between atoms: C_5  and  C_7
REMARK    4  A    between atoms: N_9  and  C_10
REMARK    5  A    between atoms: C_10  and  C_11
REMARK    6  A    between atoms: C_11  and  C_12
REMARK    7  A    between atoms: S_18  and  N_21
REMARK    8  A    between atoms: C_23  and  C_30
REMARK    9  A    between atoms: C_26  and  C_29
REMARK                            x       y       z     vdW  Elec       q    Type
REMARK                         _______ _______ _______ _____ _____    ______ ____
ROOT
ATOM      1  C   UNL     1      -0.018   1.503   0.010  0.00  0.00    +0.088 C 
ATOM      2  C   UNL     1       0.002  -0.004   0.002  0.00  0.00    +0.129 A 
ATOM      3  C   UNL     1      -1.086  -0.806   0.003  0.00  0.00    +0.147 A 
ATOM      4  C   UNL     1      -0.622  -2.131  -0.007  0.00  0.00    +0.083 A 
ATOM      5  C   UNL     1       0.742  -2.070  -0.014  0.00  0.00    +0.191 A 
ATOM      6  O   UNL     1       1.101  -0.769  -0.013  0.00  0.00    -0.453 OA
ENDROOT
BRANCH   5   7
ATOM      7  C   UNL     1       1.656  -3.216  -0.025  0.00  0.00    +0.279 C 
ATOM      8  O   UNL     1       1.211  -4.349  -0.028  0.00  0.00    -0.267 OA
ATOM      9  N   UNL     1       2.989  -3.016  -0.030  0.00  0.00    -0.309 N 
ATOM     10  H   UNL     1       3.343  -2.113  -0.027  0.00  0.00    +0.149 HD
BRANCH   9  11
ATOM     11  C   UNL     1       3.902  -4.161  -0.041  0.00  0.00    +0.109 C 
BRANCH  11  12
ATOM     12  C   UNL     1       5.348  -3.661  -0.045  0.00  0.00    +0.049 C 
BRANCH  12  13
ATOM     13  C   UNL     1       6.287  -4.839  -0.056  0.00  0.00    -0.072 C 
ATOM     14  C   UNL     1       6.742  -5.242  -1.199  0.00  0.00    -0.028 C 
ATOM     15  C   UNL     1       7.674  -6.406  -1.370  0.00  0.00    +0.027 C 
ATOM     16  C   UNL     1       8.328  -6.758  -0.032  0.00  0.00    +0.004 C 
ATOM     17  C   UNL     1       7.229  -6.865   1.032  0.00  0.00    +0.005 C 
ATOM     18  C   UNL     1       6.642  -5.469   1.259  0.00  0.00    +0.030 C 
ENDBRANCH  12  13
ENDBRANCH  11  12
ENDBRANCH   9  11
ENDBRANCH   5   7
BRANCH   3  19
ATOM     19  S   UNL     1      -2.769  -0.286   0.015  0.00  0.00    +0.064 S 
ATOM     20  O   UNL     1      -2.898   0.696  -1.004  0.00  0.00    -0.153 OA
ATOM     21  O   UNL     1      -3.559  -1.467   0.038  0.00  0.00    -0.153 OA
BRANCH  19  22
ATOM     22  N   UNL     1      -3.032   0.488   1.455  0.00  0.00    -0.172 NA
ATOM     23  C   UNL     1      -3.481  -0.254   2.643  0.00  0.00    +0.140 C 
ATOM     24  C   UNL     1      -2.561   0.106   3.815  0.00  0.00    +0.131 C 
ATOM     25  O   UNL     1      -2.496   1.529   3.942  0.00  0.00    -0.371 OA
ATOM     26  C   UNL     1      -1.935   2.193   2.807  0.00  0.00    +0.131 C 
ATOM     27  C   UNL     1      -2.818   1.938   1.585  0.00  0.00    +0.140 C 
ATOM     28  C   UNL     1      -1.858   3.696   3.081  0.00  0.00    +0.039 C 
ATOM     29  C   UNL     1      -1.159  -0.449   3.553  0.00  0.00    +0.039 C 
ENDBRANCH  19  22
ENDBRANCH   3  19
TORSDOF 6
