REMARK  Name = ZINC12661861
REMARK  10 active torsions:
REMARK  status: ('A' for Active; 'I' for Inactive)
REMARK    1  A    between atoms: C_1  and  C_2
REMARK    2  A    between atoms: C_13  and  O_30
REMARK    3  A    between atoms: C_17  and  C_29
REMARK    4  A    between atoms: C_22  and  C_28
REMARK    5  A    between atoms: C_23  and  C_25
REMARK    6  A    between atoms: C_25  and  C_27
REMARK    7  A    between atoms: O_30  and  C_31
REMARK    8  A    between atoms: C_31  and  C_33
REMARK    9  A    between atoms: C_33  and  C_34
REMARK   10  A    between atoms: C_34  and  N_79
REMARK                            x       y       z     vdW  Elec       q    Type
REMARK                         _______ _______ _______ _____ _____    ______ ____
ROOT
ATOM      1  C   UNL     1       0.250   1.426   0.694  0.00  0.00    +0.008 C 
ATOM      2  C   UNL     1       0.204  -0.087   0.474  0.00  0.00    -0.003 C 
ATOM      3  C   UNL     1       1.144  -0.801   1.482  0.00  0.00    +0.008 C 
ATOM      4  C   UNL     1       2.311  -1.293   0.612  0.00  0.00    -0.000 C 
ATOM      5  C   UNL     1       3.138  -2.416   1.215  0.00  0.00    +0.000 C 
ATOM      6  C   UNL     1       4.379  -1.756   1.829  0.00  0.00    +0.031 C 
ATOM      7  C   UNL     1       5.431  -2.758   2.166  0.00  0.00    -0.027 C 
ATOM      8  C   UNL     1       5.539  -3.916   1.585  0.00  0.00    -0.064 C 
ATOM      9  C   UNL     1       6.682  -4.826   1.995  0.00  0.00    +0.075 C 
ATOM     10  C   UNL     1       7.432  -5.255   0.731  0.00  0.00    +0.180 C 
ATOM     11  C   UNL     1       6.456  -5.902  -0.251  0.00  0.00    +0.046 C 
ATOM     12  C   UNL     1       5.393  -4.893  -0.684  0.00  0.00    +0.015 C 
ATOM     13  C   UNL     1       4.598  -4.390   0.521  0.00  0.00    -0.008 C 
ATOM     14  C   UNL     1       3.554  -3.380   0.113  0.00  0.00    +0.003 C 
ATOM     15  C   UNL     1       3.875  -2.620  -1.166  0.00  0.00    +0.005 C 
ATOM     16  C   UNL     1       2.576  -2.059  -1.778  0.00  0.00    +0.008 C 
ATOM     17  C   UNL     1       1.602  -1.685  -0.693  0.00  0.00    -0.019 C 
ATOM     18  C   UNL     1       0.743  -0.429  -0.942  0.00  0.00    +0.064 C 
ATOM     19  C   UNL     1       0.599  -2.830  -0.467  0.00  0.00    +0.012 C 
ATOM     20  C   UNL     1       3.828  -5.592   1.096  0.00  0.00    +0.016 C 
ENDROOT
BRANCH  18  21
ATOM     21  C   UNL     1       1.558   0.717  -1.468  0.00  0.00    +0.134 C 
ATOM     22  O   UNL     1       2.755   0.731  -1.307  0.00  0.00    -0.297 OA
ATOM     23  C   UNL     1       0.882   1.851  -2.196  0.00  0.00    +0.086 C 
ENDBRANCH  18  21
BRANCH  10  24
ATOM     24  O   UNL     1       8.469  -6.207   1.083  0.00  0.00    -0.461 OA
BRANCH  24  25
ATOM     25  C   UNL     1       9.678  -5.708   1.384  0.00  0.00    +0.306 C 
ATOM     26  O   UNL     1       9.863  -4.514   1.355  0.00  0.00    -0.251 OA
BRANCH  25  27
ATOM     27  C   UNL     1      10.804  -6.636   1.759  0.00  0.00    +0.102 C 
BRANCH  27  28
ATOM     28  C   UNL     1      12.063  -5.818   2.053  0.00  0.00    -0.067 C 
BRANCH  28  34
ATOM     29  C   UNL     1      12.885  -7.398   3.694  0.00  0.00    -0.050 C 
ATOM     30  C   UNL     1      14.024  -8.373   4.006  0.00  0.00    +0.141 C 
ATOM     31  O   UNL     1      15.263  -7.660   4.028  0.00  0.00    -0.383 OA
ATOM     32  C   UNL     1      15.564  -6.991   2.800  0.00  0.00    +0.141 C 
ATOM     33  C   UNL     1      14.441  -6.002   2.476  0.00  0.00    -0.050 C 
ATOM     34  N   UNL     1      13.164  -6.743   2.399  0.00  0.00    +0.383 N 
ATOM     35  H   UNL     1      13.238  -7.462   1.670  0.00  0.00    -0.082 HD
ENDBRANCH  28  34
ENDBRANCH  27  28
ENDBRANCH  25  27
ENDBRANCH  24  25
ENDBRANCH  10  24
TORSDOF 6
