REMARK  Name = ZINC61577290
REMARK  8 active torsions:
REMARK  status: ('A' for Active; 'I' for Inactive)
REMARK    1  A    between atoms: C_1  and  C_2
REMARK    2  A    between atoms: C_2  and  C_27
REMARK    3  A    between atoms: C_6  and  C_26
REMARK    4  A    between atoms: N_8  and  N_9
REMARK    5  A    between atoms: C_10  and  C_12
REMARK    6  A    between atoms: C_12  and  S_13
REMARK    7  A    between atoms: S_13  and  C_14
REMARK    8  A    between atoms: N_18  and  C_19
REMARK                            x       y       z     vdW  Elec       q    Type
REMARK                         _______ _______ _______ _____ _____    ______ ____
ROOT
ATOM      1  N   UNL     1      -0.779  -2.714   2.529  0.00  0.00    -0.206 N 
ATOM      2  C   UNL     1      -1.317  -3.777   3.159  0.00  0.00    +0.242 C 
ATOM      3  O   UNL     1      -1.471  -4.822   2.562  0.00  0.00    -0.273 OA
ATOM      4  H   UNL     1      -0.656  -1.879   3.006  0.00  0.00    +0.177 HD
ENDROOT
BRANCH   1  12
ATOM      5  C   UNL     1       0.301   1.950   0.012  0.00  0.00    +0.012 C 
ATOM      6  C   UNL     1      -0.017   0.467  -0.187  0.00  0.00    -0.021 C 
ATOM      7  C   UNL     1       1.080  -0.263  -1.041  0.00  0.00    +0.001 C 
ATOM      8  C   UNL     1       2.325  -0.090  -0.117  0.00  0.00    +0.005 C 
ATOM      9  C   UNL     1       1.754  -0.166   1.317  0.00  0.00    +0.013 C 
ATOM     10  C   UNL     1       0.221  -0.368   1.120  0.00  0.00    +0.013 C 
ATOM     11  C   UNL     1       0.087  -1.798   0.578  0.00  0.00    +0.044 C 
ATOM     12  N   UNL     1      -0.397  -2.816   1.185  0.00  0.00    -0.189 NA
ATOM     13  C   UNL     1       0.650  -1.747  -0.835  0.00  0.00    +0.057 C 
ATOM     14  C   UNL     1      -0.659  -0.009   2.319  0.00  0.00    +0.018 C 
ATOM     15  C   UNL     1      -1.423   0.259  -0.754  0.00  0.00    +0.012 C 
ENDBRANCH   1  12
BRANCH   2  16
ATOM     16  C   UNL     1      -1.728  -3.668   4.605  0.00  0.00    +0.174 C 
BRANCH  16  17
ATOM     17  S   UNL     1      -2.412  -5.253   5.161  0.00  0.00    -0.075 S 
BRANCH  17  18
ATOM     18  C   UNL     1      -2.839  -4.965   6.846  0.00  0.00    +0.214 A 
ATOM     19  N   UNL     1      -2.687  -3.840   7.510  0.00  0.00    -0.101 NA
ATOM     20  N   UNL     1      -3.101  -3.972   8.719  0.00  0.00    -0.022 NA
ATOM     21  N   UNL     1      -3.541  -5.167   8.915  0.00  0.00    -0.038 NA
ATOM     22  N   UNL     1      -3.393  -5.861   7.702  0.00  0.00    -0.187 N 
BRANCH  22  23
ATOM     23  C   UNL     1      -3.741  -7.192   7.434  0.00  0.00    +0.070 A 
ATOM     24  C   UNL     1      -4.219  -7.548   6.180  0.00  0.00    +0.028 A 
ATOM     25  C   UNL     1      -4.560  -8.860   5.918  0.00  0.00    +0.002 A 
ATOM     26  C   UNL     1      -4.428  -9.820   6.905  0.00  0.00    +0.000 A 
ATOM     27  C   UNL     1      -3.952  -9.469   8.155  0.00  0.00    +0.002 A 
ATOM     28  C   UNL     1      -3.604  -8.159   8.421  0.00  0.00    +0.028 A 
ENDBRANCH  22  23
ENDBRANCH  17  18
ENDBRANCH  16  17
ENDBRANCH   2  16
TORSDOF 5
