REMARK  Name = ZINC42164117
REMARK  3 active torsions:
REMARK  status: ('A' for Active; 'I' for Inactive)
REMARK    1  A    between atoms: C_6  and  C_7
REMARK    2  A    between atoms: C_9  and  C_12
REMARK    3  A    between atoms: C_12  and  C_13
REMARK                            x       y       z     vdW  Elec       q    Type
REMARK                         _______ _______ _______ _____ _____    ______ ____
ROOT
ATOM      1  C   UNL     1      -1.272  -0.766   0.011  0.00  0.00    +0.202 A 
ATOM      2  N   UNL     1      -1.384  -2.106   0.010  0.00  0.00    -0.191 NA
ATOM      3  C   UNL     1      -2.641  -2.449   0.019  0.00  0.00    +0.226 A 
ATOM      4  O   UNL     1      -3.384  -1.335   0.026  0.00  0.00    -0.338 OA
ATOM      5  N   UNL     1      -2.474  -0.245   0.026  0.00  0.00    -0.056 NA
ENDROOT
BRANCH   1  11
ATOM      6  C   UNL     1      -0.017   1.389   0.010  0.00  0.00    +0.013 A 
ATOM      7  C   UNL     1       1.170   2.093   0.002  0.00  0.00    +0.016 A 
ATOM      8  C   UNL     1       2.378   1.417  -0.013  0.00  0.00    +0.018 A 
ATOM      9  C   UNL     1       2.402   0.033  -0.021  0.00  0.00    +0.016 A 
ATOM     10  C   UNL     1       1.221  -0.680  -0.014  0.00  0.00    +0.013 A 
ATOM     11  C   UNL     1       0.002  -0.004   0.002  0.00  0.00    +0.023 A 
ATOM     12 BR   UNL     1       4.001   2.388  -0.024  0.00  0.00    -0.050 Br
ENDBRANCH   1  11
BRANCH   3  13
ATOM     13  C   UNL     1      -3.169  -3.860   0.021  0.00  0.00    +0.083 C 
BRANCH  13  14
ATOM     14  C   UNL     1      -3.337  -4.340   1.464  0.00  0.00    -0.063 C 
ATOM     15  C   UNL     1      -3.928  -5.771   1.491  0.00  0.00    -0.017 C 
ATOM     16  C   UNL     1      -3.440  -6.286   2.871  0.00  0.00    -0.021 C 
ATOM     17  C   UNL     1      -2.046  -5.640   3.009  0.00  0.00    -0.082 C 
ATOM     18  N   UNL     1      -2.019  -4.460   2.123  0.00  0.00    +0.381 N 
ATOM     19  H   UNL     1      -1.300  -4.576   1.425  0.00  0.00    -0.086 HD
ATOM     20  H   UNL     1      -1.833  -3.630   2.665  0.00  0.00    -0.086 HD
ENDBRANCH  13  14
ENDBRANCH   3  13
TORSDOF 3
