REMARK  Name = ZINC12586553
REMARK  7 active torsions:
REMARK  status: ('A' for Active; 'I' for Inactive)
REMARK    1  A    between atoms: C_1  and  C_2
REMARK    2  A    between atoms: C_5  and  C_19
REMARK    3  A    between atoms: C_6  and  C_12
REMARK    4  A    between atoms: N_14  and  C_15
REMARK    5  A    between atoms: C_15  and  C_16
REMARK    6  A    between atoms: C_15  and  C_17
REMARK    7  A    between atoms: C_15  and  C_18
REMARK                            x       y       z     vdW  Elec       q    Type
REMARK                         _______ _______ _______ _____ _____    ______ ____
ROOT
ATOM      1  C   UNL     1      -0.013   1.086   0.008  0.00  0.00    +0.044 C 
ATOM      2  C   UNL     1      -0.718   1.572   1.248  0.00  0.00    -0.048 A 
ATOM      3  C   UNL     1      -0.003   1.801   2.389  0.00  0.00    +0.015 A 
ATOM      4  C   UNL     1      -0.657   2.252   3.538  0.00  0.00    +0.026 A 
ATOM      5  C   UNL     1      -0.222   2.591   4.893  0.00  0.00    +0.008 A 
ATOM      6  C   UNL     1      -1.341   2.972   5.563  0.00  0.00    +0.193 A 
ATOM      7  O   UNL     1      -2.410   2.896   4.744  0.00  0.00    -0.448 OA
ATOM      8  C   UNL     1      -2.048   2.469   3.519  0.00  0.00    +0.154 A 
ATOM      9  C   UNL     1      -2.755   2.228   2.346  0.00  0.00    +0.084 A 
ATOM     10  C   UNL     1      -2.089   1.789   1.221  0.00  0.00    +0.027 A 
ATOM     11 CL   UNL     1      -4.471   2.487   2.295  0.00  0.00    -0.080 Cl
ATOM     12  C   UNL     1       1.182   2.530   5.435  0.00  0.00    +0.048 C 
ENDROOT
BRANCH   6  13
ATOM     13  C   UNL     1      -1.379   3.401   6.968  0.00  0.00    +0.280 C 
ATOM     14  O   UNL     1      -0.354   3.435   7.622  0.00  0.00    -0.267 OA
ATOM     15  N   UNL     1      -2.550   3.758   7.532  0.00  0.00    -0.304 N 
ATOM     16  H   UNL     1      -3.368   3.731   7.010  0.00  0.00    +0.150 HD
BRANCH  15  17
ATOM     17  C   UNL     1      -2.589   4.186   8.932  0.00  0.00    +0.027 C 
ATOM     18  C   UNL     1      -1.701   5.419   9.113  0.00  0.00    +0.031 C 
ATOM     19  C   UNL     1      -4.028   4.533   9.320  0.00  0.00    +0.031 C 
ATOM     20  C   UNL     1      -2.078   3.054   9.826  0.00  0.00    +0.031 C 
ENDBRANCH  15  17
ENDBRANCH   6  13
TORSDOF 2
