REMARK  Name = ZINC21180737
REMARK  8 active torsions:
REMARK  status: ('A' for Active; 'I' for Inactive)
REMARK    1  A    between atoms: C_1  and  C_2
REMARK    2  A    between atoms: C_8  and  C_10
REMARK    3  A    between atoms: C_10  and  S_11
REMARK    4  A    between atoms: S_11  and  C_12
REMARK    5  A    between atoms: N_24  and  C_25
REMARK    6  A    between atoms: C_25  and  C_26
REMARK    7  A    between atoms: C_26  and  C_27
REMARK    8  A    between atoms: C_26  and  C_28
REMARK                            x       y       z     vdW  Elec       q    Type
REMARK                         _______ _______ _______ _____ _____    ______ ____
ROOT
ATOM      1  C   UNL     1       3.804   3.055  -0.019  0.00  0.00    +0.173 A 
ATOM      2  N   UNL     1       2.489   3.155  -0.006  0.00  0.00    -0.216 NA
ATOM      3  C   UNL     1       1.727   2.067  -0.003  0.00  0.00    +0.117 A 
ATOM      4  C   UNL     1       2.272   0.775  -0.016  0.00  0.00    +0.076 A 
ATOM      5  C   UNL     1       1.303  -0.334  -0.013  0.00  0.00    -0.023 A 
ATOM      6  C   UNL     1       0.002  -0.004   0.002  0.00  0.00    -0.004 A 
ATOM      7  S   UNL     1      -0.022   1.774   0.012  0.00  0.00    -0.073 S 
ATOM      8  C   UNL     1      -0.892  -1.215   0.007  0.00  0.00    +0.043 C 
ATOM      9  C   UNL     1       0.034  -2.377   0.430  0.00  0.00    +0.010 C 
ATOM     10  C   UNL     1       1.413  -1.862  -0.026  0.00  0.00    +0.037 C 
ATOM     11  C   UNL     1       3.700   0.696  -0.030  0.00  0.00    +0.263 A 
ATOM     12  O   UNL     1       4.260  -0.387  -0.041  0.00  0.00    -0.267 OA
ATOM     13  N   UNL     1       4.416   1.836  -0.031  0.00  0.00    -0.287 N 
ENDROOT
BRANCH   1  14
ATOM     14  S   UNL     1       4.785   4.519  -0.022  0.00  0.00    -0.078 S 
BRANCH  14  15
ATOM     15  C   UNL     1       3.479   5.773  -0.003  0.00  0.00    +0.173 C 
BRANCH  15  23
ATOM     16  C   UNL     1       6.541  12.042  -0.006  0.00  0.00    +0.089 C 
ATOM     17  C   UNL     1       5.311  11.172   0.003  0.00  0.00    +0.136 A 
ATOM     18  C   UNL     1       5.277   9.820  -0.003  0.00  0.00    +0.091 A 
ATOM     19  C   UNL     1       3.891   9.512   0.010  0.00  0.00    +0.168 A 
ATOM     20  N   UNL     1       3.262  10.658   0.016  0.00  0.00    -0.063 NA
ATOM     21  O   UNL     1       4.036  11.587   0.018  0.00  0.00    -0.358 OA
ATOM     22  N   UNL     1       3.316   8.241   0.010  0.00  0.00    -0.267 N 
ATOM     23  C   UNL     1       4.101   7.146  -0.003  0.00  0.00    +0.229 C 
ATOM     24  O   UNL     1       5.308   7.265  -0.015  0.00  0.00    -0.275 OA
ATOM     25  H   UNL     1       2.221   8.133   0.021  0.00  0.00    +0.156 HD
ENDBRANCH  15  23
ENDBRANCH  14  15
ENDBRANCH   1  14
BRANCH  13  26
ATOM     26  C   UNL     1       5.879   1.766  -0.045  0.00  0.00    +0.130 C 
BRANCH  26  27
ATOM     27  C   UNL     1       6.374   1.749  -1.493  0.00  0.00    +0.003 C 
ATOM     28  C   UNL     1       7.903   1.802  -1.509  0.00  0.00    +0.009 C 
ATOM     29  C   UNL     1       5.901   0.466  -2.179  0.00  0.00    +0.009 C 
ENDBRANCH  26  27
ENDBRANCH  13  26
TORSDOF 5
