REMARK  Name = ZINC56014490
REMARK  5 active torsions:
REMARK  status: ('A' for Active; 'I' for Inactive)
REMARK    1  A    between atoms: C_1  and  C_2
REMARK    2  A    between atoms: C_2  and  C_4
REMARK    3  A    between atoms: C_2  and  N_16
REMARK    4  A    between atoms: C_17  and  C_19
REMARK    5  A    between atoms: N_23  and  C_26
REMARK                            x       y       z     vdW  Elec       q    Type
REMARK                         _______ _______ _______ _____ _____    ______ ____
ROOT
ATOM      1  N   UNL     1       0.711  -0.489   1.189  0.00  0.00    -0.308 N 
ATOM      2  C   UNL     1       2.054  -0.600   1.174  0.00  0.00    +0.225 C 
ATOM      3  O   UNL     1       2.676  -0.297   0.177  0.00  0.00    -0.275 OA
ATOM      4  H   UNL     1       0.213  -0.731   1.986  0.00  0.00    +0.149 HD
ENDROOT
BRANCH   2   5
ATOM      5  C   UNL     1       2.783  -1.099   2.395  0.00  0.00    +0.162 C 
ATOM      6  C   UNL     1       4.302  -1.182   2.121  0.00  0.00    +0.041 C 
ATOM      7  C   UNL     1       4.695  -2.451   2.909  0.00  0.00    +0.115 C 
ATOM      8  N   UNL     1       3.473  -3.260   2.983  0.00  0.00    -0.271 N 
ATOM      9  C   UNL     1       2.380  -2.524   2.706  0.00  0.00    +0.232 C 
ATOM     10  O   UNL     1       1.241  -2.940   2.704  0.00  0.00    -0.274 OA
BRANCH   8  11
ATOM     11  C   UNL     1       3.446  -4.623   3.302  0.00  0.00    +0.036 A 
ATOM     12  C   UNL     1       4.628  -5.296   3.581  0.00  0.00    +0.025 A 
ATOM     13  C   UNL     1       4.598  -6.640   3.897  0.00  0.00    +0.022 A 
ATOM     14  C   UNL     1       3.392  -7.316   3.935  0.00  0.00    +0.041 A 
ATOM     15  C   UNL     1       2.212  -6.649   3.657  0.00  0.00    +0.022 A 
ATOM     16  C   UNL     1       2.236  -5.303   3.347  0.00  0.00    +0.025 A 
ATOM     17 CL   UNL     1       3.358  -9.006   4.331  0.00  0.00    -0.084 Cl
ENDBRANCH   8  11
ENDBRANCH   2   5
BRANCH   1  19
ATOM     18  C   UNL     1      -0.019   1.526   0.010  0.00  0.00    +0.033 C 
ATOM     19  C   UNL     1       0.002  -0.004   0.002  0.00  0.00    +0.100 C 
BRANCH  19  20
ATOM     20  C   UNL     1      -1.412  -0.526   0.013  0.00  0.00    -0.025 A 
ATOM     21  C   UNL     1      -2.121  -0.570   1.201  0.00  0.00    +0.007 A 
ATOM     22  C   UNL     1      -3.417  -1.046   1.221  0.00  0.00    +0.028 A 
ATOM     23  C   UNL     1      -4.011  -1.482   0.046  0.00  0.00    +0.067 A 
ATOM     24  C   UNL     1      -3.295  -1.438  -1.153  0.00  0.00    +0.067 A 
ATOM     25  C   UNL     1      -1.996  -0.953  -1.164  0.00  0.00    +0.033 A 
ATOM     26  N   UNL     1      -4.139  -1.932  -2.144  0.00  0.00    -0.306 N 
ATOM     27  H   UNL     1      -3.918  -2.023  -3.084  0.00  0.00    +0.170 HD
ATOM     28  C   UNL     1      -5.314  -2.262  -1.575  0.00  0.00    +0.325 A 
ATOM     29  O   UNL     1      -6.272  -2.725  -2.165  0.00  0.00    -0.247 OA
ATOM     30  N   UNL     1      -5.267  -2.002  -0.255  0.00  0.00    -0.306 N 
ATOM     31  H   UNL     1      -5.986  -2.151   0.379  0.00  0.00    +0.170 HD
ENDBRANCH  19  20
ENDBRANCH   1  19
TORSDOF 4
