REMARK  Name = ZINC65181882
REMARK  11 active torsions:
REMARK  status: ('A' for Active; 'I' for Inactive)
REMARK    1  A    between atoms: C_1  and  C_2
REMARK    2  A    between atoms: C_2  and  C_3
REMARK    3  A    between atoms: C_2  and  C_4
REMARK    4  A    between atoms: C_4  and  N_5
REMARK    5  A    between atoms: N_8  and  N_9
REMARK    6  A    between atoms: C_10  and  C_12
REMARK    7  A    between atoms: C_14  and  S_19
REMARK    8  A    between atoms: S_19  and  N_22
REMARK    9  A    between atoms: N_22  and  C_23
REMARK   10  A    between atoms: C_23  and  C_24
REMARK   11  A    between atoms: C_23  and  C_25
REMARK                            x       y       z     vdW  Elec       q    Type
REMARK                         _______ _______ _______ _____ _____    ______ ____
ROOT
ATOM      1  C   UNL     1      -3.207   1.726  -5.720  0.00  0.00    +0.058 A 
ATOM      2  C   UNL     1      -1.878   2.096  -5.505  0.00  0.00    +0.043 A 
ATOM      3  C   UNL     1      -1.205   2.827  -6.462  0.00  0.00    +0.106 A 
ATOM      4  C   UNL     1      -1.845   3.195  -7.633  0.00  0.00    +0.030 A 
ATOM      5  C   UNL     1      -3.161   2.833  -7.853  0.00  0.00    +0.022 A 
ATOM      6  C   UNL     1      -3.845   2.096  -6.907  0.00  0.00    +0.053 A 
ATOM      7 CL   UNL     1      -5.495   1.636  -7.187  0.00  0.00    -0.083 Cl
ENDROOT
BRANCH   1   9
ATOM      8  N   UNL     1      -3.316   0.589  -3.555  0.00  0.00    -0.229 N 
ATOM      9  C   UNL     1      -3.934   0.943  -4.699  0.00  0.00    +0.262 C 
ATOM     10  O   UNL     1      -5.090   0.619  -4.891  0.00  0.00    -0.269 OA
ATOM     11  H   UNL     1      -2.394   0.848  -3.402  0.00  0.00    +0.173 HD
BRANCH   8  15
ATOM     12  N   UNL     1      -2.105  -0.148  -1.230  0.00  0.00    -0.298 N 
ATOM     13  C   UNL     1      -3.387  -0.508  -1.443  0.00  0.00    +0.316 C 
ATOM     14  O   UNL     1      -3.985  -1.153  -0.604  0.00  0.00    -0.251 OA
ATOM     15  N   UNL     1      -4.005  -0.154  -2.587  0.00  0.00    -0.218 N 
ATOM     16  H   UNL     1      -1.628   0.366  -1.901  0.00  0.00    +0.150 HD
ATOM     17  H   UNL     1      -4.927  -0.413  -2.741  0.00  0.00    +0.174 HD
BRANCH  12  18
ATOM     18  C   UNL     1      -1.433  -0.534   0.013  0.00  0.00    +0.108 C 
BRANCH  18  20
ATOM     19  C   UNL     1      -0.019   1.526   0.010  0.00  0.00    +0.009 C 
ATOM     20  C   UNL     1       0.002  -0.004   0.002  0.00  0.00    -0.000 C 
ATOM     21  C   UNL     1       0.742  -0.511   1.242  0.00  0.00    +0.009 C 
ENDBRANCH  18  20
ENDBRANCH  12  18
ENDBRANCH   8  15
ENDBRANCH   1   9
BRANCH   3  22
ATOM     22  S   UNL     1       0.472   3.294  -6.192  0.00  0.00    +0.059 S 
ATOM     23  O   UNL     1       0.709   4.440  -6.997  0.00  0.00    -0.153 OA
ATOM     24  O   UNL     1       0.671   3.297  -4.785  0.00  0.00    -0.153 OA
BRANCH  22  25
ATOM     25  N   UNL     1       1.422   2.082  -6.802  0.00  0.00    -0.187 NA
ATOM     26  H   UNL     1       1.979   1.557  -6.207  0.00  0.00    +0.148 HD
BRANCH  25  27
ATOM     27  C   UNL     1       1.420   1.804  -8.240  0.00  0.00    +0.070 C 
ATOM     28  C   UNL     1       2.579   2.550  -8.905  0.00  0.00    +0.025 C 
ATOM     29  C   UNL     1       1.583   0.300  -8.469  0.00  0.00    +0.025 C 
ENDBRANCH  25  27
ENDBRANCH  22  25
ENDBRANCH   3  22
TORSDOF 7
