REMARK  Name = ZINC49975921
REMARK  6 active torsions:
REMARK  status: ('A' for Active; 'I' for Inactive)
REMARK    1  A    between atoms: C_1  and  C_2
REMARK    2  A    between atoms: C_5  and  N_9
REMARK    3  A    between atoms: C_6  and  C_8
REMARK    4  A    between atoms: N_9  and  C_10
REMARK    5  A    between atoms: C_14  and  C_16
REMARK    6  A    between atoms: C_16  and  C_18
REMARK                            x       y       z     vdW  Elec       q    Type
REMARK                         _______ _______ _______ _____ _____    ______ ____
ROOT
ATOM      1  N   UNL     1       0.059  -4.170  -0.021  0.00  0.00    -0.258 N 
ATOM      2  C   UNL     1       1.337  -4.885  -0.032  0.00  0.00    +0.140 C 
ATOM      3  C   UNL     1      -1.100  -4.859  -0.018  0.00  0.00    +0.313 C 
ATOM      4  O   UNL     1      -2.160  -4.265  -0.010  0.00  0.00    -0.252 OA
ATOM      5  N   UNL     1      -1.082  -6.207  -0.026  0.00  0.00    -0.239 N 
ATOM      6  C   UNL     1      -2.240  -6.896  -0.024  0.00  0.00    +0.238 C 
ATOM      7  O   UNL     1      -3.298  -6.304  -0.015  0.00  0.00    -0.274 OA
ATOM      8  H   UNL     1      -0.235  -6.681  -0.033  0.00  0.00    +0.159 HD
ENDROOT
BRANCH   1  13
ATOM      9  C   UNL     1      -0.018   1.503   0.010  0.00  0.00    +0.044 C 
ATOM     10  C   UNL     1       0.002  -0.004   0.002  0.00  0.00    -0.050 A 
ATOM     11  C   UNL     1       0.006  -0.688  -1.200  0.00  0.00    +0.005 A 
ATOM     12  C   UNL     1       0.025  -2.068  -1.211  0.00  0.00    +0.024 A 
ATOM     13  C   UNL     1       0.040  -2.771  -0.013  0.00  0.00    +0.040 A 
ATOM     14  C   UNL     1       0.037  -2.082   1.192  0.00  0.00    -0.029 A 
ATOM     15  C   UNL     1       0.023  -0.700   1.196  0.00  0.00    +0.008 A 
ATOM     16  C   UNL     1       0.054  -2.840   2.494  0.00  0.00    +0.045 C 
ENDBRANCH   1  13
BRANCH   6  17
ATOM     17  C   UNL     1      -2.220  -8.403  -0.032  0.00  0.00    +0.163 C 
ATOM     18  C   UNL     1      -3.228  -8.932   0.991  0.00  0.00    +0.034 C 
ATOM     19 CL   UNL     1      -2.661  -9.001  -1.675  0.00  0.00    -0.112 Cl
ENDBRANCH   6  17
TORSDOF 2
