REMARK  Name = ZINC20687165
REMARK  11 active torsions:
REMARK  status: ('A' for Active; 'I' for Inactive)
REMARK    1  A    between atoms: C_1  and  C_2
REMARK    2  A    between atoms: C_2  and  C_3
REMARK    3  A    between atoms: N_7  and  C_16
REMARK    4  A    between atoms: C_10  and  C_15
REMARK    5  A    between atoms: C_16  and  C_17
REMARK    6  A    between atoms: N_19  and  C_20
REMARK    7  A    between atoms: C_20  and  C_21
REMARK    8  A    between atoms: C_21  and  C_22
REMARK    9  A    between atoms: C_22  and  N_23
REMARK   10  A    between atoms: C_25  and  C_32
REMARK   11  A    between atoms: C_28  and  C_31
REMARK                            x       y       z     vdW  Elec       q    Type
REMARK                         _______ _______ _______ _____ _____    ______ ____
ROOT
ATOM      1  C   UNL     1       0.314  -4.605   0.778  0.00  0.00    +0.231 C 
ATOM      2  O   UNL     1       1.149  -3.726   0.816  0.00  0.00    -0.274 OA
ATOM      3  N   UNL     1       0.695  -5.892   0.661  0.00  0.00    -0.314 N 
ATOM      4  H   UNL     1       0.026  -6.595   0.630  0.00  0.00    +0.149 HD
ENDROOT
BRANCH   1   5
ATOM      5  C   UNL     1      -1.151  -4.257   0.861  0.00  0.00    +0.209 C 
BRANCH   5   9
ATOM      6  C   UNL     1      -1.433  -0.534   0.013  0.00  0.00    +0.259 C 
ATOM      7  C   UNL     1      -1.415  -2.035  -0.121  0.00  0.00    +0.261 C 
ATOM      8  O   UNL     1      -1.502  -2.550  -1.216  0.00  0.00    -0.271 OA
ATOM      9  N   UNL     1      -1.301  -2.805   0.982  0.00  0.00    -0.256 N 
ATOM     10  C   UNL     1      -1.329  -2.197   2.245  0.00  0.00    +0.079 A 
ATOM     11  C   UNL     1      -0.990  -2.916   3.380  0.00  0.00    +0.030 A 
ATOM     12  C   UNL     1      -1.010  -2.299   4.617  0.00  0.00    -0.048 A 
ATOM     13  C   UNL     1      -1.366  -0.967   4.724  0.00  0.00    +0.007 A 
ATOM     14  C   UNL     1      -1.711  -0.246   3.595  0.00  0.00    +0.048 A 
ATOM     15  C   UNL     1      -1.699  -0.859   2.354  0.00  0.00    +0.143 A 
ATOM     16  O   UNL     1      -2.066  -0.169   1.242  0.00  0.00    -0.478 OA
ATOM     17  C   UNL     1      -0.642  -3.080   5.852  0.00  0.00    +0.044 C 
BRANCH   6  19
ATOM     18  C   UNL     1      -0.019   1.526   0.010  0.00  0.00    +0.008 C 
ATOM     19  C   UNL     1       0.002  -0.004   0.002  0.00  0.00    +0.051 C 
ENDBRANCH   6  19
ENDBRANCH   5   9
ENDBRANCH   1   5
BRANCH   3  20
ATOM     20  C   UNL     1       2.118  -6.231   0.580  0.00  0.00    +0.102 C 
BRANCH  20  21
ATOM     21  C   UNL     1       2.275  -7.747   0.454  0.00  0.00    +0.000 C 
BRANCH  21  22
ATOM     22  C   UNL     1       3.761  -8.100   0.370  0.00  0.00    -0.077 C 
BRANCH  22  23
ATOM     23  N   UNL     1       3.912  -9.556   0.248  0.00  0.00    +0.380 N 
ATOM     24  C   UNL     1       3.420 -10.202   1.471  0.00  0.00    -0.076 C 
ATOM     25  C   UNL     1       3.500 -11.722   1.318  0.00  0.00    -0.031 C 
ATOM     26  C   UNL     1       4.956 -12.129   1.075  0.00  0.00    +0.003 C 
ATOM     27  C   UNL     1       5.482 -11.393  -0.161  0.00  0.00    -0.031 C 
ATOM     28  C   UNL     1       5.329  -9.885   0.048  0.00  0.00    -0.076 C 
ATOM     29  C   UNL     1       6.959 -11.734  -0.368  0.00  0.00    +0.005 C 
ATOM     30  C   UNL     1       2.987 -12.392   2.594  0.00  0.00    +0.005 C 
ATOM     31  H   UNL     1       3.377  -9.884  -0.542  0.00  0.00    -0.082 HD
ENDBRANCH  22  23
ENDBRANCH  21  22
ENDBRANCH  20  21
ENDBRANCH   3  20
TORSDOF 7
