REMARK  Name = ZINC39937565
REMARK  3 active torsions:
REMARK  status: ('A' for Active; 'I' for Inactive)
REMARK    1  A    between atoms: C_4  and  N_7
REMARK    2  A    between atoms: C_12  and  N_16
REMARK    3  A    between atoms: C_22  and  C_24
REMARK                            x       y       z     vdW  Elec       q    Type
REMARK                         _______ _______ _______ _____ _____    ______ ____
ROOT
ATOM      1  N   UNL     1       5.674  -1.879  -2.256  0.00  0.00    -0.290 NA
ATOM      2  C   UNL     1       5.446  -3.236  -2.771  0.00  0.00    +0.104 C 
ATOM      3  C   UNL     1       4.791  -3.150  -4.154  0.00  0.00    +0.123 C 
ATOM      4  N   UNL     1       5.621  -2.291  -5.012  0.00  0.00    -0.295 N 
ATOM      5  C   UNL     1       6.006  -0.965  -4.503  0.00  0.00    +0.123 C 
ATOM      6  C   UNL     1       6.613  -1.137  -3.107  0.00  0.00    +0.104 C 
ATOM      7  C   UNL     1       6.018  -2.706  -6.231  0.00  0.00    +0.244 C 
ATOM      8  O   UNL     1       6.785  -2.026  -6.885  0.00  0.00    -0.270 OA
ENDROOT
BRANCH   7   9
ATOM      9  C   UNL     1       5.520  -3.987  -6.773  0.00  0.00    +0.032 C 
ATOM     10  C   UNL     1       4.294  -4.077  -7.397  0.00  0.00    +0.005 A 
ATOM     11  C   UNL     1       3.436  -2.901  -7.547  0.00  0.00    +0.010 A 
ATOM     12  C   UNL     1       2.240  -3.040  -8.169  0.00  0.00    +0.001 A 
ATOM     13  C   UNL     1       1.813  -4.278  -8.666  0.00  0.00    +0.002 A 
ATOM     14  C   UNL     1       2.557  -5.406  -8.560  0.00  0.00    +0.024 A 
ATOM     15  C   UNL     1       3.821  -5.372  -7.930  0.00  0.00    +0.041 A 
ATOM     16  N   UNL     1       4.543  -6.479  -7.831  0.00  0.00    -0.285 N 
ATOM     17  C   UNL     1       5.737  -6.520  -7.253  0.00  0.00    +0.222 C 
ATOM     18  O   UNL     1       6.349  -7.569  -7.195  0.00  0.00    -0.275 OA
ATOM     19  C   UNL     1       6.339  -5.260  -6.673  0.00  0.00    +0.137 C 
ATOM     20  H   UNL     1       4.181  -7.300  -8.200  0.00  0.00    +0.155 HD
ENDBRANCH   7   9
BRANCH   1  25
ATOM     21  N   UNL     1       8.219  -0.083  -1.143  0.00  0.00    -0.160 N 
ATOM     22  C   UNL     1       7.009   0.400  -0.800  0.00  0.00    +0.259 C 
ATOM     23  O   UNL     1       6.757   1.578  -0.946  0.00  0.00    -0.272 OA
ATOM     24  C   UNL     1       5.969  -0.533  -0.232  0.00  0.00    +0.191 C 
ATOM     25  C   UNL     1       6.141  -1.917  -0.864  0.00  0.00    +0.126 C 
ATOM     26  C   UNL     1       7.594  -2.309  -0.834  0.00  0.00    +0.124 C 
ATOM     27  N   UNL     1       8.514  -1.439  -0.972  0.00  0.00    -0.183 NA
ATOM     28 CL   UNL     1       4.322   0.101  -0.601  0.00  0.00    -0.110 Cl
BRANCH  21  32
ATOM     29  C   UNL     1      11.093   2.476  -2.741  0.00  0.00    +0.000 A 
ATOM     30  C   UNL     1       9.806   2.484  -3.246  0.00  0.00    +0.002 A 
ATOM     31  C   UNL     1       8.851   1.637  -2.719  0.00  0.00    +0.025 A 
ATOM     32  C   UNL     1       9.185   0.777  -1.680  0.00  0.00    +0.060 A 
ATOM     33  C   UNL     1      10.479   0.772  -1.176  0.00  0.00    +0.025 A 
ATOM     34  C   UNL     1      11.429   1.621  -1.708  0.00  0.00    +0.002 A 
ENDBRANCH  21  32
ENDBRANCH   1  25
TORSDOF 3
