REMARK  Name = ZINC08894330
REMARK  4 active torsions:
REMARK  status: ('A' for Active; 'I' for Inactive)
REMARK    1  A    between atoms: C_4  and  N_7
REMARK    2  A    between atoms: N_7  and  C_8
REMARK    3  A    between atoms: C_16  and  C_18
REMARK    4  A    between atoms: C_18  and  N_19
REMARK                            x       y       z     vdW  Elec       q    Type
REMARK                         _______ _______ _______ _____ _____    ______ ____
ROOT
ATOM      1  C   UNL     1       2.647   5.642  -2.128  0.00  0.00    +0.214 C 
ENDROOT
BRANCH   1   2
ATOM      2  N   UNL     1       2.239   4.602  -1.182  0.00  0.00    -0.215 N 
ATOM      3  C   UNL     1       1.378   3.603  -1.476  0.00  0.00    +0.251 C 
ATOM      4  O   UNL     1       0.817   3.402  -2.531  0.00  0.00    -0.272 OA
ATOM      5  C   UNL     1       1.264   2.793  -0.211  0.00  0.00    +0.138 C 
ATOM      6  C   UNL     1      -0.184   2.751   0.294  0.00  0.00    +0.045 C 
ATOM      7  C   UNL     1      -0.694   1.415  -0.295  0.00  0.00    +0.038 C 
ATOM      8  C   UNL     1       0.544   0.562  -0.473  0.00  0.00    -0.042 A 
ATOM      9  C   UNL     1       1.675   1.362  -0.430  0.00  0.00    -0.012 A 
ATOM     10  C   UNL     1       2.926   0.789  -0.579  0.00  0.00    +0.006 A 
ATOM     11  C   UNL     1       3.052  -0.573  -0.770  0.00  0.00    +0.000 A 
ATOM     12  C   UNL     1       1.923  -1.371  -0.812  0.00  0.00    +0.000 A 
ATOM     13  C   UNL     1       0.673  -0.803  -0.664  0.00  0.00    +0.004 A 
ATOM     14  N   UNL     1       2.143   3.471   0.742  0.00  0.00    -0.281 N 
ATOM     15  C   UNL     1       2.672   4.522   0.083  0.00  0.00    +0.310 C 
ATOM     16  O   UNL     1       3.454   5.309   0.581  0.00  0.00    -0.252 OA
ATOM     17  H   UNL     1       2.311   3.217   1.663  0.00  0.00    +0.152 HD
ENDBRANCH   1   2
BRANCH   1  19
ATOM     18  N   UNL     1       4.372   5.942  -3.876  0.00  0.00    -0.265 N 
ATOM     19  C   UNL     1       3.873   5.188  -2.877  0.00  0.00    +0.238 C 
ATOM     20  O   UNL     1       4.412   4.142  -2.580  0.00  0.00    -0.273 OA
BRANCH  18  21
ATOM     21  C   UNL     1       3.796   7.260  -4.156  0.00  0.00    +0.104 C 
ATOM     22  C   UNL     1       3.145   7.256  -5.550  0.00  0.00    +0.047 C 
ATOM     23  C   UNL     1       2.823   8.706  -5.985  0.00  0.00    +0.168 C 
ATOM     24  S   UNL     1       4.095   9.689  -5.091  0.00  0.00    -0.029 S 
ATOM     25  O   UNL     1       3.445  10.561  -4.176  0.00  0.00    -0.174 OA
ATOM     26  O   UNL     1       5.015  10.222  -6.033  0.00  0.00    -0.174 OA
ATOM     27  C   UNL     1       4.918   8.336  -4.148  0.00  0.00    +0.188 C 
ENDBRANCH  18  21
BRANCH  18  31
ATOM     28  C   UNL     1       7.552   4.529  -6.167  0.00  0.00    +0.000 A 
ATOM     29  C   UNL     1       7.126   3.814  -5.063  0.00  0.00    +0.002 A 
ATOM     30  C   UNL     1       6.072   4.280  -4.301  0.00  0.00    +0.023 A 
ATOM     31  C   UNL     1       5.440   5.468  -4.646  0.00  0.00    +0.037 A 
ATOM     32  C   UNL     1       5.866   6.180  -5.759  0.00  0.00    +0.023 A 
ATOM     33  C   UNL     1       6.924   5.712  -6.513  0.00  0.00    +0.002 A 
ENDBRANCH  18  31
ENDBRANCH   1  19
TORSDOF 4
