REMARK  Name = ZINC43209263
REMARK  8 active torsions:
REMARK  status: ('A' for Active; 'I' for Inactive)
REMARK    1  A    between atoms: C_1  and  N_2
REMARK    2  A    between atoms: C_7  and  C_23
REMARK    3  A    between atoms: N_9  and  C_15
REMARK    4  A    between atoms: C_15  and  C_16
REMARK    5  A    between atoms: C_16  and  C_17
REMARK    6  A    between atoms: C_17  and  C_18
REMARK    7  A    between atoms: C_18  and  C_19
REMARK    8  A    between atoms: C_19  and  C_20
REMARK                            x       y       z     vdW  Elec       q    Type
REMARK                         _______ _______ _______ _____ _____    ______ ____
ROOT
ATOM      1  C   UNL     1      -1.264   1.557   0.623  0.00  0.00    +0.141 C 
ATOM      2  N   UNL     1      -0.890   0.154   0.428  0.00  0.00    -0.243 N 
ATOM      3  C   UNL     1      -1.799  -0.871   0.354  0.00  0.00    +0.230 C 
ATOM      4  O   UNL     1      -3.000  -0.785   0.218  0.00  0.00    -0.275 OA
ATOM      5  C   UNL     1      -1.009  -2.075   0.473  0.00  0.00    +0.139 C 
ATOM      6  C   UNL     1      -1.110  -3.508   0.147  0.00  0.00    +0.130 C 
ATOM      7  N   UNL     1       0.332  -3.929   0.093  0.00  0.00    -0.179 NA
ATOM      8  O   UNL     1       1.150  -2.696   0.290  0.00  0.00    -0.283 OA
ATOM      9  C   UNL     1       0.320  -1.664  -0.276  0.00  0.00    +0.241 C 
ATOM     10  C   UNL     1       0.400  -0.273   0.293  0.00  0.00    +0.253 C 
ATOM     11  O   UNL     1       1.405   0.343   0.576  0.00  0.00    -0.272 OA
ENDROOT
BRANCH   6  12
ATOM     12  C   UNL     1      -1.782  -3.708  -1.186  0.00  0.00    -0.012 A 
ATOM     13  C   UNL     1      -3.157  -3.927  -1.253  0.00  0.00    -0.011 A 
ATOM     14  C   UNL     1      -3.946  -3.965  -0.083  0.00  0.00    +0.009 A 
ATOM     15  C   UNL     1      -5.283  -4.179  -0.184  0.00  0.00    +0.001 A 
ATOM     16  C   UNL     1      -5.905  -4.365  -1.419  0.00  0.00    +0.001 A 
ATOM     17  C   UNL     1      -5.205  -4.340  -2.582  0.00  0.00    +0.010 A 
ATOM     18  C   UNL     1      -3.811  -4.121  -2.551  0.00  0.00    +0.001 A 
ATOM     19  C   UNL     1      -3.061  -4.090  -3.727  0.00  0.00    +0.056 A 
ATOM     20  C   UNL     1      -1.685  -3.872  -3.659  0.00  0.00    +0.001 A 
ATOM     21  C   UNL     1      -1.033  -3.671  -2.361  0.00  0.00    -0.011 A 
ATOM     22  C   UNL     1       0.360  -3.446  -2.330  0.00  0.00    +0.009 A 
ATOM     23  C   UNL     1       1.060  -3.415  -3.493  0.00  0.00    +0.001 A 
ATOM     24  C   UNL     1       0.438  -3.600  -4.729  0.00  0.00    +0.001 A 
ATOM     25  C   UNL     1      -0.896  -3.834  -4.828  0.00  0.00    +0.010 A 
ATOM     26 CL   UNL     1      -3.835  -4.321  -5.263  0.00  0.00    -0.082 Cl
ENDBRANCH   6  12
BRANCH   7  27
ATOM     27  C   UNL     1       0.628  -4.928   1.128  0.00  0.00    +0.115 C 
BRANCH  27  28
ATOM     28  C   UNL     1       2.067  -5.423   0.962  0.00  0.00    +0.018 C 
BRANCH  28  29
ATOM     29  C   UNL     1       2.375  -6.464   2.040  0.00  0.00    +0.002 C 
BRANCH  29  30
ATOM     30  C   UNL     1       3.814  -6.958   1.874  0.00  0.00    +0.009 C 
BRANCH  30  31
ATOM     31  C   UNL     1       4.123  -7.999   2.952  0.00  0.00    +0.095 C 
BRANCH  31  32
ATOM     32  C   UNL     1       5.539  -8.486   2.789  0.00  0.00    +0.210 C 
ATOM     33  O   UNL     1       6.234  -8.044   1.898  0.00  0.00    -0.276 OA
ATOM     34  N   UNL     1       6.035  -9.413   3.632  0.00  0.00    -0.329 N 
ATOM     35  H   UNL     1       5.479  -9.766   4.345  0.00  0.00    +0.145 HD
ATOM     36  H   UNL     1       6.947  -9.726   3.527  0.00  0.00    +0.145 HD
ENDBRANCH  31  32
ENDBRANCH  30  31
ENDBRANCH  29  30
ENDBRANCH  28  29
ENDBRANCH  27  28
ENDBRANCH   7  27
TORSDOF 7
