REMARK  Name = ZINC20709629
REMARK  4 active torsions:
REMARK  status: ('A' for Active; 'I' for Inactive)
REMARK    1  A    between atoms: C_1  and  C_2
REMARK    2  A    between atoms: C_9  and  C_18
REMARK    3  A    between atoms: C_20  and  N_25
REMARK    4  A    between atoms: C_23  and  O_24
REMARK                            x       y       z     vdW  Elec       q    Type
REMARK                         _______ _______ _______ _____ _____    ______ ____
ROOT
ATOM      1  C   UNL     1       4.178   2.072   2.589  0.00  0.00    +0.045 C 
ATOM      2  C   UNL     1       3.428   2.032   1.283  0.00  0.00    -0.029 A 
ATOM      3  C   UNL     1       4.064   2.411   0.121  0.00  0.00    +0.006 A 
ATOM      4  C   UNL     1       3.388   2.380  -1.085  0.00  0.00    +0.020 A 
ATOM      5  C   UNL     1       2.071   1.959  -1.120  0.00  0.00    +0.046 A 
ATOM      6  C   UNL     1       1.429   1.571   0.038  0.00  0.00    -0.001 A 
ATOM      7  C   UNL     1       2.097   1.611   1.265  0.00  0.00    +0.036 A 
ATOM      8  N   UNL     1       1.510   1.279   2.485  0.00  0.00    -0.336 N 
ATOM      9  C   UNL     1       0.135   0.757   2.438  0.00  0.00    +0.108 C 
ATOM     10  C   UNL     1      -0.607   1.552   1.383  0.00  0.00    +0.029 C 
ATOM     11  C   UNL     1       0.027   1.100   0.031  0.00  0.00    +0.050 C 
ATOM     12  C   UNL     1      -0.972   1.569  -0.961  0.00  0.00    -0.023 C 
ATOM     13  C   UNL     1      -2.159   1.593  -0.410  0.00  0.00    -0.030 C 
ATOM     14  C   UNL     1      -2.055   1.168   1.057  0.00  0.00    +0.033 C 
ATOM     15 CL   UNL     1       1.219   1.918  -2.632  0.00  0.00    -0.083 Cl
ATOM     16  H   UNL     1       2.024   1.389   3.451  0.00  0.00    +0.147 HD
ENDROOT
BRANCH   9  17
ATOM     17  C   UNL     1       0.152  -0.703   2.065  0.00  0.00    +0.017 A 
ATOM     18  C   UNL     1       1.207  -1.219   1.338  0.00  0.00    +0.041 A 
ATOM     19  C   UNL     1       1.223  -2.558   0.996  0.00  0.00    +0.127 A 
ATOM     20  C   UNL     1       0.183  -3.385   1.381  0.00  0.00    +0.036 A 
ATOM     21  C   UNL     1      -0.874  -2.874   2.108  0.00  0.00    +0.048 A 
ATOM     22  C   UNL     1      -0.890  -1.531   2.457  0.00  0.00    +0.122 A 
BRANCH  19  23
ATOM     23  N   UNL     1       2.355  -3.109   0.217  0.00  0.00    +0.056 N 
ATOM     24  O   UNL     1       3.271  -2.382  -0.122  0.00  0.00    -0.126 OA
ATOM     25  O   UNL     1       2.370  -4.289  -0.084  0.00  0.00    -0.126 OA
ENDBRANCH  19  23
BRANCH  22  26
ATOM     26  O   UNL     1      -1.926  -1.027   3.177  0.00  0.00    -0.506 OA
ATOM     27  H   UNL     1      -2.752  -1.685   3.488  0.00  0.00    +0.292 HD
ENDBRANCH  22  26
ENDBRANCH   9  17
TORSDOF 3
