REMARK  Name = ZINC32819982
REMARK  8 active torsions:
REMARK  status: ('A' for Active; 'I' for Inactive)
REMARK    1  A    between atoms: C_1  and  C_2
REMARK    2  A    between atoms: C_2  and  N_3
REMARK    3  A    between atoms: N_3  and  C_4
REMARK    4  A    between atoms: N_3  and  C_26
REMARK    5  A    between atoms: C_4  and  C_5
REMARK    6  A    between atoms: N_7  and  C_8
REMARK    7  A    between atoms: N_7  and  C_16
REMARK    8  A    between atoms: C_8  and  C_9
REMARK                            x       y       z     vdW  Elec       q    Type
REMARK                         _______ _______ _______ _____ _____    ______ ____
ROOT
ATOM      1  C   UNL     1      -2.807  -0.740   2.024  0.00  0.00    +0.200 C 
ATOM      2  O   UNL     1      -2.399  -1.431   1.115  0.00  0.00    -0.278 OA
ATOM      3  N   UNL     1      -3.025   0.575   1.825  0.00  0.00    -0.293 N 
ENDROOT
BRANCH   3   4
ATOM      4  C   UNL     1      -3.639   1.384   2.881  0.00  0.00    +0.038 C 
ATOM      5  C   UNL     1      -2.607   1.663   3.975  0.00  0.00    +0.029 C 
ATOM      6  C   UNL     1      -3.249   2.508   5.078  0.00  0.00    -0.008 C 
ATOM      7  C   UNL     1      -3.737   3.832   4.488  0.00  0.00    +0.007 C 
ATOM      8  C   UNL     1      -4.769   3.553   3.393  0.00  0.00    -0.008 C 
ATOM      9  C   UNL     1      -4.128   2.708   2.291  0.00  0.00    +0.029 C 
ATOM     10  C   UNL     1      -5.955   2.794   3.993  0.00  0.00    +0.007 C 
ATOM     11  C   UNL     1      -5.467   1.469   4.583  0.00  0.00    -0.008 C 
ATOM     12  C   UNL     1      -4.434   1.748   5.677  0.00  0.00    +0.007 C 
ATOM     13  C   UNL     1      -4.825   0.625   3.480  0.00  0.00    +0.029 C 
ENDBRANCH   3   4
BRANCH   1  14
ATOM     14  C   UNL     1      -3.070  -1.351   3.376  0.00  0.00    +0.019 C 
BRANCH  14  15
ATOM     15  N   UNL     1      -2.270  -2.574   3.524  0.00  0.00    +0.388 N 
ATOM     16  H   UNL     1      -1.225  -2.325   3.288  0.00  0.00    -0.081 HD
BRANCH  15  17
ATOM     17  C   UNL     1      -2.315  -3.068   4.907  0.00  0.00    -0.045 C 
ATOM     18  C   UNL     1      -1.723  -2.013   5.855  0.00  0.00    +0.009 C 
ATOM     19  C   UNL     1      -1.470  -2.637   7.249  0.00  0.00    +0.164 C 
ATOM     20  S   UNL     1      -1.180  -4.409   6.851  0.00  0.00    -0.033 S 
ATOM     21  O   UNL     1      -2.200  -5.192   7.457  0.00  0.00    -0.174 OA
ATOM     22  O   UNL     1       0.184  -4.721   7.099  0.00  0.00    -0.174 OA
ATOM     23  C   UNL     1      -1.462  -4.363   5.030  0.00  0.00    +0.151 C 
ENDBRANCH  15  17
BRANCH  15  25
ATOM     24  C   UNL     1      -4.211  -3.855   2.758  0.00  0.00    -0.017 C 
ATOM     25  C   UNL     1      -2.712  -3.610   2.581  0.00  0.00    -0.081 C 
ENDBRANCH  15  25
ENDBRANCH  14  15
ENDBRANCH   1  14
BRANCH   3  26
ATOM     26  C   UNL     1      -2.648   1.196   0.553  0.00  0.00    +0.143 C 
BRANCH  26  27
ATOM     27  C   UNL     1      -1.176   1.517   0.568  0.00  0.00    -0.030 A 
ATOM     28  C   UNL     1      -0.249   0.525   0.307  0.00  0.00    +0.006 A 
ATOM     29  C   UNL     1       1.101   0.820   0.315  0.00  0.00    +0.020 A 
ATOM     30  C   UNL     1       1.526   2.108   0.588  0.00  0.00    +0.041 A 
ATOM     31  C   UNL     1       0.598   3.100   0.855  0.00  0.00    +0.020 A 
ATOM     32  C   UNL     1      -0.752   2.803   0.847  0.00  0.00    +0.006 A 
ATOM     33 CL   UNL     1       3.221   2.480   0.597  0.00  0.00    -0.084 Cl
ENDBRANCH  26  27
ENDBRANCH   3  26
TORSDOF 7
