REMARK  Name = ZINC23220255
REMARK  3 active torsions:
REMARK  status: ('A' for Active; 'I' for Inactive)
REMARK    1  A    between atoms: C_1  and  C_2
REMARK    2  A    between atoms: N_11  and  C_15
REMARK    3  A    between atoms: C_15  and  C_16
REMARK                            x       y       z     vdW  Elec       q    Type
REMARK                         _______ _______ _______ _____ _____    ______ ____
ROOT
ATOM      1  C   UNL     1      -1.536   3.561   2.539  0.00  0.00    +0.010 C 
ATOM      2  C   UNL     1      -0.790   3.101   1.286  0.00  0.00    +0.018 C 
ATOM      3  C   UNL     1      -1.527   3.600   0.040  0.00  0.00    +0.006 C 
ATOM      4  C   UNL     1      -0.790   3.122  -1.213  0.00  0.00    +0.000 C 
ATOM      5  C   UNL     1      -0.753   1.593  -1.233  0.00  0.00    +0.003 C 
ATOM      6  C   UNL     1      -0.013   1.086   0.008  0.00  0.00    +0.035 C 
ATOM      7  C   UNL     1      -0.726   1.577   1.263  0.00  0.00    +0.115 C 
ATOM      8  C   UNL     1      -2.117   0.991   1.342  0.00  0.00    +0.247 C 
ATOM      9  O   UNL     1      -3.023   1.142   0.552  0.00  0.00    -0.273 OA
ATOM     10  N   UNL     1      -2.136   0.263   2.478  0.00  0.00    -0.224 N 
ATOM     11  C   UNL     1      -0.960   0.312   3.115  0.00  0.00    +0.309 C 
ATOM     12  O   UNL     1      -0.734  -0.264   4.161  0.00  0.00    -0.252 OA
ATOM     13  N   UNL     1      -0.056   1.072   2.468  0.00  0.00    -0.285 N 
ATOM     14  H   UNL     1       0.989   1.346   2.672  0.00  0.00    +0.151 HD
ENDROOT
BRANCH  10  15
ATOM     15  C   UNL     1      -3.301  -0.488   2.955  0.00  0.00    +0.124 C 
BRANCH  15  16
ATOM     16  C   UNL     1      -3.260  -1.908   2.386  0.00  0.00    +0.045 C 
ATOM     17  C   UNL     1      -4.455  -2.819   2.674  0.00  0.00    +0.047 C 
ATOM     18  C   UNL     1      -3.119  -3.063   3.380  0.00  0.00    +0.123 C 
ATOM     19 CL   UNL     1      -2.153  -4.494   2.861  0.00  0.00    -0.101 Cl
ATOM     20 CL   UNL     1      -3.015  -2.647   5.131  0.00  0.00    -0.101 Cl
ENDBRANCH  15  16
ENDBRANCH  10  15
TORSDOF 2
