REMARK  Name = ZINC60291462
REMARK  8 active torsions:
REMARK  status: ('A' for Active; 'I' for Inactive)
REMARK    1  A    between atoms: C_1  and  C_2
REMARK    2  A    between atoms: C_2  and  C_3
REMARK    3  A    between atoms: C_2  and  C_4
REMARK    4  A    between atoms: C_14  and  C_16
REMARK    5  A    between atoms: C_16  and  C_18
REMARK    6  A    between atoms: C_16  and  N_21
REMARK    7  A    between atoms: C_18  and  C_19
REMARK    8  A    between atoms: C_18  and  C_20
REMARK                            x       y       z     vdW  Elec       q    Type
REMARK                         _______ _______ _______ _____ _____    ______ ____
ROOT
ATOM      1  C   UNL     1      -1.154  -0.171   2.992  0.00  0.00    -0.044 A 
ATOM      2  C   UNL     1       0.148   0.273   2.851  0.00  0.00    +0.006 A 
ATOM      3  C   UNL     1       1.158  -0.310   3.590  0.00  0.00    +0.024 A 
ATOM      4  C   UNL     1       0.866  -1.342   4.474  0.00  0.00    +0.039 A 
ATOM      5  C   UNL     1      -0.439  -1.785   4.617  0.00  0.00    -0.026 A 
ATOM      6  C   UNL     1      -1.447  -1.192   3.874  0.00  0.00    +0.009 A 
ATOM      7  C   UNL     1      -0.794  -2.893   5.573  0.00  0.00    +0.038 C 
ATOM      8  C   UNL     1       0.442  -3.730   5.904  0.00  0.00    +0.024 C 
ATOM      9  C   UNL     1       1.572  -2.792   6.348  0.00  0.00    +0.114 C 
ATOM     10  N   UNL     1       1.907  -1.924   5.211  0.00  0.00    -0.270 N 
ATOM     11  C   UNL     1       3.193  -1.691   4.882  0.00  0.00    +0.241 C 
ATOM     12  O   UNL     1       3.458  -1.058   3.882  0.00  0.00    -0.273 OA
ENDROOT
BRANCH   1  14
ATOM     13  C   UNL     1      -2.332   1.957   2.510  0.00  0.00    +0.012 C 
ATOM     14  C   UNL     1      -2.257   0.464   2.185  0.00  0.00    +0.013 C 
ATOM     15  C   UNL     1      -1.968   0.282   0.693  0.00  0.00    +0.012 C 
ENDBRANCH   1  14
BRANCH  11  16
ATOM     16  C   UNL     1       4.301  -2.218   5.756  0.00  0.00    +0.165 C 
BRANCH  16  17
ATOM     17  N   UNL     1       5.587  -2.038   5.077  0.00  0.00    -0.290 N 
ATOM     18  C   UNL     1       6.569  -3.107   4.864  0.00  0.00    +0.109 C 
ATOM     19  C   UNL     1       7.519  -2.583   3.765  0.00  0.00    +0.028 C 
ATOM     20  C   UNL     1       7.379  -1.052   3.931  0.00  0.00    +0.097 C 
ATOM     21  C   UNL     1       6.016  -0.872   4.562  0.00  0.00    +0.216 C 
ATOM     22  O   UNL     1       5.400   0.172   4.601  0.00  0.00    -0.276 OA
ENDBRANCH  16  17
BRANCH  16  23
ATOM     23  C   UNL     1       4.313  -1.454   7.081  0.00  0.00    +0.012 C 
ATOM     24  C   UNL     1       5.492  -1.929   7.934  0.00  0.00    +0.009 C 
ATOM     25  C   UNL     1       4.455   0.044   6.804  0.00  0.00    +0.009 C 
ENDBRANCH  16  23
ENDBRANCH  11  16
TORSDOF 4
