REMARK  Name = ZINC65218659
REMARK  4 active torsions:
REMARK  status: ('A' for Active; 'I' for Inactive)
REMARK    1  A    between atoms: C_6  and  C_11
REMARK    2  A    between atoms: N_13  and  C_14
REMARK    3  A    between atoms: C_18  and  C_19
REMARK    4  A    between atoms: C_23  and  C_26
REMARK                            x       y       z     vdW  Elec       q    Type
REMARK                         _______ _______ _______ _____ _____    ______ ____
ROOT
ATOM      1  C   UNL     1       3.097  -2.721  -1.512  0.00  0.00    +0.244 C 
ATOM      2  O   UNL     1       3.262  -2.092  -2.536  0.00  0.00    -0.273 OA
ATOM      3  N   UNL     1       3.335  -4.048  -1.491  0.00  0.00    -0.283 N 
ATOM      4  H   UNL     1       3.262  -4.540  -0.658  0.00  0.00    +0.155 HD
ENDROOT
BRANCH   1  10
ATOM      5  C   UNL     1      -1.583  -0.136   0.271  0.00  0.00    +0.001 A 
ATOM      6  C   UNL     1      -0.852   0.989  -0.134  0.00  0.00    +0.002 A 
ATOM      7  C   UNL     1       0.467   0.939  -0.417  0.00  0.00    +0.026 A 
ATOM      8  C   UNL     1       1.178  -0.288  -0.312  0.00  0.00    +0.043 A 
ATOM      9  N   UNL     1       2.435  -0.590  -0.529  0.00  0.00    -0.370 N 
ATOM     10  C   UNL     1       2.626  -2.020  -0.264  0.00  0.00    +0.190 C 
ATOM     11  C   UNL     1       1.271  -2.549   0.152  0.00  0.00    +0.016 C 
ATOM     12  C   UNL     1       0.428  -1.492   0.114  0.00  0.00    -0.004 A 
ATOM     13  C   UNL     1      -1.004  -1.351   0.404  0.00  0.00    +0.010 A 
ATOM     14  H   UNL     1       3.124   0.029  -0.816  0.00  0.00    +0.161 HD
ENDBRANCH   1  10
BRANCH   3  15
ATOM     15  C   UNL     1       3.689  -4.718  -2.676  0.00  0.00    +0.048 A 
ATOM     16  C   UNL     1       4.455  -4.085  -3.643  0.00  0.00    +0.031 A 
ATOM     17  C   UNL     1       4.778  -4.761  -4.772  0.00  0.00    +0.047 A 
ATOM     18  S   UNL     1       3.994  -6.341  -4.497  0.00  0.00    -0.095 S 
ATOM     19  C   UNL     1       3.291  -6.000  -2.892  0.00  0.00    +0.063 A 
BRANCH  19  20
ATOM     20  C   UNL     1       2.468  -6.899  -2.006  0.00  0.00    +0.298 C 
ATOM     21  N   UNL     1       1.492  -6.109  -1.244  0.00  0.00    -0.152 NA
ATOM     22  N   UNL     1       0.386  -6.667  -1.263  0.00  0.00    -0.157 NA
ATOM     23  C   UNL     1       0.462  -7.911  -2.040  0.00  0.00    +0.263 C 
ATOM     24  O   UNL     1       1.682  -7.807  -2.806  0.00  0.00    -0.322 OA
BRANCH  23  25
ATOM     25  C   UNL     1       0.524  -9.119  -1.104  0.00  0.00    +0.042 C 
ATOM     26  C   UNL     1      -0.450 -10.269  -1.369  0.00  0.00    +0.008 C 
ATOM     27  C   UNL     1      -0.664  -9.347  -0.166  0.00  0.00    +0.008 C 
ENDBRANCH  23  25
ENDBRANCH  19  20
ENDBRANCH   3  15
TORSDOF 4
