REMARK  Name = ZINC45681785
REMARK  12 active torsions:
REMARK  status: ('A' for Active; 'I' for Inactive)
REMARK    1  A    between atoms: C_1  and  C_2
REMARK    2  A    between atoms: C_2  and  C_4
REMARK    3  A    between atoms: C_2  and  N_17
REMARK    4  A    between atoms: N_6  and  C_7
REMARK    5  A    between atoms: C_10  and  C_13
REMARK    6  A    between atoms: C_13  and  C_14
REMARK    7  A    between atoms: C_13  and  C_15
REMARK    8  A    between atoms: C_13  and  C_16
REMARK    9  A    between atoms: N_20  and  C_23
REMARK   10  A    between atoms: C_23  and  C_25
REMARK   11  A    between atoms: C_23  and  C_26
REMARK   12  A    between atoms: N_28  and  C_29
REMARK                            x       y       z     vdW  Elec       q    Type
REMARK                         _______ _______ _______ _____ _____    ______ ____
ROOT
ATOM      1  C   UNL     1       0.655   1.373   0.380  0.00  0.00    -0.004 C 
ATOM      2  C   UNL     1       0.316  -0.104   0.169  0.00  0.00    +0.017 C 
ENDROOT
BRANCH   2   3
ATOM      3  N   UNL     1       1.193  -0.665  -0.868  0.00  0.00    +0.389 N 
ATOM      4  C   UNL     1       0.955  -2.110  -0.981  0.00  0.00    -0.062 C 
ATOM      5  C   UNL     1       1.855  -2.691  -2.074  0.00  0.00    +0.066 C 
ATOM      6  N   UNL     1       3.261  -2.434  -1.734  0.00  0.00    -0.295 NA
ATOM      7  C   UNL     1       3.509  -0.992  -1.593  0.00  0.00    +0.066 C 
ATOM      8  C   UNL     1       2.595  -0.425  -0.504  0.00  0.00    -0.062 C 
ATOM      9  H   UNL     1       0.994  -0.221  -1.752  0.00  0.00    -0.081 HD
BRANCH   6  10
ATOM     10  C   UNL     1       4.161  -3.027  -2.732  0.00  0.00    +0.140 C 
ATOM     11  C   UNL     1       3.703  -2.625  -4.135  0.00  0.00    +0.034 C 
BRANCH  10  12
ATOM     12  C   UNL     1       4.132  -4.529  -2.605  0.00  0.00    +0.230 C 
ATOM     13  O   UNL     1       3.377  -5.056  -1.815  0.00  0.00    -0.274 OA
ATOM     14  N   UNL     1       4.944  -5.286  -3.369  0.00  0.00    -0.311 N 
ATOM     15  H   UNL     1       5.547  -4.864  -4.001  0.00  0.00    +0.149 HD
BRANCH  14  16
ATOM     16  C   UNL     1       4.915  -6.745  -3.246  0.00  0.00    +0.073 C 
ATOM     17  C   UNL     1       6.258  -7.478  -3.217  0.00  0.00    +0.024 C 
ATOM     18  C   UNL     1       5.365  -7.565  -4.457  0.00  0.00    +0.024 C 
ENDBRANCH  14  16
ENDBRANCH  10  12
ENDBRANCH   6  10
ENDBRANCH   2   3
BRANCH   2  19
ATOM     19  C   UNL     1      -1.122  -0.232  -0.267  0.00  0.00    +0.203 C 
ATOM     20  O   UNL     1      -1.384  -0.511  -1.417  0.00  0.00    -0.277 OA
ATOM     21  N   UNL     1      -2.115  -0.036   0.623  0.00  0.00    -0.287 N 
ATOM     22  H   UNL     1      -1.909   0.261   1.523  0.00  0.00    +0.155 HD
BRANCH  21  23
ATOM     23  C   UNL     1      -3.444  -0.262   0.248  0.00  0.00    +0.033 A 
ATOM     24  C   UNL     1      -4.349  -0.773   1.169  0.00  0.00    +0.023 A 
ATOM     25  C   UNL     1      -5.661  -0.995   0.796  0.00  0.00    +0.006 A 
ATOM     26  C   UNL     1      -6.072  -0.708  -0.493  0.00  0.00    -0.042 A 
ATOM     27  C   UNL     1      -5.173  -0.199  -1.412  0.00  0.00    +0.006 A 
ATOM     28  C   UNL     1      -3.862   0.030  -1.044  0.00  0.00    +0.023 A 
BRANCH  26  29
ATOM     29  C   UNL     1      -7.504  -0.952  -0.896  0.00  0.00    -0.013 C 
ATOM     30  C   UNL     1      -8.432  -0.112  -0.015  0.00  0.00    +0.015 C 
ATOM     31  C   UNL     1      -7.695  -0.555  -2.362  0.00  0.00    +0.015 C 
ATOM     32  C   UNL     1      -7.838  -2.434  -0.722  0.00  0.00    +0.015 C 
ENDBRANCH  26  29
ENDBRANCH  21  23
ENDBRANCH   2  19
TORSDOF 7
