REMARK  Name = ZINC01064782
REMARK  7 active torsions:
REMARK  status: ('A' for Active; 'I' for Inactive)
REMARK    1  A    between atoms: C_1  and  C_2
REMARK    2  A    between atoms: C_5  and  C_8
REMARK    3  A    between atoms: C_11  and  C_24
REMARK    4  A    between atoms: C_16  and  C_22
REMARK    5  A    between atoms: C_16  and  O_23
REMARK    6  A    between atoms: C_17  and  C_19
REMARK    7  A    between atoms: C_19  and  C_21
REMARK                            x       y       z     vdW  Elec       q    Type
REMARK                         _______ _______ _______ _____ _____    ______ ____
ROOT
ATOM      1  C   UNL     1       2.441   1.803   0.669  0.00  0.00    +0.067 C 
ATOM      2  C   UNL     1       3.703   2.403   0.121  0.00  0.00    +0.026 A 
ATOM      3  C   UNL     1       4.945   2.459   0.618  0.00  0.00    +0.138 A 
ATOM      4  O   UNL     1       5.680   3.122  -0.293  0.00  0.00    -0.359 OA
ATOM      5  N   UNL     1       5.013   3.453  -1.253  0.00  0.00    -0.083 NA
ATOM      6  C   UNL     1       3.787   3.072  -1.126  0.00  0.00    +0.090 A 
ATOM      7  C   UNL     1       2.609   3.246  -2.048  0.00  0.00    +0.094 C 
ATOM      8  C   UNL     1       1.516   2.257  -1.617  0.00  0.00    +0.079 C 
ATOM      9  C   UNL     1       1.257   2.387  -0.115  0.00  0.00    +0.098 C 
ATOM     10  C   UNL     1       0.227   2.560  -2.383  0.00  0.00    +0.042 C 
ATOM     11  C   UNL     1       5.422   1.894   1.931  0.00  0.00    +0.089 C 
ENDROOT
BRANCH   1  16
ATOM     12  C   UNL     1       1.925   3.137   6.268  0.00  0.00    +0.044 C 
ATOM     13  C   UNL     1       2.060   2.789   4.808  0.00  0.00    -0.050 A 
ATOM     14  C   UNL     1       2.095   1.465   4.414  0.00  0.00    +0.003 A 
ATOM     15  C   UNL     1       2.218   1.146   3.074  0.00  0.00    +0.004 A 
ATOM     16  C   UNL     1       2.306   2.151   2.130  0.00  0.00    -0.039 A 
ATOM     17  C   UNL     1       2.276   3.475   2.525  0.00  0.00    +0.004 A 
ATOM     18  C   UNL     1       2.148   3.795   3.863  0.00  0.00    +0.003 A 
ENDBRANCH   1  16
BRANCH   9  19
ATOM     19  C   UNL     1       0.000   1.636   0.243  0.00  0.00    +0.137 C 
ATOM     20  O   UNL     1      -0.278   0.614  -0.338  0.00  0.00    -0.297 OA
ATOM     21  C   UNL     1      -0.912   2.163   1.320  0.00  0.00    +0.086 C 
ENDBRANCH   9  19
BRANCH   8  22
ATOM     22  O   UNL     1       1.939   0.925  -1.912  0.00  0.00    -0.388 OA
ATOM     23  H   UNL     1       2.123   0.768  -2.848  0.00  0.00    +0.210 HD
ENDBRANCH   8  22
TORSDOF 3
