REMARK  Name = ZINC64053307
REMARK  8 active torsions:
REMARK  status: ('A' for Active; 'I' for Inactive)
REMARK    1  A    between atoms: C_7  and  C_10
REMARK    2  A    between atoms: C_10  and  C_11
REMARK    3  A    between atoms: C_11  and  N_12
REMARK    4  A    between atoms: N_12  and  C_13
REMARK    5  A    between atoms: C_13  and  C_14
REMARK    6  A    between atoms: C_23  and  N_24
REMARK    7  A    between atoms: C_28  and  C_31
REMARK    8  A    between atoms: C_31  and  O_32
REMARK                            x       y       z     vdW  Elec       q    Type
REMARK                         _______ _______ _______ _____ _____    ______ ____
ROOT
ATOM      1  C   UNL     1      -1.554  -6.505  -3.057  0.00  0.00    -0.024 A 
ATOM      2  C   UNL     1      -0.957  -7.730  -3.098  0.00  0.00    +0.015 A 
ATOM      3  C   UNL     1      -1.750  -8.869  -2.861  0.00  0.00    +0.004 A 
ATOM      4  C   UNL     1      -1.198 -10.160  -2.891  0.00  0.00    +0.059 A 
ATOM      5  C   UNL     1      -1.993 -11.244  -2.659  0.00  0.00    +0.167 A 
ATOM      6  C   UNL     1      -3.362 -11.082  -2.389  0.00  0.00    +0.168 A 
ATOM      7  C   UNL     1      -3.924  -9.838  -2.354  0.00  0.00    +0.078 A 
ATOM      8  C   UNL     1      -3.131  -8.704  -2.590  0.00  0.00    +0.077 A 
ATOM      9  N   UNL     1      -3.662  -7.475  -2.562  0.00  0.00    -0.232 NA
ATOM     10  C   UNL     1      -2.924  -6.406  -2.778  0.00  0.00    +0.123 A 
ATOM     11  O   UNL     1      -3.912 -12.318  -2.198  0.00  0.00    -0.453 OA
ATOM     12  C   UNL     1      -2.969 -13.251  -2.756  0.00  0.00    +0.466 C 
ATOM     13  O   UNL     1      -1.703 -12.579  -2.632  0.00  0.00    -0.453 OA
ENDROOT
BRANCH  10  14
ATOM     14  N   UNL     1      -3.517  -5.152  -2.733  0.00  0.00    -0.315 N 
ATOM     15  C   UNL     1      -3.685  -4.448  -1.454  0.00  0.00    +0.106 C 
ATOM     16  C   UNL     1      -5.157  -4.052  -1.299  0.00  0.00    +0.019 C 
ATOM     17  C   UNL     1      -5.595  -3.245  -2.523  0.00  0.00    +0.009 C 
ATOM     18  C   UNL     1      -5.457  -4.106  -3.781  0.00  0.00    +0.032 C 
ATOM     19  C   UNL     1      -3.983  -4.500  -3.965  0.00  0.00    +0.112 C 
BRANCH  18  20
ATOM     20  C   UNL     1      -5.927  -3.310  -5.000  0.00  0.00    +0.160 C 
BRANCH  20  21
ATOM     21  O   UNL     1      -7.325  -3.037  -4.880  0.00  0.00    -0.395 OA
ATOM     22  H   UNL     1      -7.692  -2.534  -5.620  0.00  0.00    +0.209 HD
ENDBRANCH  20  21
ENDBRANCH  18  20
ENDBRANCH  10  14
BRANCH   1  23
ATOM     23  C   UNL     1      -0.742  -5.260  -3.305  0.00  0.00    -0.043 C 
BRANCH  23  24
ATOM     24  N   UNL     1      -0.393  -4.639  -2.020  0.00  0.00    +0.382 N 
ATOM     25  H   UNL     1       0.095  -5.309  -1.445  0.00  0.00    -0.085 HD
ATOM     26  H   UNL     1      -1.235  -4.342  -1.550  0.00  0.00    -0.085 HD
BRANCH  24  27
ATOM     27  C   UNL     1       0.472  -3.476  -2.258  0.00  0.00    -0.078 C 
BRANCH  27  28
ATOM     28  C   UNL     1       0.836  -2.829  -0.920  0.00  0.00    +0.014 C 
BRANCH  28  35
ATOM     29  C   UNL     1      -0.047   1.653  -1.349  0.00  0.00    +0.001 A 
ATOM     30  C   UNL     1       1.096   2.432  -1.574  0.00  0.00    +0.002 A 
ATOM     31  C   UNL     1       2.335   1.903  -1.654  0.00  0.00    +0.026 A 
ATOM     32  C   UNL     1       2.529   0.501  -1.510  0.00  0.00    +0.043 A 
ATOM     33  N   UNL     1       3.610  -0.240  -1.548  0.00  0.00    -0.380 N 
ATOM     34  C   UNL     1       3.225  -1.640  -1.338  0.00  0.00    +0.144 C 
ATOM     35  C   UNL     1       1.723  -1.636  -1.164  0.00  0.00    -0.043 C 
ATOM     36  C   UNL     1       1.337  -0.344  -1.272  0.00  0.00    -0.001 A 
ATOM     37  C   UNL     1       0.025   0.311  -1.198  0.00  0.00    +0.010 A 
ATOM     38  H   UNL     1       4.513   0.084  -1.692  0.00  0.00    +0.160 HD
ENDBRANCH  28  35
ENDBRANCH  27  28
ENDBRANCH  24  27
ENDBRANCH  23  24
ENDBRANCH   1  23
TORSDOF 8
