REMARK  Name = ZINC39777186
REMARK  6 active torsions:
REMARK  status: ('A' for Active; 'I' for Inactive)
REMARK    1  A    between atoms: C_13  and  S_15
REMARK    2  A    between atoms: S_15  and  C_16
REMARK    3  A    between atoms: C_16  and  C_17
REMARK    4  A    between atoms: C_17  and  C_19
REMARK    5  A    between atoms: C_17  and  O_26
REMARK    6  A    between atoms: C_19  and  N_20
REMARK                            x       y       z     vdW  Elec       q    Type
REMARK                         _______ _______ _______ _____ _____    ______ ____
ROOT
ATOM      1  C   UNL     1      -0.064   1.328  -0.043  0.00  0.00    +0.001 A 
ATOM      2  C   UNL     1       1.099   2.109  -0.069  0.00  0.00    +0.002 A 
ATOM      3  C   UNL     1       2.331   1.551  -0.076  0.00  0.00    +0.026 A 
ATOM      4  C   UNL     1       2.457   0.089  -0.057  0.00  0.00    +0.046 A 
ATOM      5  N   UNL     1       3.505  -0.699  -0.091  0.00  0.00    -0.358 N 
ATOM      6  C   UNL     1       3.064  -2.074   0.077  0.00  0.00    +0.252 C 
ATOM      7  C   UNL     1       1.551  -2.041  -0.045  0.00  0.00    +0.117 C 
ATOM      8  C   UNL     1       1.205  -0.711  -0.042  0.00  0.00    +0.025 A 
ATOM      9  C   UNL     1      -0.031  -0.024  -0.030  0.00  0.00    +0.012 A 
ATOM     10  N   UNL     1       0.838  -3.150  -0.256  0.00  0.00    -0.147 NA
ATOM     11  N   UNL     1       1.465  -4.109  -0.869  0.00  0.00    -0.122 NA
ATOM     12  C   UNL     1       2.734  -3.965  -1.323  0.00  0.00    +0.207 C 
ATOM     13  N   UNL     1       3.544  -3.002  -0.945  0.00  0.00    -0.227 NA
ATOM     14  H   UNL     1       4.424  -0.412  -0.210  0.00  0.00    +0.162 HD
ENDROOT
BRANCH  12  15
ATOM     15  S   UNL     1       3.336  -5.143  -2.487  0.00  0.00    -0.082 S 
BRANCH  15  16
ATOM     16  C   UNL     1       5.033  -4.598  -2.825  0.00  0.00    +0.110 C 
BRANCH  16  17
ATOM     17  C   UNL     1       5.681  -5.546  -3.835  0.00  0.00    +0.139 C 
BRANCH  17  18
ATOM     18  O   UNL     1       5.705  -6.870  -3.298  0.00  0.00    -0.390 OA
ATOM     19  H   UNL     1       6.200  -6.951  -2.472  0.00  0.00    +0.210 HD
ENDBRANCH  17  18
BRANCH  17  20
ATOM     20  C   UNL     1       7.112  -5.087  -4.121  0.00  0.00    +0.116 C 
BRANCH  20  21
ATOM     21  N   UNL     1       7.731  -5.990  -5.100  0.00  0.00    -0.296 NA
ATOM     22  C   UNL     1       9.196  -5.885  -5.062  0.00  0.00    +0.112 C 
ATOM     23  C   UNL     1       9.800  -6.883  -6.054  0.00  0.00    +0.175 C 
ATOM     24  O   UNL     1       9.273  -6.630  -7.359  0.00  0.00    -0.377 OA
ATOM     25  C   UNL     1       7.848  -6.725  -7.432  0.00  0.00    +0.175 C 
ATOM     26  C   UNL     1       7.224  -5.725  -6.455  0.00  0.00    +0.112 C 
ENDBRANCH  20  21
ENDBRANCH  17  20
ENDBRANCH  16  17
ENDBRANCH  15  16
ENDBRANCH  12  15
TORSDOF 6
