REMARK  Name = ZINC65238015
REMARK  6 active torsions:
REMARK  status: ('A' for Active; 'I' for Inactive)
REMARK    1  A    between atoms: C_1  and  C_2
REMARK    2  A    between atoms: C_2  and  C_4
REMARK    3  A    between atoms: C_2  and  N_12
REMARK    4  A    between atoms: C_4  and  C_5
REMARK    5  A    between atoms: C_5  and  C_6
REMARK    6  A    between atoms: C_13  and  C_15
REMARK                            x       y       z     vdW  Elec       q    Type
REMARK                         _______ _______ _______ _____ _____    ______ ____
ROOT
ATOM      1  C   UNL     1       2.761  -1.085   2.359  0.00  0.00    +0.153 C 
ATOM      2  N   UNL     1       2.216  -1.446   3.485  0.00  0.00    -0.166 NA
ATOM      3  N   UNL     1       3.176  -1.841   4.426  0.00  0.00    -0.184 N 
ATOM      4  N   UNL     1       4.435  -1.508   3.947  0.00  0.00    -0.218 N 
ATOM      5  C   UNL     1       4.254  -1.262   2.494  0.00  0.00    +0.236 C 
ATOM      6  C   UNL     1       4.992   0.013   2.174  0.00  0.00    +0.246 C 
ATOM      7  O   UNL     1       4.635   0.698   1.239  0.00  0.00    -0.273 OA
ATOM      8  N   UNL     1       6.047   0.396   2.922  0.00  0.00    -0.282 N 
ATOM      9  C   UNL     1       6.502  -0.350   4.015  0.00  0.00    +0.059 A 
ATOM     10  C   UNL     1       5.666  -1.329   4.573  0.00  0.00    +0.072 A 
ATOM     11  C   UNL     1       6.078  -2.062   5.664  0.00  0.00    +0.029 A 
ATOM     12  C   UNL     1       7.328  -1.830   6.213  0.00  0.00    +0.040 A 
ATOM     13  C   UNL     1       8.158  -0.866   5.667  0.00  0.00    +0.125 A 
ATOM     14  C   UNL     1       7.753  -0.135   4.564  0.00  0.00    +0.063 A 
ATOM     15  F   UNL     1       9.379  -0.650   6.204  0.00  0.00    -0.205 F 
ATOM     16  H   UNL     1       2.991  -2.275   5.274  0.00  0.00    +0.193 HD
ATOM     17  H   UNL     1       6.508   1.218   2.693  0.00  0.00    +0.155 HD
ENDROOT
BRANCH   1  19
ATOM     18  N   UNL     1       0.711  -0.489   1.189  0.00  0.00    -0.308 N 
ATOM     19  C   UNL     1       2.054  -0.600   1.174  0.00  0.00    +0.262 C 
ATOM     20  O   UNL     1       2.678  -0.296   0.174  0.00  0.00    -0.269 OA
ATOM     21  H   UNL     1       0.213  -0.731   1.986  0.00  0.00    +0.149 HD
BRANCH  18  23
ATOM     22  C   UNL     1      -0.019   1.526   0.010  0.00  0.00    +0.028 C 
ATOM     23  C   UNL     1       0.002  -0.004   0.002  0.00  0.00    +0.070 C 
BRANCH  23  24
ATOM     24  C   UNL     1      -1.433  -0.534   0.013  0.00  0.00    +0.026 C 
BRANCH  24  25
ATOM     25  C   UNL     1      -1.416  -2.058  -0.121  0.00  0.00    +0.037 C 
BRANCH  25  26
ATOM     26  C   UNL     1      -2.829  -2.579  -0.111  0.00  0.00    -0.047 A 
ATOM     27  C   UNL     1      -3.432  -2.917   1.087  0.00  0.00    +0.003 A 
ATOM     28  C   UNL     1      -4.729  -3.396   1.096  0.00  0.00    +0.000 A 
ATOM     29  C   UNL     1      -5.423  -3.536  -0.091  0.00  0.00    +0.000 A 
ATOM     30  C   UNL     1      -4.821  -3.197  -1.288  0.00  0.00    +0.000 A 
ATOM     31  C   UNL     1      -3.525  -2.714  -1.297  0.00  0.00    +0.003 A 
ENDBRANCH  25  26
ENDBRANCH  24  25
ENDBRANCH  23  24
ENDBRANCH  18  23
ENDBRANCH   1  19
TORSDOF 5
