REMARK  Name = ZINC47320302
REMARK  5 active torsions:
REMARK  status: ('A' for Active; 'I' for Inactive)
REMARK    1  A    between atoms: C_1  and  C_2
REMARK    2  A    between atoms: C_2  and  C_3
REMARK    3  A    between atoms: C_2  and  C_4
REMARK    4  A    between atoms: C_2  and  C_5
REMARK    5  A    between atoms: C_8  and  C_11
REMARK                            x       y       z     vdW  Elec       q    Type
REMARK                         _______ _______ _______ _____ _____    ______ ____
ROOT
ATOM      1  C   UNL     1       2.707  -1.868  -4.752  0.00  0.00    +0.108 C 
ATOM      2  C   UNL     1       3.598  -3.080  -4.407  0.00  0.00    +0.029 C 
ATOM      3  C   UNL     1       4.859  -2.844  -5.281  0.00  0.00    +0.021 C 
ATOM      4  C   UNL     1       4.979  -1.300  -5.244  0.00  0.00    +0.110 C 
ATOM      5  N   UNL     1       3.585  -0.811  -5.275  0.00  0.00    -0.278 N 
ATOM      6  C   UNL     1       3.184   0.400  -5.710  0.00  0.00    +0.308 C 
ATOM      7  O   UNL     1       2.004   0.693  -5.689  0.00  0.00    -0.252 OA
ATOM      8  N   UNL     1       4.090   1.285  -6.169  0.00  0.00    -0.247 N 
ATOM      9  C   UNL     1       3.676   2.535  -6.617  0.00  0.00    +0.189 A 
ATOM     10  N   UNL     1       2.459   3.038  -6.669  0.00  0.00    -0.126 NA
ATOM     11  N   UNL     1       2.236   4.203  -7.107  0.00  0.00    -0.148 NA
ATOM     12  C   UNL     1       3.248   4.936  -7.524  0.00  0.00    +0.183 A 
ATOM     13  S   UNL     1       4.601   3.804  -7.231  0.00  0.00    -0.039 S 
ATOM     14  H   UNL     1       5.032   1.051  -6.186  0.00  0.00    +0.158 HD
ENDROOT
BRANCH   1  18
ATOM     15  C   UNL     1       0.707  -0.490  -1.238  0.00  0.00    -0.042 A 
ATOM     16  C   UNL     1       0.036  -1.284  -2.148  0.00  0.00    +0.004 A 
ATOM     17  C   UNL     1       0.683  -1.730  -3.286  0.00  0.00    +0.006 A 
ATOM     18  C   UNL     1       2.001  -1.381  -3.513  0.00  0.00    -0.027 A 
ATOM     19  C   UNL     1       2.672  -0.586  -2.603  0.00  0.00    +0.006 A 
ATOM     20  C   UNL     1       2.024  -0.137  -1.467  0.00  0.00    +0.004 A 
BRANCH  15  22
ATOM     21  C   UNL     1      -0.019   1.526   0.010  0.00  0.00    +0.015 C 
ATOM     22  C   UNL     1       0.002  -0.004   0.002  0.00  0.00    -0.013 C 
ATOM     23  C   UNL     1       0.742  -0.511   1.242  0.00  0.00    +0.015 C 
ATOM     24  C   UNL     1      -1.433  -0.534   0.013  0.00  0.00    +0.015 C 
ENDBRANCH  15  22
ENDBRANCH   1  18
TORSDOF 2
