REMARK  Name = ZINC37443534
REMARK  9 active torsions:
REMARK  status: ('A' for Active; 'I' for Inactive)
REMARK    1  A    between atoms: C_1  and  C_2
REMARK    2  A    between atoms: C_2  and  O_3
REMARK    3  A    between atoms: O_3  and  C_4
REMARK    4  A    between atoms: C_7  and  N_10
REMARK    5  A    between atoms: C_19  and  C_20
REMARK    6  A    between atoms: C_19  and  C_21
REMARK    7  A    between atoms: N_23  and  C_24
REMARK    8  A    between atoms: C_29  and  C_34
REMARK    9  A    between atoms: C_31  and  C_33
REMARK                            x       y       z     vdW  Elec       q    Type
REMARK                         _______ _______ _______ _____ _____    ______ ____
ROOT
ATOM      1  N   UNL     1       1.277  -5.958   1.742  0.00  0.00    -0.250 N 
ATOM      2  C   UNL     1       0.678  -6.733   0.807  0.00  0.00    +0.268 C 
ATOM      3  O   UNL     1       0.333  -6.286  -0.271  0.00  0.00    -0.268 OA
ATOM      4  C   UNL     1       0.467  -8.141   1.164  0.00  0.00    +0.109 A 
ATOM      5  C   UNL     1       0.063  -9.199   0.403  0.00  0.00    +0.079 A 
ATOM      6  C   UNL     1       0.043 -10.330   1.232  0.00  0.00    +0.153 A 
ATOM      7  C   UNL     1       0.436  -9.926   2.507  0.00  0.00    +0.088 A 
ATOM      8  N   UNL     1       0.684  -8.587   2.465  0.00  0.00    -0.331 N 
ATOM      9  C   UNL     1       1.096  -7.671   3.533  0.00  0.00    +0.158 C 
ATOM     10  C   UNL     1       1.913  -6.527   2.924  0.00  0.00    +0.133 C 
ATOM     11  C   UNL     1       3.297  -7.053   2.536  0.00  0.00    +0.044 C 
ATOM     12  C   UNL     1       0.410 -11.090   3.313  0.00  0.00    +0.067 A 
ATOM     13  C   UNL     1       0.015 -12.109   2.530  0.00  0.00    +0.198 A 
ATOM     14  O   UNL     1      -0.208 -11.656   1.285  0.00  0.00    -0.461 OA
ENDROOT
BRANCH   1  18
ATOM     15  C   UNL     1       1.319  -1.823   1.214  0.00  0.00    +0.121 A 
ATOM     16  C   UNL     1       2.513  -2.518   1.343  0.00  0.00    +0.047 A 
ATOM     17  C   UNL     1       2.500  -3.887   1.518  0.00  0.00    +0.027 A 
ATOM     18  C   UNL     1       1.291  -4.569   1.565  0.00  0.00    +0.038 A 
ATOM     19  C   UNL     1       0.096  -3.873   1.436  0.00  0.00    +0.027 A 
ATOM     20  C   UNL     1       0.111  -2.503   1.266  0.00  0.00    +0.047 A 
BRANCH  15  21
ATOM     21  O   UNL     1       1.333  -0.474   1.041  0.00  0.00    -0.492 OA
BRANCH  21  23
ATOM     22  C   UNL     1       2.427   1.667   0.798  0.00  0.00    +0.048 C 
ATOM     23  C   UNL     1       2.612   0.161   0.997  0.00  0.00    +0.225 C 
ENDBRANCH  21  23
ENDBRANCH  15  21
ENDBRANCH   1  18
BRANCH  10  24
ATOM     24  C   UNL     1       2.079  -5.443   3.957  0.00  0.00    +0.239 C 
ATOM     25  O   UNL     1       3.120  -5.344   4.571  0.00  0.00    -0.273 OA
ATOM     26  N   UNL     1       1.069  -4.584   4.200  0.00  0.00    -0.310 N 
ATOM     27  H   UNL     1       0.211  -4.708   3.765  0.00  0.00    +0.149 HD
BRANCH  26  28
ATOM     28  C   UNL     1       1.268  -3.461   5.120  0.00  0.00    +0.076 C 
ATOM     29  C   UNL     1       0.973  -3.916   6.551  0.00  0.00    +0.022 C 
ATOM     30  C   UNL     1       1.181  -2.744   7.512  0.00  0.00    +0.002 C 
ATOM     31  C   UNL     1       0.236  -1.601   7.134  0.00  0.00    +0.003 C 
ATOM     32  C   UNL     1       0.532  -1.146   5.704  0.00  0.00    -0.009 C 
ATOM     33  C   UNL     1       0.324  -2.318   4.742  0.00  0.00    +0.009 C 
ATOM     34  C   UNL     1      -1.125  -2.803   4.835  0.00  0.00    +0.009 C 
ATOM     35  C   UNL     1      -0.413  -0.003   5.326  0.00  0.00    +0.008 C 
ENDBRANCH  26  28
ENDBRANCH  10  24
TORSDOF 5
