REMARK  Name = ZINC64137295
REMARK  8 active torsions:
REMARK  status: ('A' for Active; 'I' for Inactive)
REMARK    1  A    between atoms: C_1  and  C_2
REMARK    2  A    between atoms: C_2  and  C_3
REMARK    3  A    between atoms: C_2  and  N_4
REMARK    4  A    between atoms: C_6  and  C_9
REMARK    5  A    between atoms: N_23  and  C_24
REMARK    6  A    between atoms: C_24  and  C_25
REMARK    7  A    between atoms: C_25  and  C_26
REMARK    8  A    between atoms: C_26  and  N_27
REMARK                            x       y       z     vdW  Elec       q    Type
REMARK                         _______ _______ _______ _____ _____    ______ ____
ROOT
ATOM      1  C   UNL     1      -4.505  -1.530   1.576  0.00  0.00    +0.116 C 
ATOM      2  C   UNL     1      -4.555  -3.045   1.784  0.00  0.00    +0.128 C 
ATOM      3  C   UNL     1      -5.849  -3.330   2.538  0.00  0.00    -0.035 C 
ATOM      4  C   UNL     1      -5.511  -4.023   3.616  0.00  0.00    -0.001 A 
ATOM      5  C   UNL     1      -6.319  -4.652   4.672  0.00  0.00    +0.010 A 
ATOM      6  C   UNL     1      -5.630  -5.285   5.658  0.00  0.00    +0.001 A 
ATOM      7  C   UNL     1      -4.234  -5.355   5.699  0.00  0.00    +0.002 A 
ATOM      8  C   UNL     1      -3.412  -4.811   4.766  0.00  0.00    +0.026 A 
ATOM      9  C   UNL     1      -4.020  -4.123   3.676  0.00  0.00    +0.043 A 
ATOM     10  N   UNL     1      -3.469  -3.533   2.633  0.00  0.00    -0.376 N 
ATOM     11  C   UNL     1      -7.174  -2.774   2.075  0.00  0.00    +0.049 C 
ATOM     12  C   UNL     1      -6.936  -1.279   1.790  0.00  0.00    +0.089 C 
ATOM     13  N   UNL     1      -5.760  -1.109   0.932  0.00  0.00    -0.293 NA
ATOM     14  H   UNL     1      -2.521  -3.431   2.456  0.00  0.00    +0.160 HD
ENDROOT
BRANCH   1  17
ATOM     15  N   UNL     1      -1.372  -0.511   0.012  0.00  0.00    -0.269 N 
ATOM     16  C   UNL     1      -2.142  -0.698   1.105  0.00  0.00    +0.113 A 
ATOM     17  C   UNL     1      -3.337  -1.177   0.691  0.00  0.00    +0.009 A 
ATOM     18  C   UNL     1      -3.298  -1.287  -0.702  0.00  0.00    +0.139 A 
ATOM     19  N   UNL     1      -2.122  -0.882  -1.111  0.00  0.00    -0.179 NA
BRANCH  15  21
ATOM     20  C   UNL     1      -0.019   1.526   0.010  0.00  0.00    +0.032 C 
ATOM     21  C   UNL     1       0.002  -0.004   0.002  0.00  0.00    +0.101 C 
ATOM     22  C   UNL     1       0.742  -0.511   1.242  0.00  0.00    +0.032 C 
ENDBRANCH  15  21
ENDBRANCH   1  17
BRANCH  13  23
ATOM     23  C   UNL     1      -5.662   0.271   0.439  0.00  0.00    +0.087 C 
BRANCH  23  24
ATOM     24  C   UNL     1      -6.877   0.589  -0.435  0.00  0.00    +0.039 C 
BRANCH  24  25
ATOM     25  C   UNL     1      -6.775   2.026  -0.948  0.00  0.00    +0.144 C 
BRANCH  25  26
ATOM     26  N   UNL     1      -7.938   2.330  -1.784  0.00  0.00    -0.271 N 
ATOM     27  C   UNL     1      -8.789   3.364  -1.617  0.00  0.00    +0.108 A 
ATOM     28  C   UNL     1      -9.723   3.292  -2.592  0.00  0.00    +0.041 A 
ATOM     29  C   UNL     1      -9.434   2.176  -3.384  0.00  0.00    +0.134 A 
ATOM     30  N   UNL     1      -8.361   1.602  -2.904  0.00  0.00    -0.180 NA
ENDBRANCH  25  26
ENDBRANCH  24  25
ENDBRANCH  23  24
ENDBRANCH  13  23
TORSDOF 6
