REMARK  Name = ZINC33269877
REMARK  6 active torsions:
REMARK  status: ('A' for Active; 'I' for Inactive)
REMARK    1  A    between atoms: C_1  and  C_2
REMARK    2  A    between atoms: C_3  and  C_8
REMARK    3  A    between atoms: C_4  and  C_7
REMARK    4  A    between atoms: C_14  and  C_16
REMARK    5  A    between atoms: C_18  and  C_22
REMARK    6  A    between atoms: N_19  and  C_21
REMARK                            x       y       z     vdW  Elec       q    Type
REMARK                         _______ _______ _______ _____ _____    ______ ____
ROOT
ATOM      1  C   UNL     1      -1.173  -0.948   0.009  0.00  0.00    +0.112 C 
ATOM      2  C   UNL     1      -1.332  -1.577   1.409  0.00  0.00    +0.029 C 
ATOM      3  C   UNL     1      -1.740  -3.039   1.089  0.00  0.00    +0.021 C 
ATOM      4  C   UNL     1      -0.917  -3.318  -0.193  0.00  0.00    +0.109 C 
ATOM      5  N   UNL     1      -0.937  -2.047  -0.939  0.00  0.00    -0.289 N 
ATOM      6  C   UNL     1      -0.767  -1.914  -2.269  0.00  0.00    +0.267 C 
ATOM      7  O   UNL     1      -0.804  -0.811  -2.780  0.00  0.00    -0.268 OA
ENDROOT
BRANCH   1  10
ATOM      8  C   UNL     1      -1.236   2.296   0.021  0.00  0.00    +0.069 C 
ATOM      9  C   UNL     1      -0.017   1.410   0.010  0.00  0.00    +0.086 A 
ATOM     10  C   UNL     1       0.002  -0.004   0.002  0.00  0.00    +0.037 A 
ATOM     11  C   UNL     1       1.321  -0.314  -0.012  0.00  0.00    +0.139 A 
ATOM     12  O   UNL     1       1.984   0.851  -0.012  0.00  0.00    -0.359 OA
ATOM     13  N   UNL     1       1.227   1.794   0.000  0.00  0.00    -0.083 NA
ATOM     14  C   UNL     1       1.923  -1.695  -0.026  0.00  0.00    +0.089 C 
ENDBRANCH   1  10
BRANCH   6  15
ATOM     15  C   UNL     1      -0.537  -3.108  -3.108  0.00  0.00    +0.148 A 
ATOM     16  C   UNL     1      -0.349  -3.129  -4.510  0.00  0.00    +0.066 A 
ATOM     17  C   UNL     1      -0.174  -4.432  -4.832  0.00  0.00    +0.142 A 
ATOM     18  N   UNL     1      -0.262  -5.142  -3.687  0.00  0.00    -0.262 N 
ATOM     19  N   UNL     1      -0.473  -4.357  -2.693  0.00  0.00    -0.166 NA
ATOM     20  C   UNL     1      -0.135  -6.599  -3.593  0.00  0.00    +0.173 C 
BRANCH  17  21
ATOM     21  C   UNL     1       0.067  -4.987  -6.213  0.00  0.00    +0.434 C 
ATOM     22  F   UNL     1      -1.159  -5.283  -6.817  0.00  0.00    -0.164 F 
ATOM     23  F   UNL     1       0.750  -4.040  -6.983  0.00  0.00    -0.164 F 
ATOM     24  F   UNL     1       0.835  -6.153  -6.119  0.00  0.00    -0.164 F 
ENDBRANCH  17  21
ENDBRANCH   6  15
TORSDOF 3
