REMARK  Name = ZINC40691106
REMARK  3 active torsions:
REMARK  status: ('A' for Active; 'I' for Inactive)
REMARK    1  A    between atoms: C_1  and  C_2
REMARK    2  A    between atoms: C_3  and  C_20
REMARK    3  A    between atoms: C_20  and  C_21
REMARK                            x       y       z     vdW  Elec       q    Type
REMARK                         _______ _______ _______ _____ _____    ______ ____
ROOT
ATOM      1  C   UNL     1       0.157   1.493  -0.001  0.00  0.00    +0.045 C 
ATOM      2  C   UNL     1      -0.037  -0.002   0.005  0.00  0.00    -0.025 A 
ATOM      3  C   UNL     1      -0.262  -0.661  -1.141  0.00  0.00    +0.006 A 
ATOM      4  S   UNL     1      -0.420  -2.358  -0.618  0.00  0.00    -0.073 S 
ATOM      5  C   UNL     1      -0.178  -2.133   1.125  0.00  0.00    +0.117 A 
ATOM      6  C   UNL     1       0.024  -0.745   1.251  0.00  0.00    +0.075 A 
ATOM      7  C   UNL     1       0.254  -0.269   2.580  0.00  0.00    +0.261 A 
ATOM      8  O   UNL     1       0.434   0.919   2.788  0.00  0.00    -0.267 OA
ATOM      9  N   UNL     1       0.268  -1.148   3.599  0.00  0.00    -0.294 N 
ATOM     10  H   UNL     1       0.423  -0.829   4.501  0.00  0.00    +0.172 HD
ATOM     11  C   UNL     1       0.067  -2.480   3.386  0.00  0.00    +0.199 A 
ATOM     12  N   UNL     1      -0.157  -2.946   2.175  0.00  0.00    -0.208 NA
ATOM     13  N   UNL     1       0.088  -3.346   4.451  0.00  0.00    -0.303 N 
ATOM     14  C   UNL     1      -0.013  -4.796   4.191  0.00  0.00    +0.106 C 
ATOM     15  C   UNL     1       0.956  -5.588   5.088  0.00  0.00    -0.000 C 
ATOM     16  C   UNL     1       2.267  -4.842   5.194  0.00  0.00    -0.081 C 
ATOM     17  N   UNL     1       2.243  -3.991   6.382  0.00  0.00    +0.380 N 
ATOM     18  C   UNL     1       1.701  -2.702   6.180  0.00  0.00    -0.063 C 
ATOM     19  C   UNL     1       0.214  -2.805   5.789  0.00  0.00    +0.089 C 
ATOM     20  H   UNL     1       1.702  -4.456   7.095  0.00  0.00    -0.086 HD
ATOM     21  H   UNL     1       3.188  -3.890   6.720  0.00  0.00    -0.086 HD
ENDROOT
BRANCH   3  22
ATOM     22  C   UNL     1      -0.359  -0.101  -2.537  0.00  0.00    +0.167 C 
BRANCH  22  23
ATOM     23  C   UNL     1       1.007  -0.096  -3.172  0.00  0.00    +0.361 C 
ATOM     24  O   UNL     1       1.970  -0.509  -2.550  0.00  0.00    -0.246 OA
ATOM     25  O   UNL     1       1.149   0.320  -4.309  0.00  0.00    -0.246 OA
ENDBRANCH  22  23
ENDBRANCH   3  22
TORSDOF 2
