REMARK  Name = ZINC11582551
REMARK  4 active torsions:
REMARK  status: ('A' for Active; 'I' for Inactive)
REMARK    1  A    between atoms: C_4  and  C_7
REMARK    2  A    between atoms: C_7  and  N_8
REMARK    3  A    between atoms: C_13  and  C_27
REMARK    4  A    between atoms: N_15  and  C_21
REMARK                            x       y       z     vdW  Elec       q    Type
REMARK                         _______ _______ _______ _____ _____    ______ ____
ROOT
ATOM      1  N   UNL     1       4.152  -0.952   1.338  0.00  0.00    -0.235 N 
ATOM      2  C   UNL     1       4.934  -0.080   2.053  0.00  0.00    +0.231 C 
ATOM      3  O   UNL     1       5.194   1.072   1.781  0.00  0.00    -0.275 OA
ATOM      4  C   UNL     1       5.379  -0.835   3.199  0.00  0.00    +0.145 C 
ATOM      5  C   UNL     1       5.892  -0.618   4.561  0.00  0.00    +0.157 C 
ATOM      6  N   UNL     1       5.547  -1.908   5.241  0.00  0.00    -0.244 N 
ATOM      7  O   UNL     1       4.815  -2.718   4.293  0.00  0.00    -0.257 OA
ATOM      8  C   UNL     1       4.121  -1.748   3.488  0.00  0.00    +0.249 C 
ATOM      9  C   UNL     1       3.824  -2.071   2.049  0.00  0.00    +0.254 C 
ATOM     10  O   UNL     1       3.385  -3.112   1.611  0.00  0.00    -0.272 OA
ENDROOT
BRANCH   6  11
ATOM     11  C   UNL     1       5.874  -2.263   6.551  0.00  0.00    +0.065 A 
ATOM     12  C   UNL     1       6.581  -1.379   7.357  0.00  0.00    +0.028 A 
ATOM     13  C   UNL     1       6.902  -1.733   8.652  0.00  0.00    +0.002 A 
ATOM     14  C   UNL     1       6.520  -2.967   9.148  0.00  0.00    +0.000 A 
ATOM     15  C   UNL     1       5.816  -3.849   8.350  0.00  0.00    +0.002 A 
ATOM     16  C   UNL     1       5.487  -3.499   7.055  0.00  0.00    +0.028 A 
ENDBRANCH   6  11
BRANCH   5  17
ATOM     17  C   UNL     1       7.383  -0.399   4.543  0.00  0.00    -0.022 A 
ATOM     18  C   UNL     1       8.239  -1.479   4.443  0.00  0.00    +0.006 A 
ATOM     19  C   UNL     1       9.607  -1.277   4.427  0.00  0.00    +0.000 A 
ATOM     20  C   UNL     1      10.118   0.005   4.511  0.00  0.00    +0.000 A 
ATOM     21  C   UNL     1       9.261   1.085   4.611  0.00  0.00    +0.000 A 
ATOM     22  C   UNL     1       7.893   0.884   4.622  0.00  0.00    +0.006 A 
ENDBRANCH   5  17
BRANCH   1  23
ATOM     23  C   UNL     1       3.711  -0.707  -0.038  0.00  0.00    +0.151 C 
BRANCH  23  27
ATOM     24  C   UNL     1      -0.017   1.378   0.010  0.00  0.00    +0.000 A 
ATOM     25  C   UNL     1       1.171   2.086   0.002  0.00  0.00    +0.000 A 
ATOM     26  C   UNL     1       2.377   1.411  -0.013  0.00  0.00    +0.005 A 
ATOM     27  C   UNL     1       2.396   0.029  -0.020  0.00  0.00    -0.030 A 
ATOM     28  C   UNL     1       1.208  -0.679  -0.012  0.00  0.00    +0.005 A 
ATOM     29  C   UNL     1       0.002  -0.004   0.002  0.00  0.00    +0.000 A 
ENDBRANCH  23  27
ENDBRANCH   1  23
TORSDOF 4
