REMARK  Name = ZINC15224297
REMARK  5 active torsions:
REMARK  status: ('A' for Active; 'I' for Inactive)
REMARK    1  A    between atoms: C_10  and  C_11
REMARK    2  A    between atoms: C_11  and  O_12
REMARK    3  A    between atoms: O_12  and  C_13
REMARK    4  A    between atoms: C_16  and  C_19
REMARK    5  A    between atoms: N_20  and  N_21
REMARK                            x       y       z     vdW  Elec       q    Type
REMARK                         _______ _______ _______ _____ _____    ______ ____
ROOT
ATOM      1  C   UNL     1      -3.139   6.175  -3.411  0.00  0.00    +0.121 A 
ATOM      2  C   UNL     1      -2.638   6.908  -4.479  0.00  0.00    +0.046 A 
ATOM      3  C   UNL     1      -1.280   6.946  -4.715  0.00  0.00    +0.013 A 
ATOM      4  C   UNL     1      -0.408   6.246  -3.877  0.00  0.00    -0.005 A 
ATOM      5  C   UNL     1      -0.917   5.505  -2.807  0.00  0.00    +0.013 A 
ATOM      6  C   UNL     1      -2.275   5.477  -2.576  0.00  0.00    +0.046 A 
ENDROOT
BRANCH   4   7
ATOM      7  C   UNL     1       1.044   6.283  -4.125  0.00  0.00    +0.139 C 
ATOM      8  N   UNL     1       1.530   7.093  -5.016  0.00  0.00    -0.178 NA
BRANCH   8   9
ATOM      9  N   UNL     1       0.757   8.159  -5.487  0.00  0.00    -0.127 N 
ATOM     10  C   UNL     1       0.283   9.165  -4.682  0.00  0.00    +0.246 C 
ATOM     11  O   UNL     1       0.630   9.431  -3.555  0.00  0.00    -0.273 OA
ATOM     12  C   UNL     1      -0.761   9.855  -5.518  0.00  0.00    +0.097 C 
ATOM     13  C   UNL     1      -1.115  11.314  -5.361  0.00  0.00    +0.027 C 
ATOM     14  C   UNL     1      -2.253  11.397  -6.418  0.00  0.00    -0.026 C 
ATOM     15  C   UNL     1      -1.847  11.124  -7.650  0.00  0.00    -0.026 C 
ATOM     16  C   UNL     1      -0.367  10.732  -7.869  0.00  0.00    +0.027 C 
ATOM     17  C   UNL     1       0.004   9.727  -6.852  0.00  0.00    +0.097 C 
ATOM     18  C   UNL     1       0.441   8.333  -6.818  0.00  0.00    +0.246 C 
ATOM     19  O   UNL     1       0.505   7.542  -7.727  0.00  0.00    -0.273 OA
ATOM     20  C   UNL     1       0.329  12.034  -7.352  0.00  0.00    +0.001 C 
ATOM     21  C   UNL     1      -0.117  12.347  -5.896  0.00  0.00    +0.001 C 
ATOM     22  C   UNL     1       1.328  12.044  -6.232  0.00  0.00    +0.009 C 
ENDBRANCH   8   9
ENDBRANCH   4   7
BRANCH   1  23
ATOM     23  O   UNL     1      -4.477   6.140  -3.182  0.00  0.00    -0.487 OA
BRANCH  23  24
ATOM     24  C   UNL     1      -4.925   5.368  -2.067  0.00  0.00    +0.265 C 
BRANCH  24  34
ATOM     25  C   UNL     1      -8.494   3.438   1.055  0.00  0.00    +0.001 A 
ATOM     26  C   UNL     1      -7.105   3.353   0.982  0.00  0.00    +0.001 A 
ATOM     27  C   UNL     1      -6.413   3.999   0.005  0.00  0.00    +0.009 A 
ATOM     28  C   UNL     1      -7.107   4.765  -0.948  0.00  0.00    -0.011 A 
ATOM     29  C   UNL     1      -8.520   4.851  -0.875  0.00  0.00    -0.018 A 
ATOM     30  C   UNL     1      -9.199   4.170   0.150  0.00  0.00    +0.008 A 
ATOM     31  C   UNL     1      -9.213   5.617  -1.827  0.00  0.00    +0.008 A 
ATOM     32  C   UNL     1      -8.521   6.264  -2.804  0.00  0.00    +0.001 A 
ATOM     33  C   UNL     1      -7.132   6.184  -2.873  0.00  0.00    +0.007 A 
ATOM     34  C   UNL     1      -6.427   5.447  -1.971  0.00  0.00    -0.003 A 
ENDBRANCH  24  34
ENDBRANCH  23  24
ENDBRANCH   1  23
TORSDOF 5
