REMARK  Name = ZINC13175104
REMARK  10 active torsions:
REMARK  status: ('A' for Active; 'I' for Inactive)
REMARK    1  A    between atoms: C_1  and  C_2
REMARK    2  A    between atoms: C_2  and  C_3
REMARK    3  A    between atoms: C_3  and  C_13
REMARK    4  A    between atoms: C_4  and  C_6
REMARK    5  A    between atoms: C_4  and  C_7
REMARK    6  A    between atoms: C_4  and  N_52
REMARK    7  A    between atoms: C_15  and  O_30
REMARK    8  A    between atoms: N_19  and  C_22
REMARK    9  A    between atoms: C_25  and  O_28
REMARK   10  A    between atoms: O_28  and  C_29
REMARK                            x       y       z     vdW  Elec       q    Type
REMARK                         _______ _______ _______ _____ _____    ______ ____
ROOT
ATOM      1  C   UNL     1      -0.775   3.174  -2.299  0.00  0.00    +0.200 C 
ATOM      2  C   UNL     1       0.278   2.461  -3.126  0.00  0.00    +0.198 C 
ATOM      3  N   UNL     1       0.004   2.208  -4.380  0.00  0.00    -0.131 NA
ATOM      4  C   UNL     1      -1.156   2.552  -4.948  0.00  0.00    +0.339 C 
ATOM      5  O   UNL     1      -1.314   2.272  -6.122  0.00  0.00    -0.250 OA
ATOM      6  N   UNL     1      -2.157   3.183  -4.321  0.00  0.00    -0.192 N 
ATOM      7  C   UNL     1      -2.063   3.530  -3.018  0.00  0.00    +0.245 C 
ATOM      8  O   UNL     1      -2.968   4.101  -2.449  0.00  0.00    -0.274 OA
ENDROOT
BRANCH   6   9
ATOM      9  C   UNL     1      -3.327   3.490  -5.031  0.00  0.00    +0.046 A 
ATOM     10  C   UNL     1      -3.384   4.634  -5.815  0.00  0.00    +0.027 A 
ATOM     11  C   UNL     1      -4.535   4.933  -6.518  0.00  0.00    +0.047 A 
ATOM     12  C   UNL     1      -5.638   4.096  -6.431  0.00  0.00    +0.120 A 
ATOM     13  C   UNL     1      -5.583   2.955  -5.643  0.00  0.00    +0.047 A 
ATOM     14  C   UNL     1      -4.431   2.652  -4.945  0.00  0.00    +0.027 A 
BRANCH  12  15
ATOM     15  O   UNL     1      -6.772   4.393  -7.119  0.00  0.00    -0.495 OA
ATOM     16  C   UNL     1      -6.758   5.583  -7.910  0.00  0.00    +0.277 C 
ENDBRANCH  12  15
ENDBRANCH   6   9
BRANCH   1  17
ATOM     17  C   UNL     1      -1.121   2.297  -1.123  0.00  0.00    +0.010 C 
ATOM     18  N   UNL     1      -2.374   1.926  -0.997  0.00  0.00    -0.383 N 
ATOM     19  H   UNL     1      -3.060   2.177  -1.719  0.00  0.00    +0.160 HD
BRANCH  17  21
ATOM     20  C   UNL     1       0.054   2.906   0.974  0.00  0.00    +0.010 C 
ATOM     21  C   UNL     1      -0.045   1.878  -0.154  0.00  0.00    +0.046 C 
ENDBRANCH  17  21
BRANCH  18  22
ATOM     22  C   UNL     1      -2.806   1.134   0.206  0.00  0.00    +0.106 C 
ATOM     23  C   UNL     1      -3.245  -0.256  -0.259  0.00  0.00    +0.035 C 
BRANCH  22  24
ATOM     24  C   UNL     1      -3.974   1.844   0.840  0.00  0.00    -0.026 A 
ATOM     25  C   UNL     1      -4.926   2.454   0.046  0.00  0.00    +0.005 A 
ATOM     26  C   UNL     1      -6.000   3.102   0.627  0.00  0.00    +0.000 A 
ATOM     27  C   UNL     1      -6.117   3.146   2.004  0.00  0.00    +0.000 A 
ATOM     28  C   UNL     1      -5.162   2.540   2.799  0.00  0.00    +0.000 A 
ATOM     29  C   UNL     1      -4.091   1.889   2.217  0.00  0.00    +0.005 A 
ENDBRANCH  22  24
ENDBRANCH  18  22
ENDBRANCH   1  17
BRANCH   2  30
ATOM     30  O   UNL     1       1.455   2.101  -2.588  0.00  0.00    -0.496 OA
ATOM     31  H   UNL     1       2.083   1.650  -3.168  0.00  0.00    +0.293 HD
ENDBRANCH   2  30
TORSDOF 7
