REMARK  Name = ZINC43211014
REMARK  7 active torsions:
REMARK  status: ('A' for Active; 'I' for Inactive)
REMARK    1  A    between atoms: C_1  and  C_2
REMARK    2  A    between atoms: C_5  and  C_9
REMARK    3  A    between atoms: C_7  and  C_8
REMARK    4  A    between atoms: N_17  and  C_20
REMARK    5  A    between atoms: C_23  and  C_27
REMARK    6  A    between atoms: N_29  and  C_30
REMARK    7  A    between atoms: C_30  and  C_31
REMARK                            x       y       z     vdW  Elec       q    Type
REMARK                         _______ _______ _______ _____ _____    ______ ____
ROOT
ATOM      1  C   UNL     1       0.349  -4.277   0.113  0.00  0.00    +0.130 C 
ATOM      2  C   UNL     1      -1.132  -4.628   0.163  0.00  0.00    +0.139 C 
ATOM      3  C   UNL     1      -1.080  -5.934  -0.717  0.00  0.00    +0.242 C 
ATOM      4  C   UNL     1      -2.336  -6.568  -0.366  0.00  0.00    +0.258 C 
ATOM      5  O   UNL     1      -3.043  -7.245  -1.082  0.00  0.00    -0.272 OA
ATOM      6  N   UNL     1      -2.555  -6.240   0.946  0.00  0.00    -0.208 N 
ATOM      7  C   UNL     1      -1.732  -5.232   1.394  0.00  0.00    +0.234 C 
ATOM      8  O   UNL     1      -1.526  -4.901   2.542  0.00  0.00    -0.274 OA
ATOM      9  O   UNL     1      -0.377  -5.531  -1.820  0.00  0.00    -0.282 OA
ATOM     10  N   UNL     1       0.791  -4.785  -1.223  0.00  0.00    -0.170 NA
ENDROOT
BRANCH   1  15
ATOM     11  C   UNL     1       1.092   1.443   0.462  0.00  0.00    +0.044 C 
ATOM     12  C   UNL     1       0.898  -0.049   0.371  0.00  0.00    -0.048 A 
ATOM     13  C   UNL     1      -0.015  -0.574  -0.524  0.00  0.00    +0.004 A 
ATOM     14  C   UNL     1      -0.193  -1.942  -0.608  0.00  0.00    +0.005 A 
ATOM     15  C   UNL     1       0.543  -2.785   0.203  0.00  0.00    -0.027 A 
ATOM     16  C   UNL     1       1.457  -2.260   1.098  0.00  0.00    +0.009 A 
ATOM     17  C   UNL     1       1.638  -0.892   1.178  0.00  0.00    -0.047 A 
ATOM     18  C   UNL     1       2.638  -0.320   2.149  0.00  0.00    +0.044 C 
ENDBRANCH   1  15
BRANCH   6  19
ATOM     19  C   UNL     1      -3.525  -6.856   1.749  0.00  0.00    +0.045 A 
ATOM     20  C   UNL     1      -3.689  -6.461   3.070  0.00  0.00    +0.024 A 
ATOM     21  C   UNL     1      -4.645  -7.069   3.858  0.00  0.00    +0.006 A 
ATOM     22  C   UNL     1      -5.441  -8.072   3.334  0.00  0.00    -0.032 A 
ATOM     23  C   UNL     1      -5.280  -8.468   2.018  0.00  0.00    +0.046 A 
ATOM     24  C   UNL     1      -4.328  -7.859   1.223  0.00  0.00    +0.044 A 
ATOM     25 CL   UNL     1      -6.280  -9.728   1.364  0.00  0.00    -0.083 Cl
ATOM     26  C   UNL     1      -6.483  -8.734   4.198  0.00  0.00    +0.045 C 
ENDBRANCH   6  19
BRANCH  10  27
ATOM     27  C   UNL     1       1.205  -3.679  -2.096  0.00  0.00    +0.210 C 
BRANCH  27  28
ATOM     28  C   UNL     1       1.937  -4.231  -3.293  0.00  0.00    +0.227 C 
ATOM     29  O   UNL     1       2.099  -5.427  -3.406  0.00  0.00    -0.275 OA
ATOM     30  N   UNL     1       2.412  -3.394  -4.236  0.00  0.00    -0.328 N 
ATOM     31  H   UNL     1       2.283  -2.437  -4.146  0.00  0.00    +0.145 HD
ATOM     32  H   UNL     1       2.884  -3.749  -5.006  0.00  0.00    +0.145 HD
ENDBRANCH  27  28
ENDBRANCH  10  27
TORSDOF 4
