REMARK  Name = ZINC32667880
REMARK  4 active torsions:
REMARK  status: ('A' for Active; 'I' for Inactive)
REMARK    1  A    between atoms: C_1  and  C_2
REMARK    2  A    between atoms: C_3  and  N_9
REMARK    3  A    between atoms: C_10  and  C_12
REMARK    4  A    between atoms: C_14  and  C_24
REMARK                            x       y       z     vdW  Elec       q    Type
REMARK                         _______ _______ _______ _____ _____    ______ ____
ROOT
ATOM      1  N   UNL     1       2.360   4.547   0.018  0.00  0.00    -0.282 N 
ATOM      2  C   UNL     1       2.337   5.891  -0.076  0.00  0.00    +0.262 C 
ATOM      3  O   UNL     1       1.279   6.483  -0.056  0.00  0.00    -0.271 OA
ATOM      4  H   UNL     1       3.321   4.017   0.096  0.00  0.00    +0.155 HD
ENDROOT
BRANCH   2   5
ATOM      5  C   UNL     1       3.627   6.659  -0.208  0.00  0.00    +0.299 C 
ATOM      6  C   UNL     1       4.237   6.413  -1.595  0.00  0.00    +0.220 C 
ATOM      7  O   UNL     1       3.300   6.856  -2.582  0.00  0.00    -0.481 OA
ATOM      8  C   UNL     1       2.727   8.073  -2.378  0.00  0.00    +0.163 A 
ATOM      9  C   UNL     1       2.104   8.719  -3.436  0.00  0.00    +0.049 A 
ATOM     10  C   UNL     1       1.514   9.954  -3.243  0.00  0.00    +0.004 A 
ATOM     11  C   UNL     1       1.543  10.549  -1.996  0.00  0.00    +0.004 A 
ATOM     12  C   UNL     1       2.163   9.912  -0.938  0.00  0.00    +0.049 A 
ATOM     13  C   UNL     1       2.758   8.673  -1.125  0.00  0.00    +0.163 A 
ATOM     14  O   UNL     1       3.370   8.061  -0.073  0.00  0.00    -0.472 OA
ATOM     15  C   UNL     1       4.513   4.919  -1.779  0.00  0.00    +0.056 C 
ENDBRANCH   2   5
BRANCH   1  18
ATOM     16  C   UNL     1       2.334   1.984   1.254  0.00  0.00    +0.047 C 
ATOM     17  C   UNL     1       1.105   2.570   0.610  0.00  0.00    -0.011 A 
ATOM     18  C   UNL     1       1.161   3.825   0.018  0.00  0.00    +0.038 A 
ATOM     19  C   UNL     1       0.026   4.363  -0.574  0.00  0.00    +0.023 A 
ATOM     20  C   UNL     1      -1.157   3.648  -0.572  0.00  0.00    +0.003 A 
ATOM     21  C   UNL     1      -1.209   2.397   0.013  0.00  0.00    +0.020 A 
ATOM     22  C   UNL     1      -0.081   1.860   0.608  0.00  0.00    +0.046 A 
ATOM     23 CL   UNL     1      -0.153   0.291   1.347  0.00  0.00    -0.083 Cl
ENDBRANCH   1  18
TORSDOF 2
