REMARK  Name = ZINC15944766
REMARK  4 active torsions:
REMARK  status: ('A' for Active; 'I' for Inactive)
REMARK    1  A    between atoms: C_1  and  C_2
REMARK    2  A    between atoms: C_5  and  C_11
REMARK    3  A    between atoms: C_7  and  N_8
REMARK    4  A    between atoms: N_12  and  N_13
REMARK                            x       y       z     vdW  Elec       q    Type
REMARK                         _______ _______ _______ _____ _____    ______ ____
ROOT
ATOM      1  N   UNL     1       3.757  -4.758  -0.148  0.00  0.00    -0.127 N 
ATOM      2  C   UNL     1       4.946  -4.149  -0.488  0.00  0.00    +0.246 C 
ATOM      3  O   UNL     1       5.182  -2.965  -0.555  0.00  0.00    -0.273 OA
ATOM      4  C   UNL     1       5.863  -5.298  -0.751  0.00  0.00    +0.097 C 
ATOM      5  C   UNL     1       7.379  -5.255  -0.708  0.00  0.00    +0.027 C 
ATOM      6  C   UNL     1       7.574  -6.660  -1.398  0.00  0.00    -0.026 C 
ATOM      7  C   UNL     1       7.008  -7.655  -0.740  0.00  0.00    -0.026 C 
ATOM      8  C   UNL     1       6.240  -7.375   0.562  0.00  0.00    +0.027 C 
ATOM      9  C   UNL     1       5.344  -6.208   0.389  0.00  0.00    +0.097 C 
ATOM     10  C   UNL     1       3.897  -6.111   0.070  0.00  0.00    +0.246 C 
ATOM     11  O   UNL     1       3.078  -6.992   0.047  0.00  0.00    -0.273 OA
ATOM     12  C   UNL     1       7.416  -6.772   1.425  0.00  0.00    +0.001 C 
ATOM     13  C   UNL     1       8.005  -5.557   0.664  0.00  0.00    +0.001 C 
ATOM     14  C   UNL     1       7.298  -5.362   1.978  0.00  0.00    +0.009 C 
ENDROOT
BRANCH   1  16
ATOM     15  C   UNL     1       2.498  -2.795  -0.251  0.00  0.00    +0.139 C 
ATOM     16  N   UNL     1       2.545  -4.072  -0.028  0.00  0.00    -0.178 NA
BRANCH  15  21
ATOM     17  C   UNL     1      -2.487   0.030   0.256  0.00  0.00    +0.046 C 
ATOM     18  C   UNL     1      -1.181  -0.711   0.120  0.00  0.00    -0.020 A 
ATOM     19  C   UNL     1      -1.135  -2.074   0.353  0.00  0.00    +0.006 A 
ATOM     20  C   UNL     1       0.057  -2.757   0.236  0.00  0.00    +0.010 A 
ATOM     21  C   UNL     1       1.219  -2.071  -0.124  0.00  0.00    -0.003 A 
ATOM     22  C   UNL     1       1.164  -0.696  -0.364  0.00  0.00    +0.042 A 
ATOM     23  C   UNL     1      -0.036  -0.026  -0.243  0.00  0.00    +0.130 A 
BRANCH  23  24
ATOM     24  N   UNL     1      -0.096   1.432  -0.496  0.00  0.00    +0.057 N 
ATOM     25  O   UNL     1       0.930   2.058  -0.695  0.00  0.00    -0.126 OA
ATOM     26  O   UNL     1      -1.171   2.003  -0.510  0.00  0.00    -0.126 OA
ENDBRANCH  23  24
ENDBRANCH  15  21
ENDBRANCH   1  16
TORSDOF 3
