REMARK  Name = ZINC62825610
REMARK  7 active torsions:
REMARK  status: ('A' for Active; 'I' for Inactive)
REMARK    1  A    between atoms: C_1  and  C_2
REMARK    2  A    between atoms: C_2  and  N_3
REMARK    3  A    between atoms: N_3  and  C_4
REMARK    4  A    between atoms: C_4  and  C_5
REMARK    5  A    between atoms: C_5  and  C_6
REMARK    6  A    between atoms: N_10  and  C_11
REMARK    7  A    between atoms: C_12  and  C_19
REMARK                            x       y       z     vdW  Elec       q    Type
REMARK                         _______ _______ _______ _____ _____    ______ ____
ROOT
ATOM      1  N   UNL     1       0.754   0.162   1.077  0.00  0.00    -0.285 N 
ATOM      2  C   UNL     1       2.087  -0.041   1.098  0.00  0.00    +0.307 C 
ATOM      3  O   UNL     1       2.718   0.167   2.116  0.00  0.00    -0.252 OA
ATOM      4  N   UNL     1       2.719  -0.474  -0.010  0.00  0.00    -0.268 N 
ATOM      5  H   UNL     1       2.207  -0.714  -0.799  0.00  0.00    +0.156 HD
ENDROOT
BRANCH   4   6
ATOM      6  C   UNL     1       4.107  -0.578  -0.024  0.00  0.00    +0.063 A 
ATOM      7  C   UNL     1       4.854   0.068  -1.024  0.00  0.00    +0.086 A 
ATOM      8  C   UNL     1       6.248  -0.044  -1.025  0.00  0.00    +0.032 A 
ATOM      9  C   UNL     1       6.879  -0.784  -0.049  0.00  0.00    +0.020 A 
ATOM     10  C   UNL     1       6.139  -1.421   0.936  0.00  0.00    +0.032 A 
ATOM     11  C   UNL     1       4.762  -1.315   0.954  0.00  0.00    +0.041 A 
ATOM     12 BR   UNL     1       3.767  -2.182   2.308  0.00  0.00    -0.048 Br
ATOM     13 BR   UNL     1       8.764  -0.934  -0.053  0.00  0.00    -0.050 Br
BRANCH   7  14
ATOM     14  C   UNL     1       4.173   0.856  -2.063  0.00  0.00    +0.388 C 
ATOM     15  O   UNL     1       4.816   1.332  -2.989  0.00  0.00    -0.241 OA
ATOM     16  O   UNL     1       2.964   1.036  -2.001  0.00  0.00    -0.241 OA
ENDBRANCH   7  14
ENDBRANCH   4   6
BRANCH   1  18
ATOM     17  C   UNL     1      -0.057   1.190  -0.988  0.00  0.00    +0.024 C 
ATOM     18  C   UNL     1      -0.006  -0.088  -0.149  0.00  0.00    +0.106 C 
ENDBRANCH   1  18
BRANCH   1  19
ATOM     19  C   UNL     1       0.067   0.634   2.282  0.00  0.00    +0.124 C 
BRANCH  19  20
ATOM     20  C   UNL     1      -0.387  -0.568   3.114  0.00  0.00    +0.137 C 
BRANCH  20  21
ATOM     21  C   UNL     1      -1.078  -0.095   4.324  0.00  0.00    +0.064 C 
ATOM     22  N   UNL     1      -1.611   0.271   5.258  0.00  0.00    -0.197 NA
ENDBRANCH  20  21
ENDBRANCH  19  20
ENDBRANCH   1  19
TORSDOF 6
