REMARK  Name = ZINC13265493
REMARK  6 active torsions:
REMARK  status: ('A' for Active; 'I' for Inactive)
REMARK    1  A    between atoms: C_3  and  S_9
REMARK    2  A    between atoms: C_6  and  C_7
REMARK    3  A    between atoms: S_9  and  N_12
REMARK    4  A    between atoms: N_12  and  C_13
REMARK    5  A    between atoms: C_16  and  S_20
REMARK    6  A    between atoms: S_20  and  C_21
REMARK                            x       y       z     vdW  Elec       q    Type
REMARK                         _______ _______ _______ _____ _____    ______ ____
ROOT
ATOM      1  S   UNL     1       6.843   1.852  -0.768  0.00  0.00    +0.072 S 
ATOM      2  O   UNL     1       8.157   2.342  -0.534  0.00  0.00    -0.150 OA
ATOM      3  O   UNL     1       6.435   0.548  -0.376  0.00  0.00    -0.150 OA
ENDROOT
BRANCH   1   6
ATOM      4  C   UNL     1       7.075   2.967  -4.619  0.00  0.00    +0.017 A 
ATOM      5  C   UNL     1       7.287   2.873  -3.259  0.00  0.00    +0.029 A 
ATOM      6  C   UNL     1       6.566   1.965  -2.504  0.00  0.00    +0.109 A 
ATOM      7  C   UNL     1       5.632   1.141  -3.108  0.00  0.00    +0.029 A 
ATOM      8  C   UNL     1       5.406   1.228  -4.466  0.00  0.00    +0.017 A 
ATOM      9  C   UNL     1       6.130   2.143  -5.234  0.00  0.00    +0.063 A 
BRANCH   9  10
ATOM     10  C   UNL     1       5.898   2.238  -6.689  0.00  0.00    +0.387 C 
ATOM     11  O   UNL     1       6.529   3.034  -7.354  0.00  0.00    -0.241 OA
ATOM     12  O   UNL     1       4.986   1.441  -7.279  0.00  0.00    -0.241 OA
ENDBRANCH   9  10
ENDBRANCH   1   6
BRANCH   1  13
ATOM     13  N   UNL     1       5.805   2.913  -0.036  0.00  0.00    -0.215 N 
ATOM     14  H   UNL     1       6.154   3.641   0.503  0.00  0.00    +0.174 HD
BRANCH  13  15
ATOM     15  C   UNL     1       4.422   2.762  -0.194  0.00  0.00    +0.062 A 
ATOM     16  C   UNL     1       3.868   1.491  -0.270  0.00  0.00    +0.027 A 
ATOM     17  C   UNL     1       2.503   1.341  -0.420  0.00  0.00    +0.017 A 
ATOM     18  C   UNL     1       1.686   2.461  -0.506  0.00  0.00    +0.024 A 
ATOM     19  C   UNL     1       2.240   3.732  -0.430  0.00  0.00    +0.033 A 
ATOM     20  C   UNL     1       3.605   3.882  -0.274  0.00  0.00    +0.041 A 
ATOM     21 BR   UNL     1       4.360   5.613  -0.170  0.00  0.00    -0.048 Br
BRANCH  18  22
ATOM     22  S   UNL     1      -0.054   2.269  -0.704  0.00  0.00    -0.010 S 
BRANCH  22  23
ATOM     23  C   UNL     1      -0.169   0.463  -0.737  0.00  0.00    +0.138 C 
ATOM     24  N   UNL     1      -0.242  -0.670  -0.757  0.00  0.00    -0.183 NA
ENDBRANCH  22  23
ENDBRANCH  18  22
ENDBRANCH  13  15
ENDBRANCH   1  13
TORSDOF 6
