REMARK  Name = ZINC35900384
REMARK  7 active torsions:
REMARK  status: ('A' for Active; 'I' for Inactive)
REMARK    1  A    between atoms: C_1  and  C_2
REMARK    2  A    between atoms: C_6  and  N_8
REMARK    3  A    between atoms: C_10  and  C_15
REMARK    4  A    between atoms: C_15  and  O_17
REMARK    5  A    between atoms: O_17  and  C_18
REMARK    6  A    between atoms: C_21  and  N_24
REMARK    7  A    between atoms: C_31  and  C_38
REMARK                            x       y       z     vdW  Elec       q    Type
REMARK                         _______ _______ _______ _____ _____    ______ ____
ROOT
ATOM      1  C   UNL     1      -0.656  -7.306   6.251  0.00  0.00    +0.132 A 
ATOM      2  C   UNL     1      -1.492  -7.989   5.380  0.00  0.00    +0.048 A 
ATOM      3  C   UNL     1      -2.173  -9.110   5.812  0.00  0.00    +0.027 A 
ATOM      4  C   UNL     1      -2.021  -9.553   7.119  0.00  0.00    +0.044 A 
ATOM      5  C   UNL     1      -1.184  -8.869   7.990  0.00  0.00    +0.027 A 
ATOM      6  C   UNL     1      -0.500  -7.751   7.555  0.00  0.00    +0.048 A 
ENDROOT
BRANCH   4   7
ATOM      7  N   UNL     1      -2.713 -10.691   7.559  0.00  0.00    -0.210 N 
ATOM      8  C   UNL     1      -3.545 -11.414   6.762  0.00  0.00    +0.230 C 
ATOM      9  O   UNL     1      -3.650 -11.337   5.556  0.00  0.00    -0.275 OA
ATOM     10  C   UNL     1      -4.303 -12.324   7.675  0.00  0.00    +0.088 C 
ATOM     11  C   UNL     1      -4.715 -13.695   7.193  0.00  0.00    +0.014 C 
ATOM     12  C   UNL     1      -5.418 -14.387   8.376  0.00  0.00    +0.004 C 
ATOM     13  C   UNL     1      -4.532 -14.444   9.616  0.00  0.00    -0.013 C 
ATOM     14  C   UNL     1      -3.987 -13.053   9.997  0.00  0.00    +0.016 C 
ATOM     15  C   UNL     1      -3.238 -12.541   8.790  0.00  0.00    +0.088 C 
ATOM     16  C   UNL     1      -2.613 -11.183   8.824  0.00  0.00    +0.230 C 
ATOM     17  O   UNL     1      -2.120 -10.632   9.784  0.00  0.00    -0.275 OA
ATOM     18  C   UNL     1      -5.348 -14.996  10.786  0.00  0.00    +0.007 C 
ENDBRANCH   4   7
BRANCH   1  19
ATOM     19  O   UNL     1       0.014  -6.203   5.824  0.00  0.00    -0.426 OA
BRANCH  19  20
ATOM     20  C   UNL     1      -0.677  -5.060   5.683  0.00  0.00    +0.317 C 
ATOM     21  O   UNL     1      -1.837  -5.010   6.021  0.00  0.00    -0.250 OA
BRANCH  20  24
ATOM     22  N   UNL     1      -0.185  -1.461   5.342  0.00  0.00    -0.271 N 
ATOM     23  C   UNL     1      -0.990  -2.650   5.037  0.00  0.00    +0.128 C 
ATOM     24  C   UNL     1      -0.007  -3.841   5.105  0.00  0.00    +0.125 C 
ATOM     25  C   UNL     1       1.080  -3.299   6.062  0.00  0.00    +0.112 C 
ATOM     26  C   UNL     1       0.983  -1.796   5.918  0.00  0.00    +0.221 C 
ATOM     27  O   UNL     1       1.833  -1.008   6.273  0.00  0.00    -0.275 OA
BRANCH  22  33
ATOM     28  C   UNL     1      -3.412   1.649   3.321  0.00  0.00    +0.044 C 
ATOM     29  C   UNL     1      -2.139   1.389   4.086  0.00  0.00    -0.049 A 
ATOM     30  C   UNL     1      -1.361   2.449   4.513  0.00  0.00    +0.003 A 
ATOM     31  C   UNL     1      -0.193   2.213   5.215  0.00  0.00    +0.002 A 
ATOM     32  C   UNL     1       0.200   0.918   5.492  0.00  0.00    +0.023 A 
ATOM     33  C   UNL     1      -0.580  -0.148   5.064  0.00  0.00    +0.037 A 
ATOM     34  C   UNL     1      -1.755   0.091   4.364  0.00  0.00    +0.027 A 
ENDBRANCH  22  33
ENDBRANCH  20  24
ENDBRANCH  19  20
ENDBRANCH   1  19
TORSDOF 5
