REMARK  Name = ZINC39287084
REMARK  5 active torsions:
REMARK  status: ('A' for Active; 'I' for Inactive)
REMARK    1  A    between atoms: C_1  and  C_2
REMARK    2  A    between atoms: C_2  and  N_9
REMARK    3  A    between atoms: N_9  and  C_10
REMARK    4  A    between atoms: C_10  and  N_12
REMARK    5  A    between atoms: N_12  and  C_13
REMARK                            x       y       z     vdW  Elec       q    Type
REMARK                         _______ _______ _______ _____ _____    ______ ____
ROOT
ATOM      1  C   UNL     1       1.922  -0.186  -1.487  0.00  0.00    +0.133 C 
ATOM      2  S   UNL     1       2.877   0.574  -0.286  0.00  0.00    -0.019 S 
ENDROOT
BRANCH   1   3
ATOM      3  N   UNL     1       0.625  -0.457  -1.244  0.00  0.00    -0.320 N 
ATOM      4  H   UNL     1       0.103  -0.954  -1.894  0.00  0.00    +0.148 HD
BRANCH   3   6
ATOM      5  C   UNL     1       0.060   1.528   0.044  0.00  0.00    +0.033 C 
ATOM      6  C   UNL     1       0.001  -0.000   0.000  0.00  0.00    +0.052 C 
ATOM      7  C   UNL     1      -1.464  -0.434  -0.003  0.00  0.00    +0.049 C 
ATOM      8  C   UNL     1      -1.611  -1.839   0.645  0.00  0.00    +0.168 C 
ATOM      9  S   UNL     1      -0.402  -1.668   2.030  0.00  0.00    -0.029 S 
ATOM     10  O   UNL     1      -1.015  -0.964   3.102  0.00  0.00    -0.174 OA
ATOM     11  O   UNL     1       0.210  -2.927   2.275  0.00  0.00    -0.174 OA
ATOM     12  C   UNL     1       0.805  -0.560   1.190  0.00  0.00    +0.191 C 
ENDBRANCH   3   6
ENDBRANCH   1   3
BRANCH   1  13
ATOM     13  N   UNL     1       2.469  -0.513  -2.675  0.00  0.00    -0.289 N 
ATOM     14  H   UNL     1       1.928  -0.943  -3.355  0.00  0.00    +0.151 HD
BRANCH  13  15
ATOM     15  C   UNL     1       3.879  -0.218  -2.938  0.00  0.00    +0.302 C 
ATOM     16  N   UNL     1       4.184  -0.373  -4.374  0.00  0.00    -0.286 N 
ATOM     17  C   UNL     1       5.110  -1.355  -4.415  0.00  0.00    +0.177 C 
ATOM     18  N   UNL     1       5.385  -1.793  -3.180  0.00  0.00    -0.097 NA
ATOM     19  N   UNL     1       4.747  -1.215  -2.291  0.00  0.00    -0.153 NA
ATOM     20  S   UNL     1       5.832  -1.957  -5.846  0.00  0.00    -0.015 S 
ATOM     21  H   UNL     1       3.804   0.118  -5.119  0.00  0.00    +0.151 HD
ENDBRANCH  13  15
ENDBRANCH   1  13
TORSDOF 4
