REMARK  Name = ZINC45470384
REMARK  7 active torsions:
REMARK  status: ('A' for Active; 'I' for Inactive)
REMARK    1  A    between atoms: C_1  and  N_2
REMARK    2  A    between atoms: N_2  and  C_3
REMARK    3  A    between atoms: N_2  and  C_16
REMARK    4  A    between atoms: C_3  and  C_4
REMARK    5  A    between atoms: C_9  and  O_14
REMARK    6  A    between atoms: O_14  and  C_15
REMARK    7  A    between atoms: C_16  and  C_17
REMARK                            x       y       z     vdW  Elec       q    Type
REMARK                         _______ _______ _______ _____ _____    ______ ____
ROOT
ATOM      1  C   UNL     1      -0.018   1.465   0.010  0.00  0.00    -0.095 C 
ATOM      2  N   UNL     1       0.002  -0.004   0.002  0.00  0.00    +0.385 N 
ATOM      3  H   UNL     1       0.490  -0.338   0.820  0.00  0.00    -0.081 HD
ENDROOT
BRANCH   2   4
ATOM      4  C   UNL     1      -1.376  -0.512   0.012  0.00  0.00    -0.043 C 
BRANCH   4   5
ATOM      5  C   UNL     1      -2.043  -0.130   1.309  0.00  0.00    -0.063 A 
ATOM      6  C   UNL     1      -1.956  -0.987   2.404  0.00  0.00    +0.002 A 
ATOM      7  C   UNL     1      -2.547  -0.672   3.589  0.00  0.00    +0.009 A 
ATOM      8  C   UNL     1      -3.255   0.536   3.713  0.00  0.00    -0.014 A 
ATOM      9  C   UNL     1      -3.877   0.895   4.920  0.00  0.00    +0.054 A 
ATOM     10  C   UNL     1      -4.556   2.077   5.005  0.00  0.00    +0.121 A 
ATOM     11  C   UNL     1      -4.642   2.935   3.904  0.00  0.00    +0.046 A 
ATOM     12  C   UNL     1      -4.051   2.616   2.721  0.00  0.00    +0.012 A 
ATOM     13  C   UNL     1      -3.343   1.408   2.599  0.00  0.00    -0.017 A 
ATOM     14  C   UNL     1      -2.716   1.050   1.393  0.00  0.00    +0.010 A 
BRANCH  10  15
ATOM     15  O   UNL     1      -5.157   2.423   6.173  0.00  0.00    -0.495 OA
ATOM     16  C   UNL     1      -5.853   3.671   6.200  0.00  0.00    +0.277 C 
ENDBRANCH  10  15
ENDBRANCH   4   5
ENDBRANCH   2   4
BRANCH   2  17
ATOM     17  C   UNL     1       0.690  -0.478  -1.207  0.00  0.00    -0.001 C 
BRANCH  17  18
ATOM     18  C   UNL     1       2.137  -0.060  -1.158  0.00  0.00    +0.118 A 
ATOM     19  N   UNL     1       2.483   1.106  -1.671  0.00  0.00    -0.193 NA
ATOM     20  C   UNL     1       3.743   1.521  -1.653  0.00  0.00    +0.316 A 
ATOM     21  O   UNL     1       4.083   2.721  -2.183  0.00  0.00    -0.262 OA
ATOM     22  C   UNL     1       4.715   0.697  -1.076  0.00  0.00    +0.220 A 
ATOM     23  C   UNL     1       4.300  -0.530  -0.545  0.00  0.00    +0.124 A 
ATOM     24  N   UNL     1       3.015  -0.867  -0.600  0.00  0.00    -0.230 NA
ATOM     25  C   UNL     1       5.519  -1.167  -0.018  0.00  0.00    +0.046 A 
ATOM     26  C   UNL     1       5.782  -2.374   0.623  0.00  0.00    +0.014 A 
ATOM     27  C   UNL     1       7.071  -2.682   1.000  0.00  0.00    +0.001 A 
ATOM     28  C   UNL     1       8.103  -1.792   0.744  0.00  0.00    +0.004 A 
ATOM     29  C   UNL     1       7.855  -0.593   0.112  0.00  0.00    +0.047 A 
ATOM     30  C   UNL     1       6.562  -0.265  -0.278  0.00  0.00    +0.138 A 
ATOM     31  O   UNL     1       6.046   0.818  -0.901  0.00  0.00    -0.448 OA
ENDBRANCH  17  18
ENDBRANCH   2  17
TORSDOF 5
