REMARK  Name = ZINC61795696
REMARK  6 active torsions:
REMARK  status: ('A' for Active; 'I' for Inactive)
REMARK    1  A    between atoms: C_1  and  C_2
REMARK    2  A    between atoms: C_5  and  C_8
REMARK    3  A    between atoms: C_8  and  C_9
REMARK    4  A    between atoms: C_8  and  N_15
REMARK    5  A    between atoms: N_18  and  N_19
REMARK    6  A    between atoms: C_20  and  C_22
REMARK                            x       y       z     vdW  Elec       q    Type
REMARK                         _______ _______ _______ _____ _____    ______ ____
ROOT
ATOM      1  N   UNL     1      -0.816  -4.781   1.039  0.00  0.00    -0.287 N 
ATOM      2  C   UNL     1      -1.361  -6.009   0.935  0.00  0.00    +0.317 C 
ATOM      3  O   UNL     1      -1.125  -6.698  -0.039  0.00  0.00    -0.251 OA
ATOM      4  N   UNL     1      -2.166  -6.474   1.910  0.00  0.00    -0.218 N 
ATOM      5  H   UNL     1      -1.004  -4.231   1.816  0.00  0.00    +0.151 HD
ATOM      6  H   UNL     1      -2.558  -7.359   1.835  0.00  0.00    +0.174 HD
ENDROOT
BRANCH   4   7
ATOM      7  N   UNL     1      -2.437  -5.681   3.032  0.00  0.00    -0.229 N 
ATOM      8  C   UNL     1      -3.243  -6.146   4.008  0.00  0.00    +0.263 C 
ATOM      9  O   UNL     1      -3.734  -7.254   3.913  0.00  0.00    -0.269 OA
ATOM     10  H   UNL     1      -2.046  -4.797   3.107  0.00  0.00    +0.173 HD
BRANCH   8  11
ATOM     11  C   UNL     1      -3.529  -5.311   5.188  0.00  0.00    +0.076 A 
ATOM     12  C   UNL     1      -4.373  -5.660   6.340  0.00  0.00    +0.054 A 
ATOM     13  C   UNL     1      -4.337  -4.598   7.159  0.00  0.00    +0.195 A 
ATOM     14  O   UNL     1      -3.557  -3.650   6.615  0.00  0.00    -0.470 OA
ATOM     15  C   UNL     1      -3.059  -4.056   5.443  0.00  0.00    +0.208 A 
ENDBRANCH   8  11
ENDBRANCH   4   7
BRANCH   1  16
ATOM     16  C   UNL     1       0.059  -4.275  -0.021  0.00  0.00    +0.135 C 
BRANCH  16  21
ATOM     17  C   UNL     1      -0.018   1.503   0.010  0.00  0.00    +0.044 C 
ATOM     18  C   UNL     1       0.002  -0.004   0.002  0.00  0.00    -0.050 A 
ATOM     19  C   UNL     1       0.006  -0.689  -1.199  0.00  0.00    +0.004 A 
ATOM     20  C   UNL     1       0.025  -2.071  -1.206  0.00  0.00    +0.006 A 
ATOM     21  C   UNL     1       0.040  -2.768  -0.013  0.00  0.00    -0.023 A 
ATOM     22  C   UNL     1       0.037  -2.084   1.188  0.00  0.00    +0.006 A 
ATOM     23  C   UNL     1       0.023  -0.702   1.195  0.00  0.00    +0.004 A 
ENDBRANCH  16  21
BRANCH  16  24
ATOM     24  C   UNL     1       1.466  -4.761   0.215  0.00  0.00    -0.023 A 
ATOM     25  C   UNL     1       1.977  -4.801   1.499  0.00  0.00    +0.006 A 
ATOM     26  C   UNL     1       3.268  -5.246   1.715  0.00  0.00    +0.000 A 
ATOM     27  C   UNL     1       4.047  -5.652   0.648  0.00  0.00    +0.000 A 
ATOM     28  C   UNL     1       3.536  -5.613  -0.635  0.00  0.00    +0.000 A 
ATOM     29  C   UNL     1       2.244  -5.171  -0.852  0.00  0.00    +0.006 A 
ENDBRANCH  16  24
ENDBRANCH   1  16
TORSDOF 5
