REMARK  Name = ZINC14477482
REMARK  3 active torsions:
REMARK  status: ('A' for Active; 'I' for Inactive)
REMARK    1  A    between atoms: C_3  and  C_9
REMARK    2  A    between atoms: C_19  and  N_26
REMARK    3  A    between atoms: C_22  and  O_25
REMARK                            x       y       z     vdW  Elec       q    Type
REMARK                         _______ _______ _______ _____ _____    ______ ____
ROOT
ATOM      1  C   UNL     1       2.779   2.146  -0.041  0.00  0.00    +0.106 C 
ATOM      2  C   UNL     1       3.271   2.126  -1.457  0.00  0.00    +0.029 C 
ATOM      3  C   UNL     1       4.809   2.041  -1.543  0.00  0.00    +0.033 C 
ATOM      4  C   UNL     1       5.135   2.713  -2.860  0.00  0.00    -0.030 C 
ATOM      5  C   UNL     1       4.130   3.439  -3.275  0.00  0.00    -0.023 C 
ATOM      6  C   UNL     1       2.998   3.382  -2.280  0.00  0.00    +0.051 C 
ATOM      7  C   UNL     1       3.033   4.643  -1.463  0.00  0.00    +0.014 A 
ATOM      8  C   UNL     1       3.106   5.859  -2.132  0.00  0.00    +0.132 A 
ATOM      9  C   UNL     1       3.152   7.045  -1.429  0.00  0.00    +0.037 A 
ATOM     10  C   UNL     1       3.128   7.035  -0.046  0.00  0.00    +0.049 A 
ATOM     11  C   UNL     1       3.052   5.830   0.630  0.00  0.00    +0.138 A 
ATOM     12  C   UNL     1       2.999   4.630  -0.083  0.00  0.00    +0.076 A 
ATOM     13  N   UNL     1       2.870   3.438   0.607  0.00  0.00    -0.334 N 
ATOM     14  H   UNL     1       2.872   3.473   1.577  0.00  0.00    +0.147 HD
ENDROOT
BRANCH   1  17
ATOM     15  C   UNL     1      -0.994   2.249   0.004  0.00  0.00    +0.020 A 
ATOM     16  C   UNL     1       0.328   2.651  -0.006  0.00  0.00    +0.008 A 
ATOM     17  C   UNL     1       1.338   1.707  -0.029  0.00  0.00    -0.009 A 
ATOM     18  C   UNL     1       1.025   0.359  -0.043  0.00  0.00    +0.047 A 
ATOM     19  C   UNL     1      -0.298  -0.044  -0.033  0.00  0.00    +0.040 A 
ATOM     20  C   UNL     1      -1.308   0.902  -0.010  0.00  0.00    +0.042 A 
ATOM     21 CL   UNL     1      -2.969   0.397   0.003  0.00  0.00    -0.083 Cl
ATOM     22 CL   UNL     1       2.293  -0.826  -0.073  0.00  0.00    -0.083 Cl
ENDBRANCH   1  17
BRANCH   8  23
ATOM     23  N   UNL     1       3.135   5.881  -3.612  0.00  0.00    +0.057 N 
ATOM     24  O   UNL     1       3.873   6.644  -4.191  0.00  0.00    -0.126 OA
ATOM     25  O   UNL     1       2.420   5.137  -4.242  0.00  0.00    -0.126 OA
ENDBRANCH   8  23
BRANCH  11  26
ATOM     26  O   UNL     1       3.029   5.814   1.990  0.00  0.00    -0.505 OA
ATOM     27  H   UNL     1       2.141   5.857   2.369  0.00  0.00    +0.292 HD
ENDBRANCH  11  26
TORSDOF 3
