REMARK  Name = ZINC02464616
REMARK  7 active torsions:
REMARK  status: ('A' for Active; 'I' for Inactive)
REMARK    1  A    between atoms: C_1  and  C_2
REMARK    2  A    between atoms: C_3  and  C_23
REMARK    3  A    between atoms: C_4  and  C_12
REMARK    4  A    between atoms: C_17  and  O_18
REMARK    5  A    between atoms: O_18  and  C_19
REMARK    6  A    between atoms: C_23  and  O_25
REMARK    7  A    between atoms: O_25  and  C_26
REMARK                            x       y       z     vdW  Elec       q    Type
REMARK                         _______ _______ _______ _____ _____    ______ ____
ROOT
ATOM      1  C   UNL     1       1.222   3.761  -0.015  0.00  0.00    +0.061 C 
ATOM      2  C   UNL     1       1.220   2.254  -0.003  0.00  0.00    +0.020 C 
ATOM      3  C   UNL     1       0.044   1.608   0.029  0.00  0.00    +0.082 C 
ATOM      4  C   UNL     1      -0.069   0.107   0.031  0.00  0.00    +0.183 C 
ATOM      5  N   UNL     1       1.245  -0.479   0.284  0.00  0.00    -0.221 N 
ATOM      6  C   UNL     1       2.402   0.228   0.247  0.00  0.00    +0.218 A 
ATOM      7  N   UNL     1       3.383  -0.591   0.509  0.00  0.00    -0.201 NA
ATOM      8  C   UNL     1       2.897  -1.818   0.721  0.00  0.00    +0.247 A 
ATOM      9  N   UNL     1       1.593  -1.793   0.594  0.00  0.00    -0.156 NA
ATOM     10  N   UNL     1       2.420   1.589  -0.027  0.00  0.00    -0.287 N 
ATOM     11  H   UNL     1       3.347   2.135  -0.257  0.00  0.00    +0.155 HD
ENDROOT
BRANCH   4  12
ATOM     12  C   UNL     1      -0.578  -0.360  -1.308  0.00  0.00    +0.025 A 
ATOM     13  C   UNL     1       0.136  -0.076  -2.456  0.00  0.00    +0.029 A 
ATOM     14  C   UNL     1      -0.329  -0.510  -3.685  0.00  0.00    +0.042 A 
ATOM     15  C   UNL     1      -1.515  -1.218  -3.768  0.00  0.00    +0.023 A 
ATOM     16  C   UNL     1      -2.233  -1.500  -2.623  0.00  0.00    +0.047 A 
ATOM     17  C   UNL     1      -1.766  -1.071  -1.389  0.00  0.00    +0.132 A 
ATOM     18 CL   UNL     1       0.573  -0.157  -5.126  0.00  0.00    -0.084 Cl
BRANCH  17  19
ATOM     19  O   UNL     1      -2.473  -1.347  -0.261  0.00  0.00    -0.434 OA
BRANCH  19  20
ATOM     20  C   UNL     1      -3.687  -2.083  -0.419  0.00  0.00    +0.541 C 
ATOM     21  F   UNL     1      -4.561  -1.367  -1.245  0.00  0.00    -0.166 F 
ATOM     22  F   UNL     1      -3.408  -3.324  -1.001  0.00  0.00    -0.166 F 
ENDBRANCH  19  20
ENDBRANCH  17  19
ENDBRANCH   4  12
BRANCH   3  23
ATOM     23  C   UNL     1      -1.144   2.372   0.058  0.00  0.00    +0.339 C 
ATOM     24  O   UNL     1      -1.086   3.583   0.162  0.00  0.00    -0.245 OA
BRANCH  23  25
ATOM     25  O   UNL     1      -2.343   1.759  -0.029  0.00  0.00    -0.458 OA
BRANCH  25  26
ATOM     26  C   UNL     1      -3.502   2.594   0.006  0.00  0.00    +0.177 C 
ATOM     27  C   UNL     1      -3.959   2.771   1.455  0.00  0.00    +0.044 C 
ATOM     28  C   UNL     1      -5.201   3.664   1.493  0.00  0.00    +0.004 C 
ATOM     29  C   UNL     1      -6.322   3.014   0.680  0.00  0.00    +0.000 C 
ATOM     30  C   UNL     1      -5.865   2.837  -0.769  0.00  0.00    +0.004 C 
ATOM     31  C   UNL     1      -4.624   1.943  -0.807  0.00  0.00    +0.044 C 
ENDBRANCH  25  26
ENDBRANCH  23  25
ENDBRANCH   3  23
TORSDOF 6
