REMARK  Name = ZINC50554867
REMARK  10 active torsions:
REMARK  status: ('A' for Active; 'I' for Inactive)
REMARK    1  A    between atoms: C_1  and  C_2
REMARK    2  A    between atoms: C_2  and  C_3
REMARK    3  A    between atoms: C_2  and  N_13
REMARK    4  A    between atoms: C_6  and  S_9
REMARK    5  A    between atoms: S_9  and  N_12
REMARK    6  A    between atoms: N_13  and  C_14
REMARK    7  A    between atoms: C_15  and  C_17
REMARK    8  A    between atoms: C_17  and  N_18
REMARK    9  A    between atoms: N_21  and  C_22
REMARK   10  A    between atoms: C_22  and  C_23
REMARK                            x       y       z     vdW  Elec       q    Type
REMARK                         _______ _______ _______ _____ _____    ______ ____
ROOT
ATOM      1  N   UNL     1      -1.442  -0.445   0.109  0.00  0.00    -0.296 N 
ATOM      2  C   UNL     1      -2.422  -0.105  -0.925  0.00  0.00    +0.132 C 
ATOM      3  C   UNL     1      -1.845  -1.032   1.254  0.00  0.00    +0.233 C 
ATOM      4  O   UNL     1      -1.033  -1.313   2.110  0.00  0.00    -0.274 OA
ENDROOT
BRANCH   1   6
ATOM      5  C   UNL     1       0.142   1.333  -0.449  0.00  0.00    +0.033 C 
ATOM      6  C   UNL     1      -0.023  -0.147  -0.101  0.00  0.00    +0.103 C 
BRANCH   6   7
ATOM      7  C   UNL     1       0.506  -0.992  -1.232  0.00  0.00    -0.027 A 
ATOM      8  C   UNL     1      -0.113  -0.957  -2.467  0.00  0.00    +0.007 A 
ATOM      9  C   UNL     1       0.372  -1.731  -3.505  0.00  0.00    +0.029 A 
ATOM     10  C   UNL     1       1.476  -2.540  -3.307  0.00  0.00    +0.105 A 
ATOM     11  C   UNL     1       2.095  -2.574  -2.071  0.00  0.00    +0.029 A 
ATOM     12  C   UNL     1       1.612  -1.796  -1.035  0.00  0.00    +0.007 A 
BRANCH  10  13
ATOM     13  S   UNL     1       2.093  -3.527  -4.629  0.00  0.00    +0.056 S 
ATOM     14  O   UNL     1       2.801  -4.606  -4.034  0.00  0.00    -0.153 OA
ATOM     15  O   UNL     1       1.009  -3.730  -5.525  0.00  0.00    -0.153 OA
BRANCH  13  16
ATOM     16  N   UNL     1       3.213  -2.616  -5.439  0.00  0.00    -0.204 NA
ATOM     17  H   UNL     1       3.958  -3.048  -5.887  0.00  0.00    +0.144 HD
ATOM     18  H   UNL     1       3.124  -1.651  -5.467  0.00  0.00    +0.144 HD
ENDBRANCH  13  16
ENDBRANCH  10  13
ENDBRANCH   6   7
ENDBRANCH   1   6
BRANCH   3  19
ATOM     19  C   UNL     1      -3.305  -1.338   1.470  0.00  0.00    +0.201 C 
BRANCH  19  20
ATOM     20  N   UNL     1      -3.482  -1.969   2.780  0.00  0.00    -0.291 N 
ATOM     21  C   UNL     1      -4.713  -2.334   3.191  0.00  0.00    +0.300 C 
ATOM     22  O   UNL     1      -5.676  -2.138   2.474  0.00  0.00    -0.253 OA
ATOM     23  N   UNL     1      -4.877  -2.914   4.396  0.00  0.00    -0.299 N 
ATOM     24  H   UNL     1      -2.714  -2.125   3.351  0.00  0.00    +0.151 HD
ATOM     25  H   UNL     1      -4.109  -3.070   4.967  0.00  0.00    +0.150 HD
BRANCH  23  26
ATOM     26  C   UNL     1      -6.215  -3.310   4.843  0.00  0.00    +0.109 C 
BRANCH  26  27
ATOM     27  C   UNL     1      -6.122  -3.941   6.234  0.00  0.00    +0.006 C 
ATOM     28  C   UNL     1      -5.378  -5.290   6.154  0.00  0.00    +0.005 C 
ATOM     29  C   UNL     1      -6.115  -6.191   7.175  0.00  0.00    +0.000 C 
ATOM     30  C   UNL     1      -7.595  -5.772   6.995  0.00  0.00    +0.000 C 
ATOM     31  C   UNL     1      -7.532  -4.248   6.768  0.00  0.00    +0.005 C 
ENDBRANCH  26  27
ENDBRANCH  23  26
ENDBRANCH  19  20
ENDBRANCH   3  19
TORSDOF 8
