REMARK  Name = ZINC34757717
REMARK  8 active torsions:
REMARK  status: ('A' for Active; 'I' for Inactive)
REMARK    1  A    between atoms: C_1  and  C_2
REMARK    2  A    between atoms: C_2  and  C_4
REMARK    3  A    between atoms: C_4  and  N_5
REMARK    4  A    between atoms: C_18  and  S_20
REMARK    5  A    between atoms: S_20  and  C_21
REMARK    6  A    between atoms: C_21  and  C_22
REMARK    7  A    between atoms: N_24  and  C_25
REMARK    8  A    between atoms: N_24  and  C_26
REMARK                            x       y       z     vdW  Elec       q    Type
REMARK                         _______ _______ _______ _____ _____    ______ ____
ROOT
ATOM      1  N   UNL     1      -2.278  -0.470  -1.033  0.00  0.00    +0.384 N 
ATOM      2  C   UNL     1      -3.739  -0.375  -1.142  0.00  0.00    -0.059 C 
ATOM      3  C   UNL     1      -4.185  -0.915  -2.505  0.00  0.00    +0.088 C 
ATOM      4  N   UNL     1      -3.652  -2.276  -2.665  0.00  0.00    -0.318 N 
ATOM      5  C   UNL     1      -2.219  -2.494  -2.413  0.00  0.00    +0.088 C 
ATOM      6  C   UNL     1      -1.866  -1.879  -1.054  0.00  0.00    -0.059 C 
ATOM      7  C   UNL     1      -4.475  -3.323  -3.040  0.00  0.00    +0.134 A 
ATOM      8  C   UNL     1      -4.597  -3.688  -4.410  0.00  0.00    +0.051 A 
ATOM      9  C   UNL     1      -3.936  -3.083  -5.579  0.00  0.00    -0.025 A 
ATOM     10  C   UNL     1      -4.220  -3.614  -6.778  0.00  0.00    -0.004 A 
ATOM     11  S   UNL     1      -5.363  -4.934  -6.441  0.00  0.00    -0.073 S 
ATOM     12  C   UNL     1      -5.458  -4.766  -4.680  0.00  0.00    +0.115 A 
ATOM     13  N   UNL     1      -6.108  -5.390  -3.715  0.00  0.00    -0.214 NA
ATOM     14  C   UNL     1      -5.957  -5.008  -2.454  0.00  0.00    +0.191 A 
ATOM     15  N   UNL     1      -5.154  -4.001  -2.130  0.00  0.00    -0.206 NA
ATOM     16  C   UNL     1      -3.495  -2.914  -7.896  0.00  0.00    +0.043 C 
ATOM     17  C   UNL     1      -3.033  -1.575  -7.280  0.00  0.00    +0.010 C 
ATOM     18  C   UNL     1      -2.945  -1.933  -5.784  0.00  0.00    +0.037 C 
ATOM     19  H   UNL     1      -1.853   0.015  -1.810  0.00  0.00    -0.081 HD
ENDROOT
BRANCH   1  20
ATOM     20  C   UNL     1      -1.841   0.147   0.226  0.00  0.00    -0.048 C 
BRANCH  20  22
ATOM     21  C   UNL     1      -1.188   2.584  -0.442  0.00  0.00    +0.036 C 
ATOM     22  C   UNL     1      -2.154   1.621   0.198  0.00  0.00    -0.096 C 
ATOM     23  C   UNL     1      -3.266   2.065   0.730  0.00  0.00    +0.005 C 
ENDBRANCH  20  22
ENDBRANCH   1  20
BRANCH  14  24
ATOM     24  S   UNL     1      -6.834  -5.857  -1.184  0.00  0.00    -0.077 S 
BRANCH  24  25
ATOM     25  C   UNL     1      -7.775  -7.127  -2.073  0.00  0.00    +0.173 C 
BRANCH  25  26
ATOM     26  C   UNL     1      -8.581  -7.936  -1.090  0.00  0.00    +0.225 C 
ATOM     27  O   UNL     1      -8.526  -7.681   0.094  0.00  0.00    -0.275 OA
ATOM     28  N   UNL     1      -9.363  -8.943  -1.527  0.00  0.00    -0.307 N 
ATOM     29  C   UNL     1     -10.147  -9.730  -0.571  0.00  0.00    +0.131 C 
ATOM     30  C   UNL     1      -9.430  -9.251  -2.957  0.00  0.00    +0.131 C 
ENDBRANCH  25  26
ENDBRANCH  24  25
ENDBRANCH  14  24
TORSDOF 5
