REMARK  Name = ZINC05548692
REMARK  8 active torsions:
REMARK  status: ('A' for Active; 'I' for Inactive)
REMARK    1  A    between atoms: C_1  and  C_2
REMARK    2  A    between atoms: C_2  and  C_3
REMARK    3  A    between atoms: C_2  and  C_4
REMARK    4  A    between atoms: C_7  and  S_23
REMARK    5  A    between atoms: N_8  and  N_9
REMARK    6  A    between atoms: C_10  and  C_11
REMARK    7  A    between atoms: C_20  and  O_21
REMARK    8  A    between atoms: O_21  and  C_22
REMARK                            x       y       z     vdW  Elec       q    Type
REMARK                         _______ _______ _______ _____ _____    ______ ____
ROOT
ATOM      1  N   UNL     1       2.503   0.058  -0.020  0.00  0.00    -0.171 NA
ATOM      2  C   UNL     1       2.473   1.357  -0.013  0.00  0.00    +0.145 C 
ENDROOT
BRANCH   2   3
ATOM      3  C   UNL     1       1.185   2.063   0.002  0.00  0.00    +0.044 A 
ATOM      4  C   UNL     1       1.133   3.523   0.010  0.00  0.00    -0.006 A 
ATOM      5  C   UNL     1       2.301   4.296   0.002  0.00  0.00    +0.009 A 
ATOM      6  C   UNL     1       2.210   5.656   0.009  0.00  0.00    +0.001 A 
ATOM      7  C   UNL     1       0.969   6.289   0.024  0.00  0.00    +0.001 A 
ATOM      8  C   UNL     1      -0.186   5.568   0.032  0.00  0.00    +0.008 A 
ATOM      9  C   UNL     1      -0.130   4.164   0.025  0.00  0.00    -0.017 A 
ATOM     10  C   UNL     1      -1.301   3.387   0.032  0.00  0.00    +0.012 A 
ATOM     11  C   UNL     1      -1.236   2.029   0.019  0.00  0.00    +0.047 A 
ATOM     12  C   UNL     1      -0.016   1.353   0.009  0.00  0.00    +0.129 A 
BRANCH  12  13
ATOM     13  O   UNL     1       0.002  -0.004   0.002  0.00  0.00    -0.494 OA
ATOM     14  C   UNL     1      -1.262  -0.670   0.011  0.00  0.00    +0.277 C 
ENDBRANCH  12  13
ENDBRANCH   2   3
BRANCH   1  19
ATOM     15  C   UNL     1       4.467  -1.018   1.048  0.00  0.00    +0.158 A 
ATOM     16  N   UNL     1       5.538  -1.605   0.593  0.00  0.00    -0.131 NA
ATOM     17  N   UNL     1       5.532  -1.603  -0.692  0.00  0.00    -0.121 NA
ATOM     18  C   UNL     1       4.444  -1.013  -1.133  0.00  0.00    +0.209 A 
ATOM     19  N   UNL     1       3.732  -0.615  -0.034  0.00  0.00    -0.191 N 
BRANCH  15  21
ATOM     20  C   UNL     1       3.991  -2.180   3.187  0.00  0.00    +0.015 C 
ATOM     21  C   UNL     1       4.106  -0.818   2.498  0.00  0.00    +0.053 C 
ATOM     22  C   UNL     1       5.193   0.011   3.185  0.00  0.00    +0.015 C 
ENDBRANCH  15  21
BRANCH  18  23
ATOM     23  S   UNL     1       3.990  -0.775  -2.819  0.00  0.00    -0.102 S 
ATOM     24  H   UNL     1       4.593   0.476  -3.061  0.00  0.00    +0.110 HD
ENDBRANCH  18  23
ENDBRANCH   1  19
TORSDOF 5
