REMARK  Name = ZINC09252660
REMARK  4 active torsions:
REMARK  status: ('A' for Active; 'I' for Inactive)
REMARK    1  A    between atoms: C_1  and  C_2
REMARK    2  A    between atoms: C_5  and  N_9
REMARK    3  A    between atoms: C_10  and  C_12
REMARK    4  A    between atoms: C_14  and  C_17
REMARK                            x       y       z     vdW  Elec       q    Type
REMARK                         _______ _______ _______ _____ _____    ______ ____
ROOT
ATOM      1  N   UNL     1      -2.427   1.041   0.019  0.00  0.00    -0.278 N 
ATOM      2  C   UNL     1      -2.414  -0.302  -0.090  0.00  0.00    +0.286 C 
ATOM      3  O   UNL     1      -1.356  -0.901  -0.099  0.00  0.00    -0.266 OA
ATOM      4  H   UNL     1      -3.270   1.513   0.107  0.00  0.00    +0.155 HD
ENDROOT
BRANCH   1   9
ATOM      5  C   UNL     1       2.447   3.943  -0.044  0.00  0.00    +0.044 C 
ATOM      6  C   UNL     1       1.153   3.171  -0.024  0.00  0.00    -0.049 A 
ATOM      7  C   UNL     1       1.082   1.928  -0.626  0.00  0.00    +0.005 A 
ATOM      8  C   UNL     1      -0.102   1.218  -0.610  0.00  0.00    +0.025 A 
ATOM      9  C   UNL     1      -1.225   1.755   0.006  0.00  0.00    +0.048 A 
ATOM     10  C   UNL     1      -1.149   3.002   0.615  0.00  0.00    +0.039 A 
ATOM     11  C   UNL     1       0.039   3.708   0.596  0.00  0.00    +0.020 A 
ATOM     12 BR   UNL     1      -2.672   3.737   1.462  0.00  0.00    -0.048 Br
ENDBRANCH   1   9
BRANCH   2  13
ATOM     13  C   UNL     1      -3.683  -1.045  -0.199  0.00  0.00    +0.222 A 
ATOM     14  C   UNL     1      -3.836  -2.400  -0.316  0.00  0.00    +0.080 A 
ATOM     15  C   UNL     1      -5.235  -2.579  -0.384  0.00  0.00    +0.081 A 
ATOM     16  N   UNL     1      -5.765  -1.392  -0.307  0.00  0.00    -0.083 NA
ATOM     17  O   UNL     1      -4.926  -0.528  -0.199  0.00  0.00    -0.350 OA
ATOM     18  C   UNL     1      -5.971  -3.887  -0.518  0.00  0.00    +0.069 C 
ENDBRANCH   2  13
TORSDOF 2
