REMARK  Name = ZINC65271931
REMARK  9 active torsions:
REMARK  status: ('A' for Active; 'I' for Inactive)
REMARK    1  A    between atoms: C_1  and  C_2
REMARK    2  A    between atoms: C_5  and  C_9
REMARK    3  A    between atoms: C_7  and  C_8
REMARK    4  A    between atoms: C_10  and  C_31
REMARK    5  A    between atoms: N_25  and  C_26
REMARK    6  A    between atoms: C_26  and  C_27
REMARK    7  A    between atoms: C_27  and  C_28
REMARK    8  A    between atoms: C_28  and  C_29
REMARK    9  A    between atoms: C_28  and  C_30
REMARK                            x       y       z     vdW  Elec       q    Type
REMARK                         _______ _______ _______ _____ _____    ______ ____
ROOT
ATOM      1  C   UNL     1       0.036  -4.265  -0.073  0.00  0.00    +0.126 C 
ATOM      2  C   UNL     1      -0.009  -5.153  -1.092  0.00  0.00    +0.018 C 
ATOM      3  C   UNL     1       0.058  -6.545  -0.691  0.00  0.00    +0.148 C 
ATOM      4  N   UNL     1       0.153  -6.824   0.579  0.00  0.00    -0.113 NA
ATOM      5  S   UNL     1       0.172  -5.336   1.344  0.00  0.00    +0.101 S 
ATOM      6  O   UNL     1       1.464  -5.151   1.905  0.00  0.00    -0.146 OA
ATOM      7  O   UNL     1      -1.031  -5.221   2.091  0.00  0.00    -0.146 OA
ATOM      8  N   UNL     1       0.021  -7.553  -1.634  0.00  0.00    -0.312 N 
ATOM      9  C   UNL     1      -0.009  -8.947  -1.165  0.00  0.00    +0.108 C 
ATOM     10  C   UNL     1      -1.005  -9.808  -1.946  0.00  0.00    +0.038 C 
ATOM     11  C   UNL     1      -2.285  -9.037  -2.199  0.00  0.00    +0.111 C 
ATOM     12  N   UNL     1      -2.112  -8.262  -3.428  0.00  0.00    -0.284 N 
ATOM     13  C   UNL     1      -1.458  -7.002  -3.501  0.00  0.00    +0.128 C 
ATOM     14  C   UNL     1       0.008  -7.184  -3.038  0.00  0.00    +0.125 C 
ATOM     15  C   UNL     1      -2.606  -8.780  -4.570  0.00  0.00    +0.302 C 
ATOM     16  O   UNL     1      -2.572  -8.130  -5.597  0.00  0.00    -0.253 OA
ATOM     17  N   UNL     1      -3.138 -10.018  -4.574  0.00  0.00    -0.299 N 
ATOM     18  C   UNL     1      -0.121  -4.729  -2.534  0.00  0.00    +0.049 C 
ATOM     19  H   UNL     1      -3.229 -10.510  -3.743  0.00  0.00    +0.150 HD
ENDROOT
BRANCH   1  24
ATOM     20  C   UNL     1      -0.142   1.478  -0.266  0.00  0.00    +0.044 C 
ATOM     21  C   UNL     1      -0.095  -0.027  -0.215  0.00  0.00    -0.048 A 
ATOM     22  C   UNL     1       0.208  -0.745  -1.359  0.00  0.00    +0.004 A 
ATOM     23  C   UNL     1       0.253  -2.123  -1.320  0.00  0.00    +0.010 A 
ATOM     24  C   UNL     1      -0.009  -2.794  -0.122  0.00  0.00    +0.002 A 
ATOM     25  C   UNL     1      -0.314  -2.062   1.029  0.00  0.00    +0.013 A 
ATOM     26  C   UNL     1      -0.350  -0.684   0.976  0.00  0.00    -0.047 A 
ATOM     27  C   UNL     1      -0.673   0.108   2.217  0.00  0.00    +0.044 C 
ENDBRANCH   1  24
BRANCH  17  28
ATOM     28  C   UNL     1      -3.576 -10.623  -5.834  0.00  0.00    +0.106 C 
BRANCH  28  29
ATOM     29  C   UNL     1      -4.137 -12.021  -5.561  0.00  0.00    +0.022 C 
BRANCH  29  30
ATOM     30  C   UNL     1      -4.595 -12.652  -6.878  0.00  0.00    -0.016 C 
ATOM     31  C   UNL     1      -5.039 -14.094  -6.624  0.00  0.00    +0.007 C 
ATOM     32  C   UNL     1      -5.767 -11.850  -7.447  0.00  0.00    +0.007 C 
ENDBRANCH  29  30
ENDBRANCH  28  29
ENDBRANCH  17  28
TORSDOF 4
