REMARK  Name = ZINC54697786
REMARK  5 active torsions:
REMARK  status: ('A' for Active; 'I' for Inactive)
REMARK    1  A    between atoms: C_1  and  C_2
REMARK    2  A    between atoms: C_2  and  C_3
REMARK    3  A    between atoms: C_2  and  C_4
REMARK    4  A    between atoms: C_6  and  C_10
REMARK    5  A    between atoms: N_7  and  C_9
REMARK                            x       y       z     vdW  Elec       q    Type
REMARK                         _______ _______ _______ _____ _____    ______ ____
ROOT
ATOM      1  C   UNL     1      -4.152  -2.418  -1.410  0.00  0.00    +0.257 C 
ATOM      2  C   UNL     1      -4.629  -1.631  -2.638  0.00  0.00    +0.154 C 
ATOM      3  N   UNL     1      -5.517  -2.514  -3.415  0.00  0.00    -0.337 N 
ATOM      4  C   UNL     1      -5.131  -3.855  -3.570  0.00  0.00    +0.070 A 
ATOM      5  C   UNL     1      -5.758  -4.654  -4.513  0.00  0.00    +0.026 A 
ATOM      6  C   UNL     1      -5.377  -5.975  -4.659  0.00  0.00    +0.002 A 
ATOM      7  C   UNL     1      -4.372  -6.497  -3.867  0.00  0.00    +0.004 A 
ATOM      8  C   UNL     1      -3.741  -5.704  -2.927  0.00  0.00    +0.047 A 
ATOM      9  C   UNL     1      -4.116  -4.378  -2.774  0.00  0.00    +0.142 A 
ATOM     10  O   UNL     1      -3.486  -3.604  -1.849  0.00  0.00    -0.478 OA
ATOM     11  H   UNL     1      -6.339  -2.180  -3.806  0.00  0.00    +0.146 HD
ENDROOT
BRANCH   1  14
ATOM     12  C   UNL     1      -1.412  -0.526   0.013  0.00  0.00    +0.154 A 
ATOM     13  N   UNL     1      -1.958  -1.302  -0.923  0.00  0.00    -0.212 NA
ATOM     14  C   UNL     1      -3.198  -1.572  -0.607  0.00  0.00    +0.170 A 
ATOM     15  N   UNL     1      -3.474  -0.962   0.559  0.00  0.00    -0.249 N 
ATOM     16  N   UNL     1      -2.299  -0.295   0.944  0.00  0.00    -0.155 NA
ATOM     17  C   UNL     1      -4.745  -0.992   1.287  0.00  0.00    +0.174 C 
BRANCH  12  19
ATOM     18  C   UNL     1      -0.019   1.526   0.010  0.00  0.00    +0.015 C 
ATOM     19  C   UNL     1       0.002  -0.004   0.002  0.00  0.00    +0.053 C 
ATOM     20  C   UNL     1       0.742  -0.511   1.242  0.00  0.00    +0.015 C 
ENDBRANCH  12  19
ENDBRANCH   1  14
TORSDOF 2
