REMARK  Name = ZINC16737533
REMARK  7 active torsions:
REMARK  status: ('A' for Active; 'I' for Inactive)
REMARK    1  A    between atoms: C_4  and  C_7
REMARK    2  A    between atoms: C_7  and  N_8
REMARK    3  A    between atoms: N_10  and  C_24
REMARK    4  A    between atoms: C_11  and  C_14
REMARK    5  A    between atoms: C_11  and  O_23
REMARK    6  A    between atoms: C_17  and  N_20
REMARK    7  A    between atoms: C_24  and  C_25
REMARK                            x       y       z     vdW  Elec       q    Type
REMARK                         _______ _______ _______ _____ _____    ______ ____
ROOT
ATOM      1  N   UNL     1      -5.639   1.935   0.581  0.00  0.00    -0.364 N 
ATOM      2  C   UNL     1      -4.672   2.663   0.095  0.00  0.00    +0.133 C 
ATOM      3  N   UNL     1      -3.528   3.057   0.737  0.00  0.00    -0.275 N 
ATOM      4  C   UNL     1      -2.553   3.869   0.047  0.00  0.00    +0.170 C 
ATOM      5  C   UNL     1      -2.947   4.207  -1.404  0.00  0.00    +0.137 C 
ATOM      6  S   UNL     1      -4.564   3.355  -1.543  0.00  0.00    -0.088 S 
ATOM      7  H   UNL     1      -5.583   1.568   1.616  0.00  0.00    +0.162 HD
ENDROOT
BRANCH   4   8
ATOM      8  C   UNL     1      -1.238   3.133   0.030  0.00  0.00    +0.003 A 
ATOM      9  C   UNL     1      -1.219   1.751   0.017  0.00  0.00    +0.010 A 
ATOM     10  C   UNL     1      -0.013   1.076   0.008  0.00  0.00    +0.033 A 
ATOM     11  C   UNL     1       1.175   1.783   0.000  0.00  0.00    +0.126 A 
ATOM     12  C   UNL     1       1.156   3.165   0.008  0.00  0.00    +0.033 A 
ATOM     13  C   UNL     1      -0.050   3.840   0.022  0.00  0.00    +0.010 A 
BRANCH  11  14
ATOM     14  N   UNL     1       2.467   1.061  -0.016  0.00  0.00    +0.056 N 
ATOM     15  O   UNL     1       2.483  -0.157  -0.023  0.00  0.00    -0.126 OA
ATOM     16  O   UNL     1       3.513   1.684  -0.022  0.00  0.00    -0.126 OA
ENDBRANCH  11  14
ENDBRANCH   4   8
BRANCH   4  17
ATOM     17  O   UNL     1      -2.383   5.090   0.768  0.00  0.00    -0.367 OA
ATOM     18  H   UNL     1      -1.677   5.851   0.403  0.00  0.00    +0.212 HD
ENDBRANCH   4  17
BRANCH   1  19
ATOM     19  C   UNL     1      -6.798   1.606  -0.252  0.00  0.00    +0.150 C 
BRANCH  19  23
ATOM     20  C   UNL     1      -6.915  -2.609  -0.932  0.00  0.00    +0.000 A 
ATOM     21  C   UNL     1      -7.562  -2.068   0.163  0.00  0.00    +0.000 A 
ATOM     22  C   UNL     1      -7.525  -0.704   0.383  0.00  0.00    +0.005 A 
ATOM     23  C   UNL     1      -6.839   0.119  -0.492  0.00  0.00    -0.028 A 
ATOM     24  C   UNL     1      -6.196  -0.422  -1.589  0.00  0.00    +0.005 A 
ATOM     25  C   UNL     1      -6.230  -1.786  -1.807  0.00  0.00    +0.000 A 
ENDBRANCH  19  23
ENDBRANCH   1  19
BRANCH   3  26
ATOM     26  C   UNL     1      -3.293   2.653   2.125  0.00  0.00    +0.145 C 
BRANCH  26  27
ATOM     27  C   UNL     1      -3.870   3.689   3.054  0.00  0.00    -0.030 A 
ATOM     28  C   UNL     1      -3.089   4.748   3.479  0.00  0.00    +0.005 A 
ATOM     29  C   UNL     1      -3.620   5.701   4.328  0.00  0.00    +0.000 A 
ATOM     30  C   UNL     1      -4.928   5.590   4.760  0.00  0.00    +0.000 A 
ATOM     31  C   UNL     1      -5.708   4.529   4.339  0.00  0.00    +0.000 A 
ATOM     32  C   UNL     1      -5.178   3.578   3.487  0.00  0.00    +0.005 A 
ENDBRANCH  26  27
ENDBRANCH   3  26
TORSDOF 7
