REMARK  Name = ZINC62496451
REMARK  7 active torsions:
REMARK  status: ('A' for Active; 'I' for Inactive)
REMARK    1  A    between atoms: C_1  and  C_2
REMARK    2  A    between atoms: C_5  and  C_25
REMARK    3  A    between atoms: C_6  and  C_8
REMARK    4  A    between atoms: C_8  and  C_9
REMARK    5  A    between atoms: N_13  and  C_22
REMARK    6  A    between atoms: C_17  and  N_21
REMARK    7  A    between atoms: C_22  and  C_23
REMARK                            x       y       z     vdW  Elec       q    Type
REMARK                         _______ _______ _______ _____ _____    ______ ____
ROOT
ATOM      1  C   UNL     1       1.835  -3.054   3.345  0.00  0.00    +0.263 C 
ATOM      2  C   UNL     1       1.741  -3.723   4.694  0.00  0.00    +0.262 C 
ATOM      3  O   UNL     1       1.695  -3.053   5.704  0.00  0.00    -0.271 OA
ATOM      4  N   UNL     1       1.708  -5.069   4.772  0.00  0.00    -0.251 N 
ATOM      5  C   UNL     1       1.889  -5.828   3.604  0.00  0.00    +0.079 A 
ATOM      6  C   UNL     1       1.636  -7.190   3.605  0.00  0.00    +0.029 A 
ATOM      7  C   UNL     1       1.805  -7.923   2.446  0.00  0.00    +0.025 A 
ATOM      8  C   UNL     1       2.228  -7.297   1.280  0.00  0.00    +0.028 A 
ATOM      9  C   UNL     1       2.487  -5.933   1.278  0.00  0.00    +0.070 A 
ATOM     10  C   UNL     1       2.323  -5.199   2.439  0.00  0.00    +0.145 A 
ATOM     11  O   UNL     1       2.604  -3.869   2.458  0.00  0.00    -0.477 OA
ENDROOT
BRANCH   8  12
ATOM     12  N   UNL     1       2.393  -8.041   0.107  0.00  0.00    -0.358 N 
ATOM     13  H   UNL     1       2.213  -8.995   0.108  0.00  0.00    +0.142 HD
ATOM     14  H   UNL     1       2.688  -7.604  -0.707  0.00  0.00    +0.142 HD
ENDBRANCH   8  12
BRANCH   1  15
ATOM     15  C   UNL     1       0.429  -2.864   2.773  0.00  0.00    +0.089 C 
BRANCH  15  21
ATOM     16  C   UNL     1      -2.944  -1.978   6.362  0.00  0.00    +0.044 C 
ATOM     17  C   UNL     1      -1.951  -1.468   5.350  0.00  0.00    -0.050 A 
ATOM     18  C   UNL     1      -1.742  -0.108   5.210  0.00  0.00    +0.003 A 
ATOM     19  C   UNL     1      -0.831   0.359   4.282  0.00  0.00    +0.004 A 
ATOM     20  C   UNL     1      -0.129  -0.532   3.493  0.00  0.00    -0.047 A 
ATOM     21  C   UNL     1      -0.337  -1.892   3.633  0.00  0.00    -0.040 A 
ATOM     22  C   UNL     1      -1.245  -2.360   4.564  0.00  0.00    +0.007 A 
ATOM     23  C   UNL     1       0.864  -0.022   2.480  0.00  0.00    +0.044 C 
ENDBRANCH  15  21
ENDBRANCH   1  15
BRANCH   4  24
ATOM     24  C   UNL     1       1.486  -5.732   6.060  0.00  0.00    +0.232 C 
BRANCH  24  25
ATOM     25  C   UNL     1       0.042  -5.933   6.266  0.00  0.00    +0.082 C 
ATOM     26  N   UNL     1      -1.072  -6.089   6.424  0.00  0.00    -0.195 NA
ENDBRANCH  24  25
ENDBRANCH   4  24
TORSDOF 5
