REMARK  Name = ZINC57838470
REMARK  7 active torsions:
REMARK  status: ('A' for Active; 'I' for Inactive)
REMARK    1  A    between atoms: C_1  and  C_2
REMARK    2  A    between atoms: C_3  and  C_15
REMARK    3  A    between atoms: C_4  and  C_14
REMARK    4  A    between atoms: N_5  and  C_7
REMARK    5  A    between atoms: C_16  and  C_17
REMARK    6  A    between atoms: C_16  and  S_19
REMARK    7  A    between atoms: S_19  and  C_22
REMARK                            x       y       z     vdW  Elec       q    Type
REMARK                         _______ _______ _______ _____ _____    ______ ____
ROOT
ATOM      1  C   UNL     1      -0.555  -0.248  -2.762  0.00  0.00    +0.050 C 
ATOM      2  C   UNL     1      -1.754  -0.545  -3.307  0.00  0.00    +0.170 C 
ENDROOT
BRANCH   1   5
ATOM      3  C   UNL     1       0.197   1.531  -0.246  0.00  0.00    +0.068 C 
ATOM      4  C   UNL     1       0.127   0.026  -0.294  0.00  0.00    +0.068 A 
ATOM      5  C   UNL     1      -0.210  -0.753  -1.425  0.00  0.00    +0.021 A 
ATOM      6  C   UNL     1      -0.155  -2.079  -1.037  0.00  0.00    +0.049 A 
ATOM      7  N   UNL     1       0.197  -2.102   0.264  0.00  0.00    -0.236 N 
ATOM      8  N   UNL     1       0.371  -0.784   0.700  0.00  0.00    -0.171 NA
ATOM      9  C   UNL     1      -0.437  -3.276  -1.907  0.00  0.00    +0.066 C 
BRANCH   7  10
ATOM     10  C   UNL     1       0.366  -3.253   1.046  0.00  0.00    +0.066 A 
ATOM     11  C   UNL     1       1.016  -4.362   0.521  0.00  0.00    +0.030 A 
ATOM     12  C   UNL     1       1.181  -5.495   1.293  0.00  0.00    +0.040 A 
ATOM     13  C   UNL     1       0.700  -5.525   2.591  0.00  0.00    +0.124 A 
ATOM     14  C   UNL     1       0.051  -4.420   3.117  0.00  0.00    +0.040 A 
ATOM     15  C   UNL     1      -0.111  -3.284   2.350  0.00  0.00    +0.030 A 
ATOM     16  F   UNL     1       0.863  -6.634   3.345  0.00  0.00    -0.205 F 
ENDBRANCH   7  10
ENDBRANCH   1   5
BRANCH   2  17
ATOM     17  S   UNL     1      -3.002  -1.311  -2.327  0.00  0.00    +0.036 S 
ATOM     18  O   UNL     1      -3.437  -2.457  -3.046  0.00  0.00    -0.164 OA
ATOM     19  O   UNL     1      -2.488  -1.391  -1.005  0.00  0.00    -0.164 OA
BRANCH  17  20
ATOM     20  C   UNL     1      -4.371  -0.204  -2.269  0.00  0.00    +0.114 A 
ATOM     21  C   UNL     1      -5.571  -0.557  -2.857  0.00  0.00    +0.049 A 
ATOM     22  C   UNL     1      -6.646   0.312  -2.811  0.00  0.00    +0.043 A 
ATOM     23  C   UNL     1      -6.520   1.535  -2.177  0.00  0.00    +0.021 A 
ATOM     24  C   UNL     1      -5.321   1.888  -1.589  0.00  0.00    +0.023 A 
ATOM     25  C   UNL     1      -4.247   1.016  -1.629  0.00  0.00    +0.066 A 
ATOM     26 CL   UNL     1      -2.742   1.457  -0.884  0.00  0.00    -0.082 Cl
ATOM     27 CL   UNL     1      -8.153  -0.131  -3.551  0.00  0.00    -0.083 Cl
ENDBRANCH  17  20
ENDBRANCH   2  17
BRANCH   2  28
ATOM     28  C   UNL     1      -2.011  -0.238  -4.682  0.00  0.00    +0.119 C 
ATOM     29  N   UNL     1      -2.215   0.006  -5.772  0.00  0.00    -0.189 NA
ENDBRANCH   2  28
TORSDOF 5
