REMARK  Name = ZINC05541615
REMARK  4 active torsions:
REMARK  status: ('A' for Active; 'I' for Inactive)
REMARK    1  A    between atoms: C_1  and  C_2
REMARK    2  A    between atoms: C_5  and  S_8
REMARK    3  A    between atoms: S_8  and  C_10
REMARK    4  A    between atoms: C_11  and  C_21
REMARK                            x       y       z     vdW  Elec       q    Type
REMARK                         _______ _______ _______ _____ _____    ______ ____
ROOT
ATOM      1  C   UNL     1       0.713   3.076   2.452  0.00  0.00    +0.059 C 
ATOM      2  C   UNL     1       1.554   2.081   2.353  0.00  0.00    +0.110 C 
ATOM      3  O   UNL     1       2.091   1.676   1.181  0.00  0.00    -0.465 OA
ATOM      4  C   UNL     1       1.464   2.120  -0.024  0.00  0.00    +0.212 C 
ATOM      5  C   UNL     1       2.383   1.845  -1.215  0.00  0.00    +0.079 C 
ATOM      6  C   UNL     1       2.583   0.333  -1.359  0.00  0.00    +0.009 C 
ATOM      7  C   UNL     1       1.215  -0.340  -1.507  0.00  0.00    +0.028 C 
ATOM      8  C   UNL     1       0.346   0.016  -0.298  0.00  0.00    +0.164 C 
ATOM      9  O   UNL     1       0.224   1.437  -0.204  0.00  0.00    -0.339 OA
ATOM     10  C   UNL     1       1.209   3.628   0.086  0.00  0.00    +0.084 C 
ATOM     11  C   UNL     1       0.250   3.866   1.258  0.00  0.00    +0.055 C 
ATOM     12  C   UNL     1       1.945   1.348   3.610  0.00  0.00    +0.086 C 
ENDROOT
BRANCH   1  13
ATOM     13  S   UNL     1       0.097   3.510   4.045  0.00  0.00    +0.085 S 
ATOM     14  O   UNL     1       0.161   4.929   4.064  0.00  0.00    -0.247 OA
BRANCH  13  19
ATOM     15  C   UNL     1      -5.808   2.319   3.700  0.00  0.00    +0.044 C 
ATOM     16  C   UNL     1      -4.333   2.617   3.786  0.00  0.00    -0.050 A 
ATOM     17  C   UNL     1      -3.454   1.637   4.208  0.00  0.00    +0.004 A 
ATOM     18  C   UNL     1      -2.101   1.909   4.287  0.00  0.00    +0.018 A 
ATOM     19  C   UNL     1      -1.628   3.162   3.944  0.00  0.00    +0.043 A 
ATOM     20  C   UNL     1      -2.507   4.144   3.528  0.00  0.00    +0.018 A 
ATOM     21  C   UNL     1      -3.860   3.869   3.444  0.00  0.00    +0.004 A 
ENDBRANCH  13  19
ENDBRANCH   1  13
TORSDOF 2
