REMARK  Name = ZINC08691515
REMARK  4 active torsions:
REMARK  status: ('A' for Active; 'I' for Inactive)
REMARK    1  A    between atoms: C_4  and  C_7
REMARK    2  A    between atoms: C_7  and  C_9
REMARK    3  A    between atoms: N_11  and  C_28
REMARK    4  A    between atoms: N_18  and  C_21
REMARK                            x       y       z     vdW  Elec       q    Type
REMARK                         _______ _______ _______ _____ _____    ______ ____
ROOT
ATOM      1  C   UNL     1       3.711  -2.094   0.071  0.00  0.00    +0.121 C 
ATOM      2  N   UNL     1       2.675  -2.929   0.093  0.00  0.00    -0.179 NA
ATOM      3  N   UNL     1       2.994  -4.181   0.296  0.00  0.00    -0.211 N 
ATOM      4  C   UNL     1       4.302  -4.188   0.928  0.00  0.00    +0.202 C 
ATOM      5  C   UNL     1       4.868  -2.937   0.146  0.00  0.00    +0.161 C 
ATOM      6  C   UNL     1       6.278  -3.044   0.376  0.00  0.00    +0.238 C 
ATOM      7  O   UNL     1       7.077  -2.139   0.484  0.00  0.00    -0.274 OA
ATOM      8  N   UNL     1       6.532  -4.393   0.449  0.00  0.00    -0.207 N 
ATOM      9  C   UNL     1       5.376  -5.151   0.526  0.00  0.00    +0.250 C 
ATOM     10  O   UNL     1       5.251  -6.336   0.301  0.00  0.00    -0.273 OA
ENDROOT
BRANCH   8  11
ATOM     11  C   UNL     1       7.822  -4.944   0.464  0.00  0.00    +0.062 A 
ATOM     12  C   UNL     1       8.473  -5.155   1.671  0.00  0.00    +0.025 A 
ATOM     13  C   UNL     1       9.743  -5.698   1.684  0.00  0.00    +0.002 A 
ATOM     14  C   UNL     1      10.367  -6.031   0.495  0.00  0.00    +0.002 A 
ATOM     15  C   UNL     1       9.722  -5.821  -0.710  0.00  0.00    +0.022 A 
ATOM     16  C   UNL     1       8.448  -5.284  -0.728  0.00  0.00    +0.063 A 
ATOM     17 CL   UNL     1       7.635  -5.028  -2.241  0.00  0.00    -0.082 Cl
ENDBRANCH   8  11
BRANCH   3  18
ATOM     18  C   UNL     1       2.225  -5.298  -0.032  0.00  0.00    +0.052 A 
ATOM     19  C   UNL     1       2.222  -6.411   0.800  0.00  0.00    +0.025 A 
ATOM     20  C   UNL     1       1.460  -7.514   0.472  0.00  0.00    +0.002 A 
ATOM     21  C   UNL     1       0.699  -7.513  -0.683  0.00  0.00    +0.000 A 
ATOM     22  C   UNL     1       0.699  -6.407  -1.514  0.00  0.00    +0.002 A 
ATOM     23  C   UNL     1       1.455  -5.298  -1.190  0.00  0.00    +0.025 A 
ENDBRANCH   3  18
BRANCH   1  24
ATOM     24  C   UNL     1       3.677  -0.679  -0.014  0.00  0.00    +0.209 C 
ATOM     25  O   UNL     1       4.715  -0.051  -0.122  0.00  0.00    -0.285 OA
BRANCH  24  29
ATOM     26  C   UNL     1      -0.043   1.369   0.106  0.00  0.00    +0.000 A 
ATOM     27  C   UNL     1       1.140   2.088   0.114  0.00  0.00    +0.001 A 
ATOM     28  C   UNL     1       2.351   1.429   0.075  0.00  0.00    +0.012 A 
ATOM     29  C   UNL     1       2.382   0.034   0.028  0.00  0.00    +0.024 A 
ATOM     30  C   UNL     1       1.185  -0.684   0.020  0.00  0.00    +0.012 A 
ATOM     31  C   UNL     1      -0.019  -0.013   0.059  0.00  0.00    +0.001 A 
ENDBRANCH  24  29
ENDBRANCH   1  24
TORSDOF 4
