REMARK  Name = ZINC12574351
REMARK  7 active torsions:
REMARK  status: ('A' for Active; 'I' for Inactive)
REMARK    1  A    between atoms: C_1  and  C_2
REMARK    2  A    between atoms: C_3  and  C_17
REMARK    3  A    between atoms: N_6  and  C_7
REMARK    4  A    between atoms: C_17  and  C_19
REMARK    5  A    between atoms: C_17  and  N_54
REMARK    6  A    between atoms: C_20  and  C_21
REMARK    7  A    between atoms: C_20  and  N_54
REMARK                            x       y       z     vdW  Elec       q    Type
REMARK                         _______ _______ _______ _____ _____    ______ ____
ROOT
ATOM      1  C   UNL     1      -7.303   2.875   0.229  0.00  0.00    -0.040 C 
ATOM      2  C   UNL     1      -7.874   3.167  -1.160  0.00  0.00    -0.009 C 
ENDROOT
BRANCH   1   5
ATOM      3  C   UNL     1      -5.198   5.189   0.314  0.00  0.00    +0.066 C 
ATOM      4  C   UNL     1      -4.898   3.719   0.171  0.00  0.00    +0.043 A 
ATOM      5  C   UNL     1      -5.807   2.717   0.134  0.00  0.00    -0.021 A 
ATOM      6  C   UNL     1      -5.114   1.510  -0.001  0.00  0.00    +0.137 A 
ATOM      7  N   UNL     1      -3.833   1.773  -0.050  0.00  0.00    -0.174 NA
ATOM      8  N   UNL     1      -3.666   3.160   0.052  0.00  0.00    -0.236 N 
BRANCH   8   9
ATOM      9  C   UNL     1      -2.447   3.847   0.040  0.00  0.00    +0.073 A 
ATOM     10  C   UNL     1      -2.273   4.940  -0.780  0.00  0.00    +0.028 A 
ATOM     11  C   UNL     1      -1.065   5.630  -0.799  0.00  0.00    +0.003 A 
ATOM     12  C   UNL     1      -0.023   5.247  -0.010  0.00  0.00    +0.008 A 
ATOM     13  C   UNL     1      -0.160   4.137   0.841  0.00  0.00    -0.016 A 
ATOM     14  C   UNL     1      -1.385   3.426   0.869  0.00  0.00    +0.008 A 
ATOM     15  C   UNL     1      -1.518   2.314   1.715  0.00  0.00    +0.010 A 
ATOM     16  C   UNL     1      -0.474   1.940   2.505  0.00  0.00    +0.001 A 
ATOM     17  C   UNL     1       0.731   2.638   2.478  0.00  0.00    +0.001 A 
ATOM     18  C   UNL     1       0.898   3.718   1.666  0.00  0.00    +0.008 A 
ENDBRANCH   8   9
ENDBRANCH   1   5
BRANCH   1  19
ATOM     19  N   UNL     1      -7.889   1.625   0.750  0.00  0.00    +0.387 N 
ATOM     20  H   UNL     1      -7.245   1.208   1.432  0.00  0.00    -0.085 HD
ATOM     21  H   UNL     1      -8.036   0.970  -0.027  0.00  0.00    -0.085 HD
BRANCH  19  22
ATOM     22  C   UNL     1      -9.182   1.900   1.405  0.00  0.00    -0.027 C 
BRANCH  22  23
ATOM     23  C   UNL     1      -9.756   0.608   1.926  0.00  0.00    +0.010 A 
ATOM     24  C   UNL     1      -9.615   0.129   3.178  0.00  0.00    +0.021 A 
ATOM     25  C   UNL     1     -10.307  -1.099   3.242  0.00  0.00    +0.020 A 
ATOM     26  C   UNL     1     -10.839  -1.328   2.026  0.00  0.00    +0.094 A 
ATOM     27  N   UNL     1     -10.505  -0.283   1.210  0.00  0.00    -0.291 N 
ATOM     28  C   UNL     1     -10.867  -0.150  -0.130  0.00  0.00    +0.235 A 
ATOM     29  N   UNL     1     -10.475   0.922  -0.800  0.00  0.00    -0.220 NA
ATOM     30  C   UNL     1     -10.797   1.078  -2.074  0.00  0.00    +0.116 A 
ATOM     31  C   UNL     1     -11.563   0.107  -2.701  0.00  0.00    +0.039 A 
ATOM     32  C   UNL     1     -11.959  -1.000  -1.967  0.00  0.00    +0.116 A 
ATOM     33  N   UNL     1     -11.598  -1.095  -0.698  0.00  0.00    -0.220 NA
ENDBRANCH  22  23
ENDBRANCH  19  22
ENDBRANCH   1  19
TORSDOF 5
