REMARK  Name = ZINC37435670
REMARK  8 active torsions:
REMARK  status: ('A' for Active; 'I' for Inactive)
REMARK    1  A    between atoms: C_1  and  C_2
REMARK    2  A    between atoms: C_2  and  N_3
REMARK    3  A    between atoms: C_9  and  C_11
REMARK    4  A    between atoms: C_15  and  C_17
REMARK    5  A    between atoms: C_17  and  N_18
REMARK    6  A    between atoms: C_20  and  C_33
REMARK    7  A    between atoms: N_23  and  C_24
REMARK    8  A    between atoms: C_24  and  C_26
REMARK                            x       y       z     vdW  Elec       q    Type
REMARK                         _______ _______ _______ _____ _____    ______ ____
ROOT
ATOM      1  C   UNL     1      -4.318  -4.283  -1.437  0.00  0.00    +0.037 A 
ATOM      2  C   UNL     1      -3.612  -4.842  -0.371  0.00  0.00    +0.013 A 
ATOM      3  C   UNL     1      -3.615  -6.209  -0.187  0.00  0.00    +0.001 A 
ATOM      4  C   UNL     1      -4.317  -7.026  -1.056  0.00  0.00    +0.005 A 
ATOM      5  C   UNL     1      -5.019  -6.478  -2.115  0.00  0.00    -0.027 A 
ATOM      6  C   UNL     1      -5.028  -5.111  -2.307  0.00  0.00    +0.018 A 
ENDROOT
BRANCH   1  13
ATOM      7  N   UNL     1      -0.771  -0.987  -2.514  0.00  0.00    +0.382 N 
ATOM      8  C   UNL     1      -2.051  -0.428  -2.966  0.00  0.00    -0.060 C 
ATOM      9  C   UNL     1      -3.125  -0.691  -1.905  0.00  0.00    +0.089 C 
ATOM     10  N   UNL     1      -3.158  -2.135  -1.622  0.00  0.00    -0.301 N 
ATOM     11  C   UNL     1      -1.887  -2.811  -1.319  0.00  0.00    +0.089 C 
ATOM     12  C   UNL     1      -0.872  -2.448  -2.408  0.00  0.00    -0.060 C 
ATOM     13  C   UNL     1      -4.319  -2.818  -1.641  0.00  0.00    +0.247 C 
ATOM     14  O   UNL     1      -5.367  -2.231  -1.824  0.00  0.00    -0.270 OA
ATOM     15  H   UNL     1      -0.538  -0.601  -1.611  0.00  0.00    -0.082 HD
BRANCH   7  17
ATOM     16  C   UNL     1       0.473   0.879  -3.499  0.00  0.00    -0.017 C 
ATOM     17  C   UNL     1       0.281  -0.639  -3.479  0.00  0.00    -0.082 C 
ENDBRANCH   7  17
ENDBRANCH   1  13
BRANCH   5  18
ATOM     18  C   UNL     1      -5.780  -7.375  -3.057  0.00  0.00    +0.158 C 
BRANCH  18  19
ATOM     19  N   UNL     1      -7.147  -7.555  -2.562  0.00  0.00    -0.324 N 
ATOM     20  C   UNL     1      -7.446  -8.574  -1.712  0.00  0.00    +0.098 A 
ATOM     21  C   UNL     1      -8.715  -8.677  -1.301  0.00  0.00    +0.006 A 
ATOM     22  S   UNL     1      -9.488  -7.306  -2.139  0.00  0.00    -0.057 S 
ATOM     23  C   UNL     1      -8.139  -6.704  -2.941  0.00  0.00    +0.166 A 
ATOM     24  N   UNL     1      -8.060  -5.650  -3.752  0.00  0.00    -0.152 NA
ATOM     25  C   UNL     1      -9.332  -9.691  -0.372  0.00  0.00    +0.053 C 
BRANCH  24  26
ATOM     26  C   UNL     1      -9.150  -4.924  -4.011  0.00  0.00    +0.269 C 
ATOM     27  O   UNL     1     -10.218  -5.226  -3.506  0.00  0.00    -0.268 OA
BRANCH  26  28
ATOM     28  C   UNL     1      -9.063  -3.753  -4.913  0.00  0.00    +0.039 A 
ATOM     29  C   UNL     1      -7.843  -3.410  -5.498  0.00  0.00    +0.016 A 
ATOM     30  C   UNL     1      -7.767  -2.318  -6.336  0.00  0.00    +0.039 A 
ATOM     31  C   UNL     1      -8.899  -1.562  -6.599  0.00  0.00    +0.123 A 
ATOM     32  C   UNL     1     -10.113  -1.900  -6.021  0.00  0.00    +0.039 A 
ATOM     33  C   UNL     1     -10.201  -2.993  -5.185  0.00  0.00    +0.016 A 
ATOM     34  F   UNL     1      -8.819  -0.494  -7.422  0.00  0.00    -0.205 F 
ENDBRANCH  26  28
ENDBRANCH  24  26
ENDBRANCH  18  19
ENDBRANCH   5  18
TORSDOF 6
