REMARK  Name = ZINC23271234
REMARK  5 active torsions:
REMARK  status: ('A' for Active; 'I' for Inactive)
REMARK    1  A    between atoms: C_6  and  C_7
REMARK    2  A    between atoms: C_9  and  C_12
REMARK    3  A    between atoms: C_12  and  N_13
REMARK    4  A    between atoms: N_16  and  C_19
REMARK    5  A    between atoms: C_19  and  N_20
REMARK                            x       y       z     vdW  Elec       q    Type
REMARK                         _______ _______ _______ _____ _____    ______ ____
ROOT
ATOM      1  N   UNL     1      -0.783   3.048   1.252  0.00  0.00    +0.387 N 
ATOM      2  C   UNL     1      -0.730   1.580   1.267  0.00  0.00    -0.062 C 
ATOM      3  C   UNL     1      -0.013   1.086   0.008  0.00  0.00    +0.067 C 
ATOM      4  N   UNL     1      -0.724   1.573  -1.182  0.00  0.00    -0.290 NA
ATOM      5  C   UNL     1      -0.777   3.042  -1.196  0.00  0.00    +0.067 C 
ATOM      6  C   UNL     1      -1.495   3.536   0.062  0.00  0.00    -0.062 C 
ATOM      7  H   UNL     1       0.249   3.425   1.208  0.00  0.00    -0.081 HD
ENDROOT
BRANCH   1   8
ATOM      8  C   UNL     1      -1.399   3.565   2.482  0.00  0.00    +0.022 C 
BRANCH   8  11
ATOM      9  C   UNL     1       0.966   3.328   5.179  0.00  0.00    +0.202 A 
ATOM     10  N   UNL     1       0.450   4.009   4.131  0.00  0.00    -0.193 NA
ATOM     11  C   UNL     1      -0.510   3.252   3.658  0.00  0.00    +0.211 A 
ATOM     12  O   UNL     1      -0.556   2.154   4.419  0.00  0.00    -0.340 OA
ATOM     13  N   UNL     1       0.296   2.209   5.280  0.00  0.00    -0.056 NA
BRANCH   9  19
ATOM     14  C   UNL     1       2.712   4.989   5.818  0.00  0.00    +0.013 A 
ATOM     15  C   UNL     1       3.748   5.396   6.634  0.00  0.00    +0.021 A 
ATOM     16  C   UNL     1       4.170   4.587   7.676  0.00  0.00    +0.041 A 
ATOM     17  C   UNL     1       3.552   3.369   7.907  0.00  0.00    +0.021 A 
ATOM     18  C   UNL     1       2.512   2.957   7.099  0.00  0.00    +0.013 A 
ATOM     19  C   UNL     1       2.084   3.767   6.050  0.00  0.00    +0.023 A 
ATOM     20 CL   UNL     1       5.478   5.101   8.695  0.00  0.00    -0.084 Cl
ENDBRANCH   9  19
ENDBRANCH   8  11
ENDBRANCH   1   8
BRANCH   4  21
ATOM     21  C   UNL     1      -0.109   1.057  -2.412  0.00  0.00    +0.203 C 
BRANCH  21  22
ATOM     22  N   UNL     1      -0.403   1.964  -3.523  0.00  0.00    -0.228 N 
ATOM     23  C   UNL     1       0.390   2.995  -3.849  0.00  0.00    +0.224 C 
ATOM     24  O   UNL     1       1.418   3.296  -3.283  0.00  0.00    -0.275 OA
ATOM     25  C   UNL     1      -0.205   3.723  -5.038  0.00  0.00    +0.112 C 
ATOM     26  C   UNL     1      -1.480   2.924  -5.336  0.00  0.00    +0.056 C 
ATOM     27  C   UNL     1      -1.486   1.829  -4.304  0.00  0.00    +0.229 C 
ATOM     28  O   UNL     1      -2.332   0.969  -4.194  0.00  0.00    -0.275 OA
ATOM     29  C   UNL     1      -1.445   2.345  -6.756  0.00  0.00    +0.016 C 
ATOM     30  C   UNL     1      -2.922   2.415  -7.225  0.00  0.00    +0.001 C 
ATOM     31  C   UNL     1      -3.417   3.748  -6.609  0.00  0.00    +0.001 C 
ATOM     32  C   UNL     1      -2.723   3.810  -5.230  0.00  0.00    +0.016 C 
ENDBRANCH  21  22
ENDBRANCH   4  21
TORSDOF 5
