REMARK  Name = ZINC09891003
REMARK  8 active torsions:
REMARK  status: ('A' for Active; 'I' for Inactive)
REMARK    1  A    between atoms: C_1  and  C_2
REMARK    2  A    between atoms: C_2  and  C_4
REMARK    3  A    between atoms: C_2  and  S_25
REMARK    4  A    between atoms: N_9  and  C_12
REMARK    5  A    between atoms: C_15  and  S_21
REMARK    6  A    between atoms: C_17  and  N_18
REMARK    7  A    between atoms: S_21  and  C_24
REMARK    8  A    between atoms: S_25  and  C_26
REMARK                            x       y       z     vdW  Elec       q    Type
REMARK                         _______ _______ _______ _____ _____    ______ ____
ROOT
ATOM      1  C   UNL     1      -1.418  -0.564   0.160  0.00  0.00    +0.229 C 
ATOM      2  O   UNL     1      -1.835  -0.886   1.252  0.00  0.00    -0.274 OA
ATOM      3  N   UNL     1      -2.202  -0.701  -0.928  0.00  0.00    -0.298 N 
ATOM      4  C   UNL     1      -1.708  -0.320  -2.259  0.00  0.00    +0.126 C 
ATOM      5  C   UNL     1      -1.850  -1.525  -3.197  0.00  0.00    +0.124 C 
ATOM      6  N   UNL     1      -3.214  -2.058  -3.074  0.00  0.00    -0.325 N 
ATOM      7  C   UNL     1      -3.707  -2.439  -1.743  0.00  0.00    +0.124 C 
ATOM      8  C   UNL     1      -3.564  -1.240  -0.805  0.00  0.00    +0.126 C 
ENDROOT
BRANCH   6   9
ATOM      9  C   UNL     1      -4.026  -2.200  -4.201  0.00  0.00    +0.060 A 
ATOM     10  C   UNL     1      -4.014  -3.388  -4.923  0.00  0.00    +0.027 A 
ATOM     11  C   UNL     1      -4.819  -3.525  -6.036  0.00  0.00    +0.029 A 
ATOM     12  C   UNL     1      -5.636  -2.482  -6.434  0.00  0.00    +0.090 A 
ATOM     13  C   UNL     1      -5.650  -1.300  -5.718  0.00  0.00    +0.061 A 
ATOM     14  C   UNL     1      -4.852  -1.157  -4.600  0.00  0.00    +0.149 A 
BRANCH  12  15
ATOM     15  S   UNL     1      -6.662  -2.662  -7.855  0.00  0.00    -0.006 S 
ATOM     16  O   UNL     1      -6.858  -1.337  -8.331  0.00  0.00    -0.170 OA
ATOM     17  O   UNL     1      -6.001  -3.630  -8.659  0.00  0.00    -0.170 OA
ATOM     18  C   UNL     1      -8.222  -3.336  -7.222  0.00  0.00    +0.200 C 
ENDBRANCH  12  15
BRANCH  14  19
ATOM     19  N   UNL     1      -4.872   0.107  -3.831  0.00  0.00    +0.058 N 
ATOM     20  O   UNL     1      -5.592   1.014  -4.178  0.00  0.00    -0.126 OA
ATOM     21  O   UNL     1      -4.170   0.232  -2.855  0.00  0.00    -0.126 OA
ENDBRANCH  14  19
ENDBRANCH   6   9
BRANCH   1  23
ATOM     22  C   UNL     1      -0.077   1.519   0.045  0.00  0.00    +0.029 C 
ATOM     23  C   UNL     1      -0.024  -0.010   0.019  0.00  0.00    +0.134 C 
BRANCH  23  24
ATOM     24  S   UNL     1       1.004  -0.603   1.390  0.00  0.00    -0.113 S 
BRANCH  24  25
ATOM     25  C   UNL     1       1.177  -2.329   1.079  0.00  0.00    +0.009 A 
ATOM     26  C   UNL     1       0.684  -2.876  -0.100  0.00  0.00    +0.015 A 
ATOM     27  C   UNL     1       0.821  -4.229  -0.341  0.00  0.00    +0.001 A 
ATOM     28  C   UNL     1       1.447  -5.038   0.589  0.00  0.00    +0.000 A 
ATOM     29  C   UNL     1       1.938  -4.497   1.763  0.00  0.00    +0.001 A 
ATOM     30  C   UNL     1       1.811  -3.144   2.008  0.00  0.00    +0.015 A 
ENDBRANCH  24  25
ENDBRANCH  23  24
ENDBRANCH   1  23
TORSDOF 6
