REMARK  Name = ZINC59891010
REMARK  12 active torsions:
REMARK  status: ('A' for Active; 'I' for Inactive)
REMARK    1  A    between atoms: C_1  and  C_2
REMARK    2  A    between atoms: C_7  and  C_9
REMARK    3  A    between atoms: C_7  and  N_26
REMARK    4  A    between atoms: C_9  and  N_10
REMARK    5  A    between atoms: C_11  and  C_13
REMARK    6  A    between atoms: C_16  and  S_19
REMARK    7  A    between atoms: S_19  and  N_22
REMARK    8  A    between atoms: N_22  and  C_23
REMARK    9  A    between atoms: C_23  and  C_24
REMARK   10  A    between atoms: C_23  and  C_25
REMARK   11  A    between atoms: N_26  and  C_27
REMARK   12  A    between atoms: N_26  and  C_28
REMARK                            x       y       z     vdW  Elec       q    Type
REMARK                         _______ _______ _______ _____ _____    ______ ____
ROOT
ATOM      1  N   UNL     1       1.149  -4.115   2.383  0.00  0.00    -0.313 N 
ATOM      2  C   UNL     1       1.601  -4.886   3.392  0.00  0.00    +0.244 C 
ATOM      3  O   UNL     1       2.206  -4.382   4.318  0.00  0.00    -0.270 OA
ATOM      4  H   UNL     1       0.666  -4.517   1.644  0.00  0.00    +0.149 HD
ENDROOT
BRANCH   2   5
ATOM      5  C   UNL     1       1.360  -6.344   3.373  0.00  0.00    +0.037 A 
ATOM      6  C   UNL     1       0.670  -6.927   2.309  0.00  0.00    +0.015 A 
ATOM      7  C   UNL     1       0.449  -8.289   2.298  0.00  0.00    +0.029 A 
ATOM      8  C   UNL     1       0.909  -9.076   3.338  0.00  0.00    +0.105 A 
ATOM      9  C   UNL     1       1.593  -8.505   4.396  0.00  0.00    +0.029 A 
ATOM     10  C   UNL     1       1.826  -7.145   4.417  0.00  0.00    +0.015 A 
BRANCH   8  11
ATOM     11  S   UNL     1       0.622 -10.815   3.316  0.00  0.00    +0.059 S 
ATOM     12  O   UNL     1       0.674 -11.252   4.667  0.00  0.00    -0.153 OA
ATOM     13  O   UNL     1      -0.514 -11.028   2.489  0.00  0.00    -0.153 OA
BRANCH  11  14
ATOM     14  N   UNL     1       1.908 -11.513   2.542  0.00  0.00    -0.187 NA
ATOM     15  H   UNL     1       1.776 -11.970   1.696  0.00  0.00    +0.148 HD
BRANCH  14  16
ATOM     16  C   UNL     1       3.246 -11.442   3.134  0.00  0.00    +0.070 C 
ATOM     17  C   UNL     1       4.008 -12.734   2.831  0.00  0.00    +0.025 C 
ATOM     18  C   UNL     1       4.004 -10.253   2.541  0.00  0.00    +0.025 C 
ENDBRANCH  14  16
ENDBRANCH  11  14
ENDBRANCH   8  11
ENDBRANCH   2   5
BRANCH   1  19
ATOM     19  C   UNL     1       1.388  -2.670   2.402  0.00  0.00    +0.092 C 
BRANCH  19  25
ATOM     20  C   UNL     1       1.112  -2.509  -2.585  0.00  0.00    +0.007 C 
ATOM     21  C   UNL     1       0.543  -1.940  -1.284  0.00  0.00    -0.015 C 
ATOM     22  C   UNL     1      -0.956  -2.236  -1.210  0.00  0.00    +0.003 C 
ATOM     23  C   UNL     1      -1.525  -1.667   0.091  0.00  0.00    -0.001 C 
ATOM     24  C   UNL     1      -0.818  -2.316   1.283  0.00  0.00    -0.010 C 
ATOM     25  C   UNL     1       0.681  -2.021   1.210  0.00  0.00    -0.050 C 
ATOM     26  C   UNL     1       1.250  -2.589  -0.092  0.00  0.00    -0.007 C 
BRANCH  25  27
ATOM     27  N   UNL     1       0.896  -0.568   1.245  0.00  0.00    +0.381 N 
ATOM     28  C   UNL     1       0.328  -0.018   2.483  0.00  0.00    -0.096 C 
ATOM     29  C   UNL     1       2.337  -0.285   1.199  0.00  0.00    -0.096 C 
ATOM     30  H   UNL     1       0.445  -0.142   0.449  0.00  0.00    -0.082 HD
ENDBRANCH  25  27
ENDBRANCH  19  25
ENDBRANCH   1  19
TORSDOF 7
