REMARK  Name = ZINC40217251
REMARK  5 active torsions:
REMARK  status: ('A' for Active; 'I' for Inactive)
REMARK    1  A    between atoms: C_1  and  C_2
REMARK    2  A    between atoms: C_7  and  S_8
REMARK    3  A    between atoms: S_8  and  N_11
REMARK    4  A    between atoms: N_11  and  C_12
REMARK    5  A    between atoms: C_12  and  C_18
REMARK                            x       y       z     vdW  Elec       q    Type
REMARK                         _______ _______ _______ _____ _____    ______ ____
ROOT
ATOM      1  S   UNL     1       0.150   0.365   2.669  0.00  0.00    +0.060 S 
ATOM      2  O   UNL     1       0.208  -0.772   3.519  0.00  0.00    -0.153 OA
ATOM      3  O   UNL     1       0.020   0.256   1.258  0.00  0.00    -0.153 OA
ENDROOT
BRANCH   1  10
ATOM      4  C   UNL     1      -0.260   1.221   5.540  0.00  0.00    +0.046 C 
ATOM      5  C   UNL     1      -1.309   1.683   4.561  0.00  0.00    -0.021 A 
ATOM      6  C   UNL     1      -2.370   2.454   4.998  0.00  0.00    +0.043 A 
ATOM      7  C   UNL     1      -3.333   2.878   4.099  0.00  0.00    +0.124 A 
ATOM      8  C   UNL     1      -3.232   2.531   2.763  0.00  0.00    +0.040 A 
ATOM      9  C   UNL     1      -2.171   1.761   2.328  0.00  0.00    +0.031 A 
ATOM     10  C   UNL     1      -1.206   1.341   3.226  0.00  0.00    +0.108 A 
ATOM     11  F   UNL     1      -4.371   3.631   4.526  0.00  0.00    -0.205 F 
ENDBRANCH   1  10
BRANCH   1  12
ATOM     12  N   UNL     1       1.530   1.237   2.951  0.00  0.00    -0.170 NA
ATOM     13  H   UNL     1       2.184   0.916   3.591  0.00  0.00    +0.150 HD
BRANCH  12  14
ATOM     14  C   UNL     1       1.761   2.494   2.235  0.00  0.00    +0.126 C 
ATOM     15  C   UNL     1       1.933   2.207   0.742  0.00  0.00    +0.039 C 
ATOM     16  C   UNL     1       2.174   3.520  -0.005  0.00  0.00    +0.003 C 
ATOM     17  C   UNL     1       3.440   4.189   0.534  0.00  0.00    +0.000 C 
ATOM     18  C   UNL     1       3.268   4.476   2.027  0.00  0.00    +0.003 C 
ATOM     19  C   UNL     1       3.027   3.163   2.775  0.00  0.00    +0.039 C 
BRANCH  14  20
ATOM     20  C   UNL     1       0.610   3.391   2.433  0.00  0.00    +0.086 C 
ATOM     21  N   UNL     1      -0.278   4.082   2.586  0.00  0.00    -0.195 NA
ENDBRANCH  14  20
ENDBRANCH  12  14
ENDBRANCH   1  12
TORSDOF 4
