REMARK  Name = ZINC41114547
REMARK  4 active torsions:
REMARK  status: ('A' for Active; 'I' for Inactive)
REMARK    1  A    between atoms: C_1  and  C_2
REMARK    2  A    between atoms: C_7  and  C_24
REMARK    3  A    between atoms: C_10  and  C_12
REMARK    4  A    between atoms: C_14  and  N_21
REMARK                            x       y       z     vdW  Elec       q    Type
REMARK                         _______ _______ _______ _____ _____    ______ ____
ROOT
ATOM      1  C   UNL     1       2.511   0.384   3.061  0.00  0.00    +0.077 A 
ATOM      2  C   UNL     1       2.738  -0.985   2.903  0.00  0.00    +0.051 A 
ATOM      3  C   UNL     1       3.688  -1.618   3.674  0.00  0.00    +0.165 A 
ATOM      4  C   UNL     1       4.420  -0.900   4.608  0.00  0.00    +0.191 A 
ATOM      5  C   UNL     1       4.202   0.459   4.772  0.00  0.00    +0.196 A 
ATOM      6  C   UNL     1       3.255   1.107   3.999  0.00  0.00    +0.173 A 
ATOM      7  F   UNL     1       3.046   2.433   4.154  0.00  0.00    -0.202 F 
ATOM      8  F   UNL     1       4.919   1.153   5.684  0.00  0.00    -0.199 F 
ATOM      9  F   UNL     1       5.350  -1.528   5.362  0.00  0.00    -0.200 F 
ENDROOT
BRANCH   1  17
ATOM     10  C   UNL     1      -0.194   2.309   0.528  0.00  0.00    +0.030 C 
ATOM     11  C   UNL     1      -0.836   1.333   1.516  0.00  0.00    +0.099 C 
ATOM     12  C   UNL     1      -1.914   2.058   2.331  0.00  0.00    +0.182 C 
ATOM     13  O   UNL     1      -2.377   1.194   3.372  0.00  0.00    -0.376 OA
ATOM     14  C   UNL     1      -1.371   0.831   4.321  0.00  0.00    +0.182 C 
ATOM     15  C   UNL     1      -0.266   0.043   3.608  0.00  0.00    +0.099 C 
ATOM     16  N   UNL     1       0.185   0.824   2.445  0.00  0.00    -0.288 N 
ATOM     17  C   UNL     1       1.494   1.067   2.237  0.00  0.00    +0.250 C 
ATOM     18  O   UNL     1       1.838   1.847   1.371  0.00  0.00    -0.270 OA
ATOM     19  C   UNL     1       0.907  -0.180   4.565  0.00  0.00    +0.030 C 
ENDBRANCH   1  17
BRANCH   3  20
ATOM     20  N   UNL     1       3.928  -3.069   3.506  0.00  0.00    +0.059 N 
ATOM     21  O   UNL     1       3.397  -3.668   2.600  0.00  0.00    -0.126 OA
ATOM     22  O   UNL     1       4.654  -3.655   4.275  0.00  0.00    -0.126 OA
ENDBRANCH   3  20
TORSDOF 2
