REMARK  Name = ZINC09192170
REMARK  10 active torsions:
REMARK  status: ('A' for Active; 'I' for Inactive)
REMARK    1  A    between atoms: C_1  and  C_2
REMARK    2  A    between atoms: C_2  and  O_3
REMARK    3  A    between atoms: O_3  and  C_4
REMARK    4  A    between atoms: C_7  and  N_10
REMARK    5  A    between atoms: C_11  and  C_31
REMARK    6  A    between atoms: C_13  and  C_16
REMARK    7  A    between atoms: C_14  and  C_15
REMARK    8  A    between atoms: C_26  and  C_28
REMARK    9  A    between atoms: C_28  and  C_29
REMARK   10  A    between atoms: C_28  and  C_30
REMARK                            x       y       z     vdW  Elec       q    Type
REMARK                         _______ _______ _______ _____ _____    ______ ____
ROOT
ATOM      1  N   UNL     1       1.239  -5.949  -2.010  0.00  0.00    -0.317 N 
ATOM      2  C   UNL     1       1.916  -6.788  -1.169  0.00  0.00    +0.022 A 
ATOM      3  C   UNL     1       1.714  -8.059  -1.556  0.00  0.00    +0.031 A 
ATOM      4  C   UNL     1       0.840  -8.000  -2.736  0.00  0.00    -0.003 A 
ATOM      5  C   UNL     1       0.584  -6.656  -2.952  0.00  0.00    +0.028 A 
ATOM      6  C   UNL     1      -0.273  -6.084  -4.051  0.00  0.00    +0.064 C 
ATOM      7  C   UNL     1       2.754  -6.356   0.006  0.00  0.00    +0.064 C 
ENDROOT
BRANCH   4   8
ATOM      8  C   UNL     1       0.352  -9.096  -3.494  0.00  0.00    +0.026 C 
ATOM      9  C   UNL     1       0.361 -10.366  -2.954  0.00  0.00    +0.081 C 
ATOM     10  C   UNL     1       0.651 -10.604  -1.514  0.00  0.00    +0.152 C 
ATOM     11  N   UNL     1       0.314  -9.769  -0.566  0.00  0.00    -0.283 NA
ATOM     12  N   UNL     1       1.324 -11.821  -1.271  0.00  0.00    -0.152 N 
ATOM     13  C   UNL     1       1.195 -12.818  -2.214  0.00  0.00    +0.181 C 
ATOM     14  N   UNL     1       0.592 -12.746  -3.374  0.00  0.00    -0.152 NA
ATOM     15  C   UNL     1       0.076 -11.566  -3.778  0.00  0.00    +0.273 C 
ATOM     16  O   UNL     1      -0.600 -11.486  -4.791  0.00  0.00    -0.268 OA
ATOM     17  S   UNL     1       2.063 -14.164  -1.452  0.00  0.00    -0.038 S 
ATOM     18  C   UNL     1       2.619 -13.290   0.004  0.00  0.00    +0.102 C 
ATOM     19  N   UNL     1       2.095 -12.110  -0.165  0.00  0.00    -0.169 NA
ATOM     20  H   UNL     1       0.557  -9.956   0.354  0.00  0.00    +0.188 HD
BRANCH  18  21
ATOM     21  C   UNL     1       3.475 -13.790   1.139  0.00  0.00    +0.040 C 
ATOM     22  C   UNL     1       4.952 -13.648   0.764  0.00  0.00    +0.014 C 
ATOM     23  C   UNL     1       3.187 -12.968   2.397  0.00  0.00    +0.014 C 
ENDBRANCH  18  21
ENDBRANCH   4   8
BRANCH   1  27
ATOM     24  C   UNL     1       1.196  -1.790  -1.695  0.00  0.00    +0.121 A 
ATOM     25  C   UNL     1       0.636  -2.567  -0.692  0.00  0.00    +0.047 A 
ATOM     26  C   UNL     1       0.650  -3.944  -0.796  0.00  0.00    +0.030 A 
ATOM     27  C   UNL     1       1.225  -4.550  -1.905  0.00  0.00    +0.047 A 
ATOM     28  C   UNL     1       1.785  -3.772  -2.908  0.00  0.00    +0.030 A 
ATOM     29  C   UNL     1       1.766  -2.395  -2.806  0.00  0.00    +0.047 A 
BRANCH  24  30
ATOM     30  O   UNL     1       1.182  -0.434  -1.593  0.00  0.00    -0.492 OA
BRANCH  30  32
ATOM     31  C   UNL     1       0.657   1.648  -0.484  0.00  0.00    +0.048 C 
ATOM     32  C   UNL     1       0.579   0.121  -0.422  0.00  0.00    +0.225 C 
ENDBRANCH  30  32
ENDBRANCH  24  30
ENDBRANCH   1  27
TORSDOF 5
