REMARK  Name = ZINC19578633
REMARK  5 active torsions:
REMARK  status: ('A' for Active; 'I' for Inactive)
REMARK    1  A    between atoms: C_1  and  C_2
REMARK    2  A    between atoms: C_2  and  N_3
REMARK    3  A    between atoms: C_7  and  C_8
REMARK    4  A    between atoms: C_8  and  N_9
REMARK    5  A    between atoms: C_13  and  C_16
REMARK                            x       y       z     vdW  Elec       q    Type
REMARK                         _______ _______ _______ _____ _____    ______ ____
ROOT
ATOM      1  N   UNL     1       3.392   1.018   0.091  0.00  0.00    +0.384 N 
ATOM      2  C   UNL     1       4.188   1.450  -1.064  0.00  0.00    -0.078 C 
ATOM      3  C   UNL     1       4.424   2.960  -0.989  0.00  0.00    -0.018 C 
ATOM      4  C   UNL     1       5.176   3.290   0.303  0.00  0.00    +0.006 C 
ATOM      5  C   UNL     1       4.372   2.769   1.498  0.00  0.00    +0.021 C 
ATOM      6  C   UNL     1       4.137   1.266   1.331  0.00  0.00    -0.069 C 
ATOM      7  H   UNL     1       2.525   1.534   0.112  0.00  0.00    -0.081 HD
ENDROOT
BRANCH   5   8
ATOM      8  C   UNL     1       5.139   3.021   2.770  0.00  0.00    +0.051 A 
ATOM      9  C   UNL     1       4.593   3.796   3.752  0.00  0.00    +0.093 A 
ATOM     10  C   UNL     1       5.329   4.017   4.930  0.00  0.00    +0.253 A 
ATOM     11  N   UNL     1       6.551   3.455   5.048  0.00  0.00    -0.295 N 
ATOM     12  C   UNL     1       7.043   2.692   4.035  0.00  0.00    +0.198 A 
ATOM     13  N   UNL     1       6.346   2.485   2.936  0.00  0.00    -0.220 NA
ATOM     14  N   UNL     1       8.283   2.126   4.161  0.00  0.00    -0.301 N 
ATOM     15  C   UNL     1       8.891   1.396   3.040  0.00  0.00    +0.108 C 
ATOM     16  C   UNL     1      10.280   1.980   2.766  0.00  0.00    +0.019 C 
ATOM     17  C   UNL     1      11.104   1.951   4.055  0.00  0.00    +0.003 C 
ATOM     18  C   UNL     1      10.420   2.811   5.120  0.00  0.00    +0.019 C 
ATOM     19  C   UNL     1       9.035   2.242   5.418  0.00  0.00    +0.108 C 
ATOM     20  O   UNL     1       4.871   4.704   5.829  0.00  0.00    -0.268 OA
ATOM     21  H   UNL     1       7.075   3.594   5.851  0.00  0.00    +0.172 HD
ENDBRANCH   5   8
BRANCH   1  22
ATOM     22  C   UNL     1       3.102  -0.418  -0.025  0.00  0.00    -0.023 C 
BRANCH  22  27
ATOM     23  N   UNL     1       0.842  -0.569  -1.240  0.00  0.00    -0.336 N 
ATOM     24  C   UNL     1       0.447  -0.851  -2.500  0.00  0.00    +0.199 A 
ATOM     25  N   UNL     1       1.503  -1.105  -3.223  0.00  0.00    -0.244 NA
ATOM     26  C   UNL     1       2.600  -0.995  -2.458  0.00  0.00    +0.131 A 
ATOM     27  C   UNL     1       2.208  -0.655  -1.215  0.00  0.00    +0.022 A 
BRANCH  23  29
ATOM     28  C   UNL     1      -0.274  -1.477   0.738  0.00  0.00    +0.027 C 
ATOM     29  C   UNL     1      -0.028  -0.228  -0.112  0.00  0.00    +0.119 C 
ENDBRANCH  23  29
ENDBRANCH  22  27
ENDBRANCH   1  22
TORSDOF 4
