REMARK  Name = ZINC66599718
REMARK  8 active torsions:
REMARK  status: ('A' for Active; 'I' for Inactive)
REMARK    1  A    between atoms: C_1  and  C_2
REMARK    2  A    between atoms: C_2  and  C_3
REMARK    3  A    between atoms: C_3  and  C_4
REMARK    4  A    between atoms: C_4  and  N_5
REMARK    5  A    between atoms: C_10  and  C_12
REMARK    6  A    between atoms: C_12  and  N_13
REMARK    7  A    between atoms: C_22  and  C_24
REMARK    8  A    between atoms: C_27  and  C_29
REMARK                            x       y       z     vdW  Elec       q    Type
REMARK                         _______ _______ _______ _____ _____    ______ ____
ROOT
ATOM      1  N   UNL     1       1.225  -3.961   0.149  0.00  0.00    -0.301 N 
ATOM      2  C   UNL     1       1.606  -4.124   1.432  0.00  0.00    +0.302 C 
ATOM      3  O   UNL     1       2.605  -4.766   1.692  0.00  0.00    -0.253 OA
ATOM      4  N   UNL     1       0.880  -3.574   2.425  0.00  0.00    -0.283 N 
ATOM      5  C   UNL     1       1.346  -3.642   3.818  0.00  0.00    +0.128 C 
ATOM      6  C   UNL     1       1.412  -2.218   4.383  0.00  0.00    +0.127 C 
ATOM      7  N   UNL     1       0.141  -1.539   4.094  0.00  0.00    -0.292 N 
ATOM      8  C   UNL     1      -0.324  -1.470   2.701  0.00  0.00    +0.127 C 
ATOM      9  C   UNL     1      -0.387  -2.889   2.135  0.00  0.00    +0.128 C 
ATOM     10  C   UNL     1      -0.585  -0.989   5.087  0.00  0.00    +0.282 C 
ATOM     11  O   UNL     1      -1.688  -0.532   4.854  0.00  0.00    -0.267 OA
ATOM     12  H   UNL     1       0.390  -3.512  -0.055  0.00  0.00    +0.150 HD
ENDROOT
BRANCH  10  13
ATOM     13  C   UNL     1      -0.045  -0.941   6.450  0.00  0.00    +0.190 A 
ATOM     14  C   UNL     1      -0.721  -0.544   7.568  0.00  0.00    +0.055 A 
ATOM     15  C   UNL     1       0.174  -0.658   8.643  0.00  0.00    +0.045 A 
ATOM     16  C   UNL     1       1.343  -1.113   8.141  0.00  0.00    +0.103 A 
ATOM     17  O   UNL     1       1.206  -1.287   6.820  0.00  0.00    -0.455 OA
ATOM     18  C   UNL     1       2.594  -1.384   8.936  0.00  0.00    +0.086 C 
ENDBRANCH  10  13
BRANCH   1  19
ATOM     19  C   UNL     1       2.071  -4.463  -0.936  0.00  0.00    +0.090 C 
BRANCH  19  25
ATOM     20  N   UNL     1       0.078  -4.489  -2.356  0.00  0.00    +0.383 N 
ATOM     21  C   UNL     1      -0.480  -4.161  -3.673  0.00  0.00    -0.078 C 
ATOM     22  C   UNL     1      -0.490  -2.642  -3.863  0.00  0.00    -0.019 C 
ATOM     23  C   UNL     1       0.943  -2.112  -3.767  0.00  0.00    -0.003 C 
ATOM     24  C   UNL     1       1.540  -2.524  -2.418  0.00  0.00    -0.014 C 
ATOM     25  C   UNL     1       1.476  -4.047  -2.282  0.00  0.00    -0.051 C 
ATOM     26  H   UNL     1      -0.460  -4.023  -1.640  0.00  0.00    -0.081 HD
BRANCH  20  27
ATOM     27  C   UNL     1       0.014  -5.941  -2.146  0.00  0.00    -0.078 C 
BRANCH  27  28
ATOM     28  C   UNL     1      -1.450  -6.383  -2.079  0.00  0.00    -0.019 C 
BRANCH  28  30
ATOM     29  C   UNL     1      -2.980  -8.337  -1.793  0.00  0.00    +0.004 C 
ATOM     30  C   UNL     1      -1.516  -7.896  -1.861  0.00  0.00    -0.005 C 
ENDBRANCH  28  30
ENDBRANCH  27  28
ENDBRANCH  20  27
ENDBRANCH  19  25
ENDBRANCH   1  19
TORSDOF 6
