REMARK  Name = ZINC00116845
REMARK  4 active torsions:
REMARK  status: ('A' for Active; 'I' for Inactive)
REMARK    1  A    between atoms: C_1  and  C_2
REMARK    2  A    between atoms: C_7  and  N_8
REMARK    3  A    between atoms: N_11  and  C_12
REMARK    4  A    between atoms: N_16  and  C_17
REMARK                            x       y       z     vdW  Elec       q    Type
REMARK                         _______ _______ _______ _____ _____    ______ ____
ROOT
ATOM      1  N   UNL     1       2.444   3.905   0.421  0.00  0.00    -0.269 N 
ATOM      2  C   UNL     1       2.398   5.245   0.288  0.00  0.00    +0.309 C 
ATOM      3  O   UNL     1       1.384   5.851   0.578  0.00  0.00    -0.252 OA
ATOM      4  N   UNL     1       3.477   5.914  -0.166  0.00  0.00    -0.253 N 
ATOM      5  H   UNL     1       3.271   3.428   0.249  0.00  0.00    +0.156 HD
ATOM      6  H   UNL     1       4.252   5.426  -0.484  0.00  0.00    +0.158 HD
ENDROOT
BRANCH   1  13
ATOM      7  C   UNL     1       2.782   1.363   1.653  0.00  0.00    +0.045 C 
ATOM      8  C   UNL     1       1.418   1.957   1.414  0.00  0.00    -0.029 A 
ATOM      9  C   UNL     1       0.285   1.264   1.796  0.00  0.00    +0.008 A 
ATOM     10  C   UNL     1      -0.967   1.804   1.572  0.00  0.00    +0.039 A 
ATOM     11  C   UNL     1      -1.090   3.047   0.974  0.00  0.00    +0.125 A 
ATOM     12  C   UNL     1       0.040   3.746   0.589  0.00  0.00    +0.062 A 
ATOM     13  C   UNL     1       1.298   3.201   0.809  0.00  0.00    +0.040 A 
ATOM     14  F   UNL     1      -2.316   3.575   0.760  0.00  0.00    -0.205 F 
ENDBRANCH   1  13
BRANCH   4  15
ATOM     15  C   UNL     1       3.478   7.310  -0.178  0.00  0.00    +0.138 A 
ATOM     16  C   UNL     1       4.431   8.119   0.360  0.00  0.00    +0.077 A 
ATOM     17  C   UNL     1       4.049   9.444   0.129  0.00  0.00    +0.151 A 
ATOM     18  N   UNL     1       2.913   9.440  -0.521  0.00  0.00    -0.177 NA
ATOM     19  N   UNL     1       2.531   8.109  -0.735  0.00  0.00    -0.252 N 
ATOM     20  C   UNL     1       1.323   7.660  -1.431  0.00  0.00    +0.174 C 
ATOM     21 BR   UNL     1       5.994   7.552   1.260  0.00  0.00    -0.045 Br
ENDBRANCH   4  15
TORSDOF 2
