REMARK  Name = ZINC67298667
REMARK  5 active torsions:
REMARK  status: ('A' for Active; 'I' for Inactive)
REMARK    1  A    between atoms: C_3  and  O_30
REMARK    2  A    between atoms: C_8  and  C_20
REMARK    3  A    between atoms: N_10  and  C_11
REMARK    4  A    between atoms: N_22  and  C_23
REMARK    5  A    between atoms: C_23  and  C_24
REMARK                            x       y       z     vdW  Elec       q    Type
REMARK                         _______ _______ _______ _____ _____    ______ ____
ROOT
ATOM      1  C   UNL     1      -0.244   1.188   1.535  0.00  0.00    +0.015 A 
ATOM      2  C   UNL     1       0.890   1.799   1.984  0.00  0.00    +0.046 A 
ATOM      3  C   UNL     1       2.108   1.123   1.973  0.00  0.00    +0.120 A 
ATOM      4  C   UNL     1       2.187  -0.177   1.494  0.00  0.00    +0.092 A 
ATOM      5  C   UNL     1       1.046  -0.809   1.030  0.00  0.00    +0.141 A 
ATOM      6  C   UNL     1      -0.190  -0.134   1.070  0.00  0.00    +0.018 A 
ATOM      7  C   UNL     1      -1.368  -0.791   0.635  0.00  0.00    +0.030 A 
ATOM      8  C   UNL     1      -1.302  -2.153   0.378  0.00  0.00    +0.097 A 
ATOM      9  C   UNL     1      -0.008  -2.825   0.610  0.00  0.00    +0.212 A 
ATOM     10  N   UNL     1       0.053  -4.110   0.882  0.00  0.00    -0.324 N 
ATOM     11  O   UNL     1       1.117  -2.068   0.531  0.00  0.00    -0.438 OA
ATOM     12  H   UNL     1      -0.763  -4.630   0.955  0.00  0.00    +0.169 HD
ENDROOT
BRANCH  10  13
ATOM     13  C   UNL     1       1.267  -4.714   1.064  0.00  0.00    +0.061 A 
ATOM     14  C   UNL     1       2.283  -4.543   0.121  0.00  0.00    +0.030 A 
ATOM     15  C   UNL     1       3.505  -5.154   0.309  0.00  0.00    +0.040 A 
ATOM     16  C   UNL     1       3.727  -5.937   1.431  0.00  0.00    +0.125 A 
ATOM     17  C   UNL     1       2.723  -6.112   2.370  0.00  0.00    +0.060 A 
ATOM     18  C   UNL     1       1.498  -5.500   2.196  0.00  0.00    +0.067 A 
ATOM     19 CL   UNL     1       0.244  -5.713   3.377  0.00  0.00    -0.081 Cl
ATOM     20  F   UNL     1       4.926  -6.533   1.609  0.00  0.00    -0.205 F 
ENDBRANCH  10  13
BRANCH   8  21
ATOM     21  C   UNL     1      -2.475  -2.898  -0.106  0.00  0.00    +0.249 C 
ATOM     22  O   UNL     1      -2.363  -4.066  -0.431  0.00  0.00    -0.270 OA
ATOM     23  N   UNL     1      -3.674  -2.288  -0.191  0.00  0.00    -0.309 N 
ATOM     24  H   UNL     1      -3.779  -1.379   0.132  0.00  0.00    +0.149 HD
BRANCH  23  25
ATOM     25  C   UNL     1      -4.818  -2.997  -0.769  0.00  0.00    +0.136 C 
BRANCH  25  26
ATOM     26  C   UNL     1      -6.047  -2.086  -0.746  0.00  0.00    +0.135 C 
ATOM     27  C   UNL     1      -7.285  -2.864  -1.241  0.00  0.00    +0.035 C 
ATOM     28  C   UNL     1      -8.028  -1.796  -2.090  0.00  0.00    +0.031 C 
ATOM     29  C   UNL     1      -6.833  -1.005  -2.678  0.00  0.00    +0.160 C 
ATOM     30  O   UNL     1      -5.848  -0.978  -1.631  0.00  0.00    -0.375 OA
ENDBRANCH  25  26
ENDBRANCH  23  25
ENDBRANCH   8  21
BRANCH   3  31
ATOM     31  O   UNL     1       3.226   1.739   2.434  0.00  0.00    -0.507 OA
ATOM     32  H   UNL     1       3.385   1.609   3.378  0.00  0.00    +0.292 HD
ENDBRANCH   3  31
TORSDOF 5
