REMARK  Name = ZINC02539528
REMARK  3 active torsions:
REMARK  status: ('A' for Active; 'I' for Inactive)
REMARK    1  A    between atoms: C_10  and  C_13
REMARK    2  A    between atoms: C_16  and  O_19
REMARK    3  A    between atoms: O_19  and  C_20
REMARK                            x       y       z     vdW  Elec       q    Type
REMARK                         _______ _______ _______ _____ _____    ______ ____
ROOT
ATOM      1  C   UNL     1      -1.325   5.943  -4.805  0.00  0.00    +0.001 A 
ATOM      2  C   UNL     1      -2.515   5.827  -4.103  0.00  0.00    +0.002 A 
ATOM      3  C   UNL     1      -2.524   5.877  -2.722  0.00  0.00    +0.024 A 
ATOM      4  C   UNL     1      -1.334   6.047  -2.035  0.00  0.00    +0.041 A 
ATOM      5  C   UNL     1      -0.126   6.169  -2.744  0.00  0.00    +0.058 A 
ATOM      6  C   UNL     1      -0.131   6.114  -4.136  0.00  0.00    +0.015 A 
ATOM      7  C   UNL     1       1.120   6.358  -1.979  0.00  0.00    +0.247 C 
ATOM      8  O   UNL     1       2.139   6.713  -2.541  0.00  0.00    -0.270 OA
ATOM      9  N   UNL     1       1.118   6.132  -0.649  0.00  0.00    -0.289 N 
ATOM     10  C   UNL     1      -0.074   5.628   0.032  0.00  0.00    +0.190 C 
ATOM     11  N   UNL     1      -1.287   6.101  -0.647  0.00  0.00    -0.322 N 
ATOM     12  H   UNL     1       1.921   6.308  -0.135  0.00  0.00    +0.151 HD
ATOM     13  H   UNL     1      -2.038   6.444  -0.138  0.00  0.00    +0.148 HD
ENDROOT
BRANCH  10  14
ATOM     14  C   UNL     1      -0.054   4.121   0.024  0.00  0.00    -0.009 A 
ATOM     15  C   UNL     1       1.153   3.447   0.009  0.00  0.00    +0.010 A 
ATOM     16  C   UNL     1       1.175   2.066   0.002  0.00  0.00    +0.046 A 
ATOM     17  C   UNL     1      -0.016   1.355   0.009  0.00  0.00    +0.127 A 
ATOM     18  C   UNL     1      -1.226   2.033   0.019  0.00  0.00    +0.046 A 
ATOM     19  C   UNL     1      -1.242   3.414   0.031  0.00  0.00    +0.010 A 
BRANCH  17  20
ATOM     20  O   UNL     1       0.002  -0.004   0.002  0.00  0.00    -0.434 OA
BRANCH  20  21
ATOM     21  C   UNL     1      -1.262  -0.670   0.011  0.00  0.00    +0.541 C 
ATOM     22  F   UNL     1      -1.971  -0.310   1.162  0.00  0.00    -0.166 F 
ATOM     23  F   UNL     1      -1.993  -0.298  -1.123  0.00  0.00    -0.166 F 
ENDBRANCH  20  21
ENDBRANCH  17  20
ENDBRANCH  10  14
TORSDOF 3
