REMARK  Name = ZINC13084807
REMARK  8 active torsions:
REMARK  status: ('A' for Active; 'I' for Inactive)
REMARK    1  A    between atoms: C_1  and  C_2
REMARK    2  A    between atoms: N_4  and  C_5
REMARK    3  A    between atoms: C_5  and  C_7
REMARK    4  A    between atoms: C_5  and  C_15
REMARK    5  A    between atoms: C_7  and  C_8
REMARK    6  A    between atoms: N_17  and  C_18
REMARK    7  A    between atoms: N_26  and  C_27
REMARK    8  A    between atoms: C_27  and  C_28
REMARK                            x       y       z     vdW  Elec       q    Type
REMARK                         _______ _______ _______ _____ _____    ______ ____
ROOT
ATOM      1  C   UNL     1      -0.414  -2.660   1.221  0.00  0.00    +0.234 C 
ATOM      2  O   UNL     1       0.343  -1.923   1.818  0.00  0.00    -0.274 OA
ATOM      3  N   UNL     1      -0.602  -3.923   1.650  0.00  0.00    -0.311 N 
ATOM      4  H   UNL     1      -1.208  -4.512   1.173  0.00  0.00    +0.149 HD
ENDROOT
BRANCH   3   5
ATOM      5  C   UNL     1       0.107  -4.408   2.837  0.00  0.00    +0.076 C 
ATOM      6  C   UNL     1      -0.675  -4.019   4.093  0.00  0.00    +0.041 C 
ATOM      7  C   UNL     1       0.088  -4.497   5.333  0.00  0.00    +0.111 C 
ATOM      8  N   UNL     1       0.345  -5.938   5.204  0.00  0.00    -0.286 N 
ATOM      9  C   UNL     1       1.011  -6.431   3.991  0.00  0.00    +0.111 C 
ATOM     10  C   UNL     1       0.238  -5.931   2.766  0.00  0.00    +0.041 C 
ATOM     11  C   UNL     1      -0.024  -6.791   6.180  0.00  0.00    +0.302 C 
ATOM     12  O   UNL     1      -0.490  -6.363   7.218  0.00  0.00    -0.253 OA
ATOM     13  N   UNL     1       0.125  -8.119   6.005  0.00  0.00    -0.295 N 
ATOM     14  H   UNL     1       0.565  -8.457   5.210  0.00  0.00    +0.151 HD
BRANCH  13  15
ATOM     15  C   UNL     1      -0.376  -9.052   7.018  0.00  0.00    +0.141 C 
BRANCH  15  16
ATOM     16  C   UNL     1      -0.086 -10.466   6.586  0.00  0.00    -0.030 A 
ATOM     17  C   UNL     1      -1.005 -11.157   5.819  0.00  0.00    +0.005 A 
ATOM     18  C   UNL     1      -0.739 -12.454   5.423  0.00  0.00    +0.000 A 
ATOM     19  C   UNL     1       0.447 -13.060   5.793  0.00  0.00    +0.000 A 
ATOM     20  C   UNL     1       1.367 -12.369   6.559  0.00  0.00    +0.000 A 
ATOM     21  C   UNL     1       1.103 -11.070   6.952  0.00  0.00    +0.005 A 
ENDBRANCH  15  16
ENDBRANCH  13  15
ENDBRANCH   3   5
BRANCH   1  22
ATOM     22  C   UNL     1      -1.144  -2.161   0.001  0.00  0.00    +0.163 C 
BRANCH  22  26
ATOM     23  C   UNL     1      -0.029   1.501   0.008  0.00  0.00    +0.109 C 
ATOM     24  C   UNL     1      -0.007  -0.006  -0.000  0.00  0.00    +0.211 C 
ATOM     25  O   UNL     1       1.051  -0.597  -0.014  0.00  0.00    -0.276 OA
ATOM     26  N   UNL     1      -1.165  -0.696   0.009  0.00  0.00    -0.304 N 
ATOM     27  H   UNL     1      -2.012  -0.223   0.020  0.00  0.00    +0.149 HD
ENDBRANCH  22  26
BRANCH  22  28
ATOM     28  C   UNL     1      -0.429  -2.655  -1.258  0.00  0.00    +0.067 C 
BRANCH  28  29
ATOM     29  C   UNL     1      -1.225  -2.261  -2.476  0.00  0.00    -0.045 A 
ATOM     30  C   UNL     1      -2.198  -3.110  -2.969  0.00  0.00    +0.006 A 
ATOM     31  C   UNL     1      -2.930  -2.750  -4.085  0.00  0.00    +0.038 A 
ATOM     32  C   UNL     1      -2.688  -1.538  -4.709  0.00  0.00    +0.123 A 
ATOM     33  C   UNL     1      -1.713  -0.688  -4.214  0.00  0.00    +0.038 A 
ATOM     34  C   UNL     1      -0.987  -1.048  -3.095  0.00  0.00    +0.006 A 
ATOM     35  F   UNL     1      -3.402  -1.185  -5.800  0.00  0.00    -0.205 F 
ENDBRANCH  28  29
ENDBRANCH  22  28
ENDBRANCH   1  22
TORSDOF 7
