REMARK  Name = ZINC00706106
REMARK  9 active torsions:
REMARK  status: ('A' for Active; 'I' for Inactive)
REMARK    1  A    between atoms: C_1  and  C_2
REMARK    2  A    between atoms: C_2  and  C_3
REMARK    3  A    between atoms: C_3  and  C_4
REMARK    4  A    between atoms: C_5  and  C_22
REMARK    5  A    between atoms: C_16  and  C_20
REMARK    6  A    between atoms: C_17  and  N_19
REMARK    7  A    between atoms: C_22  and  O_24
REMARK    8  A    between atoms: O_24  and  C_25
REMARK    9  A    between atoms: C_25  and  C_26
REMARK                            x       y       z     vdW  Elec       q    Type
REMARK                         _______ _______ _______ _____ _____    ______ ____
ROOT
ATOM      1  C   UNL     1      -1.609  -2.058   0.014  0.00  0.00    +0.119 C 
ATOM      2  C   UNL     1      -1.398  -2.698   1.173  0.00  0.00    +0.099 C 
ATOM      3  C   UNL     1      -1.157  -4.179   1.203  0.00  0.00    +0.148 C 
ATOM      4  C   UNL     1      -2.360  -4.900   1.757  0.00  0.00    -0.001 A 
ATOM      5  C   UNL     1      -3.670  -4.999   1.345  0.00  0.00    +0.007 A 
ATOM      6  C   UNL     1      -4.569  -5.755   2.076  0.00  0.00    +0.000 A 
ATOM      7  C   UNL     1      -4.149  -6.408   3.220  0.00  0.00    +0.002 A 
ATOM      8  C   UNL     1      -2.838  -6.311   3.637  0.00  0.00    +0.023 A 
ATOM      9  C   UNL     1      -1.926  -5.552   2.905  0.00  0.00    +0.038 A 
ATOM     10  N   UNL     1      -0.569  -5.303   3.118  0.00  0.00    -0.284 N 
ATOM     11  C   UNL     1      -0.043  -4.509   2.169  0.00  0.00    +0.238 C 
ATOM     12  O   UNL     1       1.107  -4.130   2.102  0.00  0.00    -0.274 OA
ATOM     13  C   UNL     1      -0.823  -4.689  -0.169  0.00  0.00    +0.110 C 
ATOM     14  C   UNL     1      -1.068  -3.928  -1.266  0.00  0.00    +0.199 C 
ATOM     15  O   UNL     1      -1.621  -2.704  -1.162  0.00  0.00    -0.445 OA
ATOM     16  H   UNL     1      -0.064  -5.662   3.865  0.00  0.00    +0.155 HD
ENDROOT
BRANCH  14  17
ATOM     17  N   UNL     1      -0.750  -4.419  -2.508  0.00  0.00    -0.328 N 
ATOM     18  H   UNL     1      -0.355  -5.301  -2.594  0.00  0.00    +0.145 HD
ATOM     19  H   UNL     1      -0.921  -3.884  -3.299  0.00  0.00    +0.145 HD
ENDBRANCH  14  17
BRANCH  13  20
ATOM     20  C   UNL     1      -0.241  -5.989  -0.322  0.00  0.00    +0.102 C 
ATOM     21  N   UNL     1       0.220  -7.019  -0.443  0.00  0.00    -0.191 NA
ENDBRANCH  13  20
BRANCH   2  22
ATOM     22  C   UNL     1      -1.403  -1.966   2.386  0.00  0.00    +0.340 C 
ATOM     23  O   UNL     1      -2.390  -1.974   3.098  0.00  0.00    -0.245 OA
BRANCH  22  24
ATOM     24  O   UNL     1      -0.313  -1.260   2.752  0.00  0.00    -0.462 OA
BRANCH  24  25
ATOM     25  C   UNL     1      -0.388  -0.546   3.988  0.00  0.00    +0.229 C 
ATOM     26  C   UNL     1       0.932   0.189   4.233  0.00  0.00    +0.048 C 
ENDBRANCH  24  25
ENDBRANCH  22  24
ENDBRANCH   2  22
BRANCH   1  27
ATOM     27  C   UNL     1      -1.847  -0.570   0.033  0.00  0.00    +0.075 C 
BRANCH  27  29
ATOM     28  C   UNL     1      -0.775   1.671  -0.243  0.00  0.00    +0.004 C 
ATOM     29  C   UNL     1      -0.535   0.160  -0.262  0.00  0.00    +0.004 C 
ENDBRANCH  27  29
ENDBRANCH   1  27
TORSDOF 7
