REMARK  Name = ZINC03864200
REMARK  4 active torsions:
REMARK  status: ('A' for Active; 'I' for Inactive)
REMARK    1  A    between atoms: C_1  and  C_2
REMARK    2  A    between atoms: C_2  and  C_3
REMARK    3  A    between atoms: C_9  and  C_10
REMARK    4  A    between atoms: C_13  and  C_15
REMARK                            x       y       z     vdW  Elec       q    Type
REMARK                         _______ _______ _______ _____ _____    ______ ____
ROOT
ATOM      1  C   UNL     1       1.403  -0.575  -1.664  0.00  0.00    +0.100 C 
ATOM      2  N   UNL     1       0.278  -0.002  -1.343  0.00  0.00    -0.169 NA
ATOM      3  N   UNL     1       0.225   1.337  -1.018  0.00  0.00    -0.152 N 
ATOM      4  C   UNL     1      -0.925   2.037  -0.593  0.00  0.00    +0.153 C 
ATOM      5  N   UNL     1      -1.974   1.448  -0.078  0.00  0.00    -0.283 NA
ATOM      6  C   UNL     1      -0.829   3.508  -0.789  0.00  0.00    +0.084 C 
ATOM      7  C   UNL     1      -1.942   4.279  -1.090  0.00  0.00    +0.063 C 
ATOM      8  C   UNL     1       0.518   4.106  -0.646  0.00  0.00    +0.273 C 
ATOM      9  O   UNL     1       0.655   5.276  -0.327  0.00  0.00    -0.268 OA
ATOM     10  N   UNL     1       1.589   3.320  -0.878  0.00  0.00    -0.152 NA
ATOM     11  C   UNL     1       1.409   2.040  -1.085  0.00  0.00    +0.181 C 
ATOM     12  S   UNL     1       2.565   0.778  -1.551  0.00  0.00    -0.038 S 
ATOM     13  H   UNL     1      -1.986   0.484   0.028  0.00  0.00    +0.188 HD
ENDROOT
BRANCH   7  14
ATOM     14  C   UNL     1      -3.164   3.659  -1.397  0.00  0.00    +0.129 A 
ATOM     15  C   UNL     1      -4.379   4.302  -1.583  0.00  0.00    +0.050 A 
ATOM     16  C   UNL     1      -5.319   3.312  -1.867  0.00  0.00    +0.050 A 
ATOM     17  C   UNL     1      -4.654   2.104  -1.845  0.00  0.00    +0.137 A 
ATOM     18  O   UNL     1      -3.359   2.333  -1.566  0.00  0.00    -0.455 OA
BRANCH  17  19
ATOM     19  C   UNL     1      -5.261   0.783  -2.092  0.00  0.00    +0.036 A 
ATOM     20  C   UNL     1      -4.675  -0.099  -3.004  0.00  0.00    +0.013 A 
ATOM     21  C   UNL     1      -5.247  -1.333  -3.231  0.00  0.00    +0.001 A 
ATOM     22  C   UNL     1      -6.400  -1.699  -2.558  0.00  0.00    +0.001 A 
ATOM     23  C   UNL     1      -6.987  -0.832  -1.654  0.00  0.00    +0.021 A 
ATOM     24  C   UNL     1      -6.422   0.404  -1.412  0.00  0.00    +0.052 A 
ATOM     25 CL   UNL     1      -7.155   1.488  -0.271  0.00  0.00    -0.083 Cl
ENDBRANCH  17  19
ENDBRANCH   7  14
BRANCH   1  27
ATOM     26  C   UNL     1       0.343  -2.793  -1.990  0.00  0.00    +0.011 C 
ATOM     27  C   UNL     1       1.659  -2.013  -2.035  0.00  0.00    +0.061 C 
ENDBRANCH   1  27
TORSDOF 3
