REMARK  Name = ZINC22014295
REMARK  7 active torsions:
REMARK  status: ('A' for Active; 'I' for Inactive)
REMARK    1  A    between atoms: C_1  and  N_2
REMARK    2  A    between atoms: N_2  and  C_3
REMARK    3  A    between atoms: C_4  and  C_6
REMARK    4  A    between atoms: N_11  and  C_12
REMARK    5  A    between atoms: C_12  and  C_13
REMARK    6  A    between atoms: N_15  and  C_16
REMARK    7  A    between atoms: C_16  and  C_17
REMARK                            x       y       z     vdW  Elec       q    Type
REMARK                         _______ _______ _______ _____ _____    ______ ____
ROOT
ATOM      1  C   UNL     1      -2.940   3.241   5.272  0.00  0.00    +0.205 C 
ATOM      2  O   UNL     1      -3.540   3.869   4.426  0.00  0.00    -0.277 OA
ATOM      3  N   UNL     1      -2.124   2.232   4.909  0.00  0.00    -0.248 N 
ATOM      4  C   UNL     1      -1.888   1.978   3.563  0.00  0.00    +0.168 A 
ATOM      5  N   UNL     1      -2.364   2.604   2.507  0.00  0.00    -0.229 NA
ATOM      6  C   UNL     1      -2.046   2.244   1.266  0.00  0.00    +0.054 A 
ATOM      7  C   UNL     1      -1.199   1.188   1.151  0.00  0.00    +0.014 A 
ATOM      8  S   UNL     1      -0.890   0.752   2.840  0.00  0.00    -0.057 S 
ATOM      9  C   UNL     1      -0.675   0.569  -0.100  0.00  0.00    +0.044 C 
ATOM     10  C   UNL     1      -1.523   1.073  -1.279  0.00  0.00    +0.006 C 
ATOM     11  C   UNL     1      -1.671   2.593  -1.163  0.00  0.00    +0.006 C 
ATOM     12  C   UNL     1      -2.575   2.944   0.019  0.00  0.00    +0.056 C 
ENDROOT
BRANCH   1  13
ATOM     13  C   UNL     1      -3.107   3.588   6.729  0.00  0.00    +0.020 C 
BRANCH  13  18
ATOM     14  C   UNL     1      -4.328   5.027   8.268  0.00  0.00    +0.020 C 
ATOM     15  C   UNL     1      -4.701   6.524   8.325  0.00  0.00    -0.008 C 
ATOM     16  C   UNL     1      -3.947   7.170   7.144  0.00  0.00    -0.020 C 
ATOM     17  C   UNL     1      -3.181   6.008   6.474  0.00  0.00    -0.077 C 
ATOM     18  N   UNL     1      -3.942   4.790   6.853  0.00  0.00    +0.393 N 
ATOM     19  H   UNL     1      -4.809   4.609   6.200  0.00  0.00    -0.080 HD
BRANCH  14  23
ATOM     20  C   UNL     1      -7.177   3.405  10.245  0.00  0.00    +0.131 C 
ATOM     21  N   UNL     1      -6.025   4.235   9.885  0.00  0.00    -0.309 N 
ATOM     22  C   UNL     1      -5.430   5.133  10.877  0.00  0.00    +0.131 C 
ATOM     23  C   UNL     1      -5.513   4.173   8.639  0.00  0.00    +0.202 C 
ATOM     24  O   UNL     1      -6.006   3.429   7.818  0.00  0.00    -0.277 OA
ENDBRANCH  14  23
ENDBRANCH  13  18
ENDBRANCH   1  13
BRANCH   3  25
ATOM     25  C   UNL     1      -1.484   1.402   5.934  0.00  0.00    +0.150 C 
BRANCH  25  26
ATOM     26  C   UNL     1      -2.307   0.161   6.161  0.00  0.00    -0.030 A 
ATOM     27  C   UNL     1      -3.350   0.179   7.068  0.00  0.00    +0.005 A 
ATOM     28  C   UNL     1      -4.108  -0.959   7.273  0.00  0.00    +0.000 A 
ATOM     29  C   UNL     1      -3.817  -2.118   6.577  0.00  0.00    +0.000 A 
ATOM     30  C   UNL     1      -2.771  -2.138   5.674  0.00  0.00    +0.000 A 
ATOM     31  C   UNL     1      -2.016  -0.999   5.466  0.00  0.00    +0.005 A 
ENDBRANCH  25  26
ENDBRANCH   3  25
TORSDOF 5
