REMARK  Name = ZINC40131442
REMARK  4 active torsions:
REMARK  status: ('A' for Active; 'I' for Inactive)
REMARK    1  A    between atoms: C_10  and  C_11
REMARK    2  A    between atoms: C_14  and  O_17
REMARK    3  A    between atoms: O_17  and  C_18
REMARK    4  A    between atoms: C_18  and  C_20
REMARK                            x       y       z     vdW  Elec       q    Type
REMARK                         _______ _______ _______ _____ _____    ______ ____
ROOT
ATOM      1  C   UNL     1       5.311  -3.055   0.043  0.00  0.00    -0.021 A 
ATOM      2  C   UNL     1       5.877  -1.778   0.149  0.00  0.00    +0.011 A 
ATOM      3  C   UNL     1       7.243  -1.638   0.239  0.00  0.00    +0.047 A 
ATOM      4  C   UNL     1       8.062  -2.762   0.225  0.00  0.00    +0.132 A 
ATOM      5  C   UNL     1       7.506  -4.032   0.119  0.00  0.00    +0.047 A 
ATOM      6  C   UNL     1       6.141  -4.184   0.035  0.00  0.00    +0.011 A 
ENDROOT
BRANCH   1  16
ATOM      7  C   UNL     1       1.017  -8.497   0.075  0.00  0.00    +0.001 A 
ATOM      8  C   UNL     1       2.329  -8.946   0.068  0.00  0.00    +0.004 A 
ATOM      9  C   UNL     1       3.379  -8.053   0.040  0.00  0.00    +0.047 A 
ATOM     10  C   UNL     1       3.132  -6.684   0.017  0.00  0.00    +0.140 A 
ATOM     11  C   UNL     1       1.804  -6.233   0.023  0.00  0.00    +0.068 A 
ATOM     12  C   UNL     1       0.750  -7.145   0.052  0.00  0.00    +0.015 A 
ATOM     13  C   UNL     1       1.864  -4.759  -0.004  0.00  0.00    +0.231 C 
ATOM     14  O   UNL     1       0.932  -3.974  -0.008  0.00  0.00    -0.283 OA
ATOM     15  C   UNL     1       3.301  -4.450  -0.026  0.00  0.00    +0.176 C 
ATOM     16  C   UNL     1       3.855  -3.210  -0.054  0.00  0.00    +0.058 C 
ATOM     17  O   UNL     1       3.971  -5.626  -0.011  0.00  0.00    -0.451 OA
ENDBRANCH   1  16
BRANCH   4  18
ATOM     18  O   UNL     1       9.409  -2.618   0.314  0.00  0.00    -0.422 OA
BRANCH  18  19
ATOM     19  C   UNL     1       9.935  -2.316   1.520  0.00  0.00    +0.351 C 
ATOM     20  O   UNL     1       9.202  -2.091   2.464  0.00  0.00    -0.244 OA
BRANCH  19  21
ATOM     21  C   UNL     1      11.388  -2.258   1.690  0.00  0.00    +0.097 A 
ATOM     22  C   UNL     1      12.124  -1.976   2.832  0.00  0.00    +0.022 A 
ATOM     23  C   UNL     1      13.489  -1.996   2.682  0.00  0.00    +0.008 A 
ATOM     24  C   UNL     1      14.014  -2.283   1.464  0.00  0.00    +0.046 A 
ATOM     25  S   UNL     1      12.672  -2.541   0.487  0.00  0.00    -0.090 S 
ENDBRANCH  19  21
ENDBRANCH  18  19
ENDBRANCH   4  18
TORSDOF 4
