REMARK  Name = ZINC54103248
REMARK  5 active torsions:
REMARK  status: ('A' for Active; 'I' for Inactive)
REMARK    1  A    between atoms: C_5  and  O_7
REMARK    2  A    between atoms: O_7  and  C_8
REMARK    3  A    between atoms: C_8  and  C_9
REMARK    4  A    between atoms: N_11  and  N_12
REMARK    5  A    between atoms: N_15  and  C_16
REMARK                            x       y       z     vdW  Elec       q    Type
REMARK                         _______ _______ _______ _____ _____    ______ ____
ROOT
ATOM      1  N   UNL     1      -0.661  -6.422  -0.027  0.00  0.00    -0.218 N 
ATOM      2  C   UNL     1      -1.718  -7.259  -0.021  0.00  0.00    +0.316 C 
ATOM      3  O   UNL     1      -1.540  -8.462  -0.030  0.00  0.00    -0.251 OA
ATOM      4  N   UNL     1      -2.971  -6.763  -0.006  0.00  0.00    -0.295 N 
ATOM      5  H   UNL     1       0.240  -6.779  -0.039  0.00  0.00    +0.174 HD
ATOM      6  H   UNL     1      -3.112  -5.803   0.001  0.00  0.00    +0.151 HD
ENDROOT
BRANCH   4   7
ATOM      7  C   UNL     1      -4.119  -7.673   0.001  0.00  0.00    +0.074 C 
ATOM      8  C   UNL     1      -4.455  -8.080  -1.436  0.00  0.00    +0.022 C 
ATOM      9  C   UNL     1      -5.367  -9.308  -1.417  0.00  0.00    +0.002 C 
ATOM     10  C   UNL     1      -4.843 -10.317  -0.393  0.00  0.00    +0.000 C 
ATOM     11  C   UNL     1      -5.838 -10.434   0.763  0.00  0.00    +0.000 C 
ATOM     12  C   UNL     1      -5.712  -9.206   1.669  0.00  0.00    +0.000 C 
ATOM     13  C   UNL     1      -6.385  -8.007   0.998  0.00  0.00    +0.002 C 
ATOM     14  C   UNL     1      -5.324  -6.968   0.626  0.00  0.00    +0.022 C 
ENDBRANCH   4   7
BRANCH   1  17
ATOM     15  C   UNL     1       0.190  -4.199  -0.023  0.00  0.00    +0.267 C 
ATOM     16  O   UNL     1       1.318  -4.645  -0.037  0.00  0.00    -0.271 OA
ATOM     17  N   UNL     1      -0.866  -5.036  -0.018  0.00  0.00    -0.230 N 
ATOM     18  H   UNL     1      -1.768  -4.679  -0.006  0.00  0.00    +0.173 HD
BRANCH  15  19
ATOM     19  C   UNL     1      -0.030  -2.708  -0.013  0.00  0.00    +0.326 C 
BRANCH  19  20
ATOM     20  O   UNL     1       1.233  -2.040  -0.022  0.00  0.00    -0.480 OA
BRANCH  20  25
ATOM     21  C   UNL     1      -0.017   1.378   0.010  0.00  0.00    +0.004 A 
ATOM     22  C   UNL     1       1.170   2.087   0.002  0.00  0.00    +0.003 A 
ATOM     23  C   UNL     1       2.379   1.417  -0.013  0.00  0.00    +0.042 A 
ATOM     24  C   UNL     1       2.404   0.034  -0.022  0.00  0.00    +0.165 A 
ATOM     25  C   UNL     1       1.212  -0.680  -0.014  0.00  0.00    +0.156 A 
ATOM     26  C   UNL     1       0.002  -0.004   0.002  0.00  0.00    +0.048 A 
ATOM     27  F   UNL     1       3.585  -0.622  -0.038  0.00  0.00    -0.202 F 
ENDBRANCH  20  25
ENDBRANCH  19  20
ENDBRANCH  15  19
ENDBRANCH   1  17
TORSDOF 5
