REMARK  Name = ZINC66610073
REMARK  11 active torsions:
REMARK  status: ('A' for Active; 'I' for Inactive)
REMARK    1  A    between atoms: C_1  and  C_2
REMARK    2  A    between atoms: C_5  and  O_28
REMARK    3  A    between atoms: C_6  and  C_8
REMARK    4  A    between atoms: C_8  and  C_10
REMARK    5  A    between atoms: C_8  and  N_11
REMARK    6  A    between atoms: N_11  and  C_12
REMARK    7  A    between atoms: C_12  and  C_14
REMARK    8  A    between atoms: C_12  and  C_15
REMARK    9  A    between atoms: C_17  and  C_20
REMARK   10  A    between atoms: C_23  and  C_27
REMARK   11  A    between atoms: O_28  and  C_29
REMARK                            x       y       z     vdW  Elec       q    Type
REMARK                         _______ _______ _______ _____ _____    ______ ____
ROOT
ATOM      1  C   UNL     1      -0.633  -2.792   4.792  0.00  0.00    +0.016 C 
ATOM      2  C   UNL     1      -1.611  -3.950   4.592  0.00  0.00    -0.004 C 
ENDROOT
BRANCH   1   3
ATOM      3  C   UNL     1      -1.124  -1.906   5.907  0.00  0.00    +0.213 A 
ATOM      4  N   UNL     1      -0.628  -1.850   7.110  0.00  0.00    -0.193 NA
ATOM      5  C   UNL     1      -1.306  -0.953   7.848  0.00  0.00    +0.202 A 
ATOM      6  N   UNL     1      -2.249  -0.428   7.105  0.00  0.00    -0.056 NA
ATOM      7  O   UNL     1      -2.141  -1.038   5.827  0.00  0.00    -0.339 OA
BRANCH   5   8
ATOM      8  C   UNL     1      -1.032  -0.615   9.267  0.00  0.00    +0.025 A 
ATOM      9  C   UNL     1       0.008  -1.244   9.947  0.00  0.00    +0.012 A 
ATOM     10  C   UNL     1       0.260  -0.926  11.267  0.00  0.00    +0.007 A 
ATOM     11  C   UNL     1      -0.520   0.014  11.915  0.00  0.00    -0.015 A 
ATOM     12  C   UNL     1      -1.556   0.643  11.245  0.00  0.00    +0.127 A 
ATOM     13  C   UNL     1      -1.811   0.337   9.921  0.00  0.00    +0.050 A 
ATOM     14  F   UNL     1      -2.314   1.561  11.883  0.00  0.00    -0.205 F 
ATOM     15  C   UNL     1      -0.240   0.356  13.356  0.00  0.00    +0.047 C 
ENDBRANCH   5   8
ENDBRANCH   1   3
BRANCH   1  16
ATOM     16  N   UNL     1      -0.539  -2.010   3.551  0.00  0.00    +0.391 N 
ATOM     17  H   UNL     1       0.042  -1.200   3.707  0.00  0.00    -0.084 HD
ATOM     18  H   UNL     1      -1.461  -1.714   3.270  0.00  0.00    -0.084 HD
BRANCH  16  19
ATOM     19  C   UNL     1       0.052  -2.841   2.493  0.00  0.00    -0.039 C 
ATOM     20  C   UNL     1       1.496  -3.187   2.864  0.00  0.00    -0.009 C 
BRANCH  19  26
ATOM     21  C   UNL     1      -0.018   1.503   0.010  0.00  0.00    +0.044 C 
ATOM     22  C   UNL     1       0.002  -0.004   0.002  0.00  0.00    -0.050 A 
ATOM     23  C   UNL     1       0.006  -0.688  -1.200  0.00  0.00    +0.007 A 
ATOM     24  C   UNL     1       0.024  -2.069  -1.210  0.00  0.00    +0.046 A 
ATOM     25  C   UNL     1       0.039  -2.770  -0.013  0.00  0.00    +0.122 A 
ATOM     26  C   UNL     1       0.036  -2.082   1.191  0.00  0.00    -0.020 A 
ATOM     27  C   UNL     1       0.023  -0.701   1.196  0.00  0.00    +0.009 A 
BRANCH  25  28
ATOM     28  O   UNL     1       0.057  -4.129  -0.021  0.00  0.00    -0.495 OA
ATOM     29  C   UNL     1       0.058  -4.771  -1.298  0.00  0.00    +0.277 C 
ENDBRANCH  25  28
ENDBRANCH  19  26
ENDBRANCH  16  19
ENDBRANCH   1  16
TORSDOF 6
