REMARK  Name = ZINC02856197
REMARK  3 active torsions:
REMARK  status: ('A' for Active; 'I' for Inactive)
REMARK    1  A    between atoms: C_6  and  N_7
REMARK    2  A    between atoms: N_7  and  S_8
REMARK    3  A    between atoms: S_8  and  C_11
REMARK                            x       y       z     vdW  Elec       q    Type
REMARK                         _______ _______ _______ _____ _____    ______ ____
ROOT
ATOM      1  S   UNL     1      -1.079  -0.765   0.999  0.00  0.00    +0.072 S 
ATOM      2  O   UNL     1      -0.879  -2.161   0.820  0.00  0.00    -0.150 OA
ATOM      3  O   UNL     1      -0.977  -0.138   2.269  0.00  0.00    -0.150 OA
ENDROOT
BRANCH   1   4
ATOM      4  C   UNL     1      -2.693  -0.406   0.388  0.00  0.00    +0.111 A 
ATOM      5  C   UNL     1      -3.320  -1.296  -0.467  0.00  0.00    +0.031 A 
ATOM      6  C   UNL     1      -4.584  -1.024  -0.951  0.00  0.00    +0.030 A 
ATOM      7  C   UNL     1      -5.229   0.146  -0.578  0.00  0.00    +0.067 A 
ATOM      8  C   UNL     1      -4.596   1.043   0.285  0.00  0.00    +0.069 A 
ATOM      9  C   UNL     1      -3.329   0.759   0.769  0.00  0.00    +0.056 A 
ATOM     10  N   UNL     1      -5.475   2.107   0.474  0.00  0.00    -0.306 N 
ATOM     11  H   UNL     1      -5.311   2.888   1.027  0.00  0.00    +0.170 HD
ATOM     12  C   UNL     1      -6.591   1.868  -0.241  0.00  0.00    +0.325 A 
ATOM     13  O   UNL     1      -7.559   2.603  -0.295  0.00  0.00    -0.247 OA
ATOM     14  N   UNL     1      -6.472   0.693  -0.886  0.00  0.00    -0.306 N 
ATOM     15  H   UNL     1      -7.139   0.294  -1.467  0.00  0.00    +0.170 HD
ENDBRANCH   1   4
BRANCH   1  16
ATOM     16  N   UNL     1       0.002  -0.001   0.004  0.00  0.00    -0.216 N 
ATOM     17  H   UNL     1       0.590   0.682   0.362  0.00  0.00    +0.174 HD
BRANCH  16  23
ATOM     18  C   UNL     1       0.093  -1.674  -1.732  0.00  0.00    +0.025 A 
ATOM     19  C   UNL     1       0.150  -2.006  -3.072  0.00  0.00    +0.016 A 
ATOM     20  C   UNL     1       0.194  -1.010  -4.031  0.00  0.00    +0.013 A 
ATOM     21  C   UNL     1       0.173   0.320  -3.653  0.00  0.00    +0.016 A 
ATOM     22  C   UNL     1       0.110   0.658  -2.315  0.00  0.00    +0.025 A 
ATOM     23  C   UNL     1       0.066  -0.339  -1.349  0.00  0.00    +0.048 A 
ATOM     24  I   UNL     1       0.290  -1.518  -6.061  0.00  0.00    -0.044 I 
ENDBRANCH  16  23
ENDBRANCH   1  16
TORSDOF 3
