REMARK  Name = ZINC16428103
REMARK  4 active torsions:
REMARK  status: ('A' for Active; 'I' for Inactive)
REMARK    1  A    between atoms: C_3  and  O_25
REMARK    2  A    between atoms: C_6  and  N_7
REMARK    3  A    between atoms: N_10  and  C_13
REMARK    4  A    between atoms: N_23  and  O_24
REMARK                            x       y       z     vdW  Elec       q    Type
REMARK                         _______ _______ _______ _____ _____    ______ ____
ROOT
ATOM      1  N   UNL     1      -1.316  -0.553   0.013  0.00  0.00    -0.327 N 
ATOM      2  C   UNL     1      -2.694  -0.045  -0.071  0.00  0.00    +0.120 C 
ATOM      3  C   UNL     1      -3.512  -0.667   1.066  0.00  0.00    +0.104 C 
ATOM      4  N   UNL     1      -3.385  -2.129   1.014  0.00  0.00    -0.291 NA
ATOM      5  C   UNL     1      -1.995  -2.552   1.233  0.00  0.00    +0.104 C 
ATOM      6  C   UNL     1      -1.115  -2.008   0.097  0.00  0.00    +0.120 C 
ENDROOT
BRANCH   4   7
ATOM      7  C   UNL     1      -4.288  -2.771   1.978  0.00  0.00    +0.108 C 
ATOM      8  C   UNL     1      -5.763  -2.342   1.708  0.00  0.00    +0.013 C 
ATOM      9  C   UNL     1      -6.552  -2.876   2.943  0.00  0.00    +0.006 C 
ATOM     10  C   UNL     1      -6.527  -4.413   2.782  0.00  0.00    +0.010 C 
ATOM     11  C   UNL     1      -5.732  -4.657   1.462  0.00  0.00    +0.039 C 
ATOM     12  C   UNL     1      -6.162  -3.389   0.609  0.00  0.00    +0.015 C 
ATOM     13  C   UNL     1      -4.278  -4.281   1.790  0.00  0.00    +0.078 C 
ATOM     14  N   UNL     1      -3.277  -5.070   1.905  0.00  0.00    -0.095 NA
BRANCH  14  15
ATOM     15  O   UNL     1      -3.444  -6.460   1.694  0.00  0.00    -0.409 OA
ATOM     16  H   UNL     1      -2.633  -6.975   1.804  0.00  0.00    +0.328 HD
ENDBRANCH  14  15
ENDBRANCH   4   7
BRANCH   1  22
ATOM     17  C   UNL     1       1.060  -0.165   0.200  0.00  0.00    +0.027 A 
ATOM     18  C   UNL     1       2.135   0.701   0.194  0.00  0.00    +0.047 A 
ATOM     19  C   UNL     1       1.932   2.059  -0.006  0.00  0.00    +0.117 A 
ATOM     20  C   UNL     1       0.648   2.548  -0.199  0.00  0.00    +0.047 A 
ATOM     21  C   UNL     1      -0.428   1.683  -0.193  0.00  0.00    +0.027 A 
ATOM     22  C   UNL     1      -0.226   0.324   0.007  0.00  0.00    +0.030 A 
BRANCH  19  23
ATOM     23  O   UNL     1       2.992   2.911  -0.011  0.00  0.00    -0.507 OA
ATOM     24  H   UNL     1       3.386   3.043  -0.885  0.00  0.00    +0.292 HD
ENDBRANCH  19  23
ENDBRANCH   1  22
TORSDOF 4
