REMARK  Name = ZINC05683150
REMARK  3 active torsions:
REMARK  status: ('A' for Active; 'I' for Inactive)
REMARK    1  A    between atoms: C_4  and  C_7
REMARK    2  A    between atoms: C_7  and  N_8
REMARK    3  A    between atoms: C_14  and  C_17
REMARK                            x       y       z     vdW  Elec       q    Type
REMARK                         _______ _______ _______ _____ _____    ______ ____
ROOT
ATOM      1  N   UNL     1       0.026  -0.500   1.380  0.00  0.00    -0.295 N 
ATOM      2  C   UNL     1       0.042  -1.826   1.619  0.00  0.00    +0.302 C 
ATOM      3  O   UNL     1      -0.052  -2.612   0.696  0.00  0.00    -0.253 OA
ATOM      4  N   UNL     1       0.162  -2.281   2.882  0.00  0.00    -0.286 N 
ATOM      5  C   UNL     1       0.168  -1.348   4.017  0.00  0.00    +0.110 C 
ATOM      6  C   UNL     1      -0.910  -1.791   5.019  0.00  0.00    +0.032 C 
ATOM      7  C   UNL     1      -0.669  -3.252   5.406  0.00  0.00    +0.078 C 
ATOM      8  C   UNL     1      -0.778  -4.135   4.161  0.00  0.00    +0.032 C 
ATOM      9  C   UNL     1       0.296  -3.720   3.150  0.00  0.00    +0.110 C 
ATOM     10  H   UNL     1       0.028   0.127   2.120  0.00  0.00    +0.151 HD
ENDROOT
BRANCH   7  11
ATOM     11  C   UNL     1      -1.702  -3.680   6.416  0.00  0.00    +0.200 A 
ATOM     12  N   UNL     1      -2.985  -3.673   6.215  0.00  0.00    -0.213 NA
ATOM     13  C   UNL     1      -3.607  -4.125   7.338  0.00  0.00    +0.110 A 
ATOM     14  C   UNL     1      -4.944  -4.328   7.687  0.00  0.00    +0.031 A 
ATOM     15  C   UNL     1      -5.258  -4.804   8.940  0.00  0.00    +0.002 A 
ATOM     16  C   UNL     1      -4.255  -5.082   9.857  0.00  0.00    +0.004 A 
ATOM     17  C   UNL     1      -2.930  -4.886   9.526  0.00  0.00    +0.048 A 
ATOM     18  C   UNL     1      -2.596  -4.407   8.268  0.00  0.00    +0.155 A 
ATOM     19  O   UNL     1      -1.427  -4.117   7.655  0.00  0.00    -0.439 OA
ENDBRANCH   7  11
BRANCH   1  20
ATOM     20  C   UNL     1       0.006  -0.004   0.001  0.00  0.00    +0.141 C 
BRANCH  20  24
ATOM     21  C   UNL     1      -0.036   4.267   0.023  0.00  0.00    +0.000 A 
ATOM     22  C   UNL     1       1.168   3.588   0.006  0.00  0.00    +0.000 A 
ATOM     23  C   UNL     1       1.182   2.205  -0.000  0.00  0.00    +0.005 A 
ATOM     24  C   UNL     1      -0.009   1.502   0.009  0.00  0.00    -0.030 A 
ATOM     25  C   UNL     1      -1.212   2.182   0.020  0.00  0.00    +0.005 A 
ATOM     26  C   UNL     1      -1.226   3.564   0.032  0.00  0.00    +0.000 A 
ENDBRANCH  20  24
ENDBRANCH   1  20
TORSDOF 3
