REMARK  Name = ZINC63584051
REMARK  4 active torsions:
REMARK  status: ('A' for Active; 'I' for Inactive)
REMARK    1  A    between atoms: C_6  and  N_7
REMARK    2  A    between atoms: N_7  and  C_8
REMARK    3  A    between atoms: C_14  and  C_16
REMARK    4  A    between atoms: C_18  and  N_19
REMARK                            x       y       z     vdW  Elec       q    Type
REMARK                         _______ _______ _______ _____ _____    ______ ____
ROOT
ATOM      1  C   UNL     1      -1.177  -2.185   0.002  0.00  0.00    +0.073 C 
ATOM      2  C   UNL     1      -1.057  -2.686  -1.439  0.00  0.00    +0.041 C 
ATOM      3  C   UNL     1      -1.000  -4.216  -1.441  0.00  0.00    +0.109 C 
ATOM      4  N   UNL     1      -2.170  -4.734  -0.719  0.00  0.00    -0.301 N 
ATOM      5  C   UNL     1      -2.431  -4.249   0.643  0.00  0.00    +0.109 C 
ATOM      6  C   UNL     1      -2.472  -2.717   0.622  0.00  0.00    +0.041 C 
ATOM      7  C   UNL     1      -2.989  -5.636  -1.295  0.00  0.00    +0.221 C 
ATOM      8  O   UNL     1      -2.764  -6.029  -2.420  0.00  0.00    -0.275 OA
ENDROOT
BRANCH   7   9
ATOM      9  C   UNL     1      -4.185  -6.157  -0.541  0.00  0.00    +0.107 C 
ATOM     10  C   UNL     1      -4.162  -7.624  -0.105  0.00  0.00    +0.047 C 
ATOM     11  C   UNL     1      -5.076  -7.180  -1.249  0.00  0.00    +0.182 C 
BRANCH  11  12
ATOM     12  N   UNL     1      -6.516  -7.123  -0.981  0.00  0.00    +0.026 N 
ATOM     13  O   UNL     1      -7.292  -6.931  -1.888  0.00  0.00    -0.131 OA
ATOM     14  O   UNL     1      -6.927  -7.269   0.146  0.00  0.00    -0.131 OA
ENDBRANCH  11  12
ENDBRANCH   7   9
BRANCH   1  15
ATOM     15  N   UNL     1      -1.198  -0.721   0.010  0.00  0.00    -0.341 N 
ATOM     16  H   UNL     1      -2.046  -0.248   0.021  0.00  0.00    +0.146 HD
BRANCH  15  22
ATOM     17  C   UNL     1      -0.017   1.385   0.010  0.00  0.00    +0.026 A 
ATOM     18  C   UNL     1       1.171   2.090   0.002  0.00  0.00    +0.040 A 
ATOM     19  C   UNL     1       2.379   1.414  -0.013  0.00  0.00    +0.124 A 
ATOM     20  C   UNL     1       2.400   0.030  -0.021  0.00  0.00    +0.040 A 
ATOM     21  C   UNL     1       1.215  -0.680  -0.014  0.00  0.00    +0.026 A 
ATOM     22  C   UNL     1       0.002  -0.004   0.002  0.00  0.00    +0.027 A 
ATOM     23  F   UNL     1       3.539   2.107  -0.020  0.00  0.00    -0.205 F 
ENDBRANCH  15  22
ENDBRANCH   1  15
TORSDOF 4
