REMARK  Name = ZINC37555254
REMARK  3 active torsions:
REMARK  status: ('A' for Active; 'I' for Inactive)
REMARK    1  A    between atoms: C_1  and  C_2
REMARK    2  A    between atoms: N_5  and  S_9
REMARK    3  A    between atoms: S_9  and  C_12
REMARK                            x       y       z     vdW  Elec       q    Type
REMARK                         _______ _______ _______ _____ _____    ______ ____
ROOT
ATOM      1  S   UNL     1       0.438  -2.962  -2.386  0.00  0.00    +0.080 S 
ATOM      2  O   UNL     1       0.199  -4.236  -1.805  0.00  0.00    -0.151 OA
ATOM      3  O   UNL     1      -0.552  -2.266  -3.131  0.00  0.00    -0.151 OA
ENDROOT
BRANCH   1   4
ATOM      4  C   UNL     1       1.831  -3.146  -3.449  0.00  0.00    +0.218 A 
ATOM      5  C   UNL     1       2.141  -2.365  -4.509  0.00  0.00    +0.175 A 
ATOM      6  N   UNL     1       3.269  -2.823  -5.059  0.00  0.00    -0.214 NA
ATOM      7  C   UNL     1       3.689  -3.879  -4.377  0.00  0.00    +0.141 A 
ATOM      8  N   UNL     1       2.806  -4.102  -3.353  0.00  0.00    -0.283 N 
ATOM      9  C   UNL     1       3.003  -5.135  -2.482  0.00  0.00    +0.094 A 
ATOM     10  C   UNL     1       4.071  -5.949  -2.614  0.00  0.00    +0.018 A 
ATOM     11  C   UNL     1       4.996  -5.744  -3.650  0.00  0.00    +0.005 A 
ATOM     12  C   UNL     1       4.807  -4.723  -4.530  0.00  0.00    +0.047 A 
ATOM     13 CL   UNL     1       1.226  -0.998  -5.062  0.00  0.00    -0.058 Cl
ENDBRANCH   1   4
BRANCH   1  17
ATOM     14  C   UNL     1      -0.019   1.526   0.010  0.00  0.00    +0.039 C 
ATOM     15  C   UNL     1       0.002  -0.004   0.002  0.00  0.00    +0.131 C 
ATOM     16  C   UNL     1       0.722  -0.499  -1.258  0.00  0.00    +0.140 C 
ATOM     17  N   UNL     1       0.894  -1.957  -1.151  0.00  0.00    -0.170 NA
ATOM     18  C   UNL     1       1.483  -2.495   0.085  0.00  0.00    +0.137 C 
ATOM     19  C   UNL     1       0.726  -1.903   1.280  0.00  0.00    +0.177 C 
ATOM     20  O   UNL     1       0.695  -0.479   1.159  0.00  0.00    -0.374 OA
ENDBRANCH   1  17
TORSDOF 2
