REMARK  Name = ZINC63935007
REMARK  6 active torsions:
REMARK  status: ('A' for Active; 'I' for Inactive)
REMARK    1  A    between atoms: C_1  and  C_2
REMARK    2  A    between atoms: C_2  and  C_3
REMARK    3  A    between atoms: C_3  and  C_30
REMARK    4  A    between atoms: N_19  and  N_20
REMARK    5  A    between atoms: C_21  and  C_23
REMARK    6  A    between atoms: C_23  and  C_24
REMARK                            x       y       z     vdW  Elec       q    Type
REMARK                         _______ _______ _______ _____ _____    ______ ____
ROOT
ATOM      1  C   UNL     1       0.718  -0.497  -1.257  0.00  0.00    -0.012 C 
ATOM      2  C   UNL     1      -0.054   0.082  -2.440  0.00  0.00    +0.043 C 
ATOM      3  C   UNL     1      -1.408  -0.555  -2.593  0.00  0.00    -0.038 A 
ATOM      4  C   UNL     1      -2.384   0.110  -3.314  0.00  0.00    +0.004 A 
ATOM      5  C   UNL     1      -3.636  -0.451  -3.480  0.00  0.00    +0.000 A 
ATOM      6  C   UNL     1      -3.935  -1.685  -2.929  0.00  0.00    +0.001 A 
ATOM      7  C   UNL     1      -2.977  -2.364  -2.205  0.00  0.00    +0.010 A 
ATOM      8  C   UNL     1      -1.710  -1.800  -2.031  0.00  0.00    -0.002 A 
ATOM      9  C   UNL     1      -0.687  -2.506  -1.245  0.00  0.00    +0.038 C 
ATOM     10  N   UNL     1      -0.997  -3.502  -0.467  0.00  0.00    -0.331 N 
ATOM     11  C   UNL     1      -0.098  -4.077   0.344  0.00  0.00    +0.202 C 
ATOM     12  N   UNL     1       1.144  -3.632   0.447  0.00  0.00    -0.147 NA
ATOM     13  C   UNL     1       1.598  -2.643  -0.313  0.00  0.00    +0.248 C 
ATOM     14  O   UNL     1       2.731  -2.235  -0.149  0.00  0.00    -0.273 OA
ATOM     15  C   UNL     1       0.737  -2.023  -1.369  0.00  0.00    +0.130 C 
ATOM     16  N   UNL     1      -0.477  -5.160   1.089  0.00  0.00    -0.236 N 
ATOM     17  C   UNL     1       2.153   0.034  -1.271  0.00  0.00    +0.012 C 
ATOM     18  H   UNL     1      -1.907  -3.838  -0.474  0.00  0.00    +0.168 HD
ATOM     19  H   UNL     1      -1.384  -5.499   1.025  0.00  0.00    +0.173 HD
ENDROOT
BRANCH  16  20
ATOM     20  N   UNL     1       0.444  -5.779   1.944  0.00  0.00    -0.234 N 
ATOM     21  C   UNL     1       0.071  -6.846   2.678  0.00  0.00    +0.233 C 
ATOM     22  O   UNL     1      -1.063  -7.270   2.599  0.00  0.00    -0.274 OA
ATOM     23  H   UNL     1       1.351  -5.440   2.007  0.00  0.00    +0.173 HD
BRANCH  21  24
ATOM     24  C   UNL     1       1.062  -7.511   3.598  0.00  0.00    +0.132 C 
BRANCH  24  25
ATOM     25  C   UNL     1       0.398  -8.669   4.298  0.00  0.00    -0.039 A 
ATOM     26  C   UNL     1      -0.246  -8.470   5.505  0.00  0.00    +0.004 A 
ATOM     27  C   UNL     1      -0.855  -9.533   6.146  0.00  0.00    +0.000 A 
ATOM     28  C   UNL     1      -0.820 -10.794   5.581  0.00  0.00    +0.000 A 
ATOM     29  C   UNL     1      -0.176 -10.992   4.374  0.00  0.00    +0.000 A 
ATOM     30  C   UNL     1       0.429  -9.929   3.730  0.00  0.00    +0.004 A 
ENDBRANCH  24  25
ENDBRANCH  21  24
ENDBRANCH  16  20
BRANCH   1  32
ATOM     31  C   UNL     1       0.016   1.437   0.161  0.00  0.00    +0.004 C 
ATOM     32  C   UNL     1       0.034  -0.089   0.050  0.00  0.00    +0.005 C 
ENDBRANCH   1  32
TORSDOF 4
