REMARK  Name = ZINC11998735
REMARK  10 active torsions:
REMARK  status: ('A' for Active; 'I' for Inactive)
REMARK    1  A    between atoms: C_1  and  C_2
REMARK    2  A    between atoms: C_3  and  C_17
REMARK    3  A    between atoms: C_5  and  C_7
REMARK    4  A    between atoms: C_10  and  O_15
REMARK    5  A    between atoms: C_11  and  O_13
REMARK    6  A    between atoms: O_13  and  C_14
REMARK    7  A    between atoms: O_15  and  C_16
REMARK    8  A    between atoms: C_17  and  N_58
REMARK    9  A    between atoms: C_20  and  O_23
REMARK   10  A    between atoms: O_23  and  C_24
REMARK                            x       y       z     vdW  Elec       q    Type
REMARK                         _______ _______ _______ _____ _____    ______ ____
ROOT
ATOM      1  C   UNL     1       0.352   0.868  -0.370  0.00  0.00    +0.088 C 
ATOM      2  C   UNL     1      -0.562   1.414   0.697  0.00  0.00    +0.124 A 
ATOM      3  C   UNL     1      -0.205   1.781   1.941  0.00  0.00    +0.066 A 
ATOM      4  N   UNL     1      -1.308   2.212   2.574  0.00  0.00    -0.216 NA
ATOM      5  C   UNL     1      -2.327   2.118   1.753  0.00  0.00    +0.228 A 
ATOM      6  O   UNL     1      -1.887   1.631   0.579  0.00  0.00    -0.440 OA
ENDROOT
BRANCH   5   7
ATOM      7  C   UNL     1      -3.722   2.492   2.063  0.00  0.00    +0.041 A 
ATOM      8  C   UNL     1      -4.049   2.990   3.326  0.00  0.00    +0.017 A 
ATOM      9  C   UNL     1      -5.351   3.343   3.612  0.00  0.00    +0.050 A 
ATOM     10  C   UNL     1      -6.340   3.196   2.651  0.00  0.00    +0.162 A 
ATOM     11  C   UNL     1      -6.022   2.694   1.391  0.00  0.00    +0.162 A 
ATOM     12  C   UNL     1      -4.718   2.343   1.096  0.00  0.00    +0.062 A 
BRANCH  11  13
ATOM     13  O   UNL     1      -6.995   2.551   0.451  0.00  0.00    -0.491 OA
ATOM     14  C   UNL     1      -6.597   2.031  -0.820  0.00  0.00    +0.277 C 
ENDBRANCH  11  13
BRANCH  10  15
ATOM     15  O   UNL     1      -7.623   3.540   2.940  0.00  0.00    -0.491 OA
ATOM     16  C   UNL     1      -7.879   4.048   4.251  0.00  0.00    +0.277 C 
ENDBRANCH  10  15
ENDBRANCH   5   7
BRANCH   3  17
ATOM     17  C   UNL     1       1.184   1.720   2.521  0.00  0.00    -0.019 C 
BRANCH  17  23
ATOM     18  C   UNL     1       2.105   3.177   0.821  0.00  0.00    -0.075 C 
ATOM     19  C   UNL     1       2.698   4.566   0.575  0.00  0.00    +0.026 C 
ATOM     20  C   UNL     1       4.020   4.693   1.337  0.00  0.00    +0.170 C 
ATOM     21  C   UNL     1       3.767   4.443   2.826  0.00  0.00    +0.026 C 
ATOM     22  C   UNL     1       3.142   3.057   3.007  0.00  0.00    -0.075 C 
ATOM     23  N   UNL     1       1.862   3.008   2.269  0.00  0.00    +0.384 N 
ATOM     24  H   UNL     1       1.259   3.772   2.597  0.00  0.00    -0.081 HD
BRANCH  20  25
ATOM     25  O   UNL     1       4.551   6.007   1.157  0.00  0.00    -0.489 OA
BRANCH  25  26
ATOM     26  C   UNL     1       5.296   6.224   0.041  0.00  0.00    +0.122 A 
ATOM     27  C   UNL     1       5.423   5.226  -0.914  0.00  0.00    +0.046 A 
ATOM     28  C   UNL     1       6.176   5.450  -2.050  0.00  0.00    +0.005 A 
ATOM     29  C   UNL     1       6.811   6.664  -2.232  0.00  0.00    +0.020 A 
ATOM     30  C   UNL     1       6.691   7.660  -1.278  0.00  0.00    +0.044 A 
ATOM     31  C   UNL     1       5.934   7.442  -0.142  0.00  0.00    +0.065 A 
ATOM     32 CL   UNL     1       7.492   9.183  -1.509  0.00  0.00    -0.083 Cl
ENDBRANCH  25  26
ENDBRANCH  20  25
ENDBRANCH  17  23
ENDBRANCH   3  17
TORSDOF 7
