REMARK  Name = ZINC42452281
REMARK  5 active torsions:
REMARK  status: ('A' for Active; 'I' for Inactive)
REMARK    1  A    between atoms: C_1  and  C_2
REMARK    2  A    between atoms: C_2  and  C_3
REMARK    3  A    between atoms: C_7  and  C_20
REMARK    4  A    between atoms: C_14  and  C_16
REMARK    5  A    between atoms: C_16  and  C_18
REMARK                            x       y       z     vdW  Elec       q    Type
REMARK                         _______ _______ _______ _____ _____    ______ ____
ROOT
ATOM      1  C   UNL     1       0.734  -0.595  -1.207  0.00  0.00    +0.103 C 
ATOM      2  C   UNL     1       0.533  -2.115  -1.214  0.00  0.00    +0.182 C 
ATOM      3  O   UNL     1       1.372  -2.697  -2.215  0.00  0.00    -0.373 OA
ATOM      4  C   UNL     1       2.771  -2.505  -1.990  0.00  0.00    +0.133 C 
ATOM      5  C   UNL     1       3.087  -1.005  -2.023  0.00  0.00    +0.141 C 
ATOM      6  N   UNL     1       2.175  -0.317  -1.095  0.00  0.00    -0.278 N 
ATOM      7  C   UNL     1       2.646   0.541  -0.169  0.00  0.00    +0.309 C 
ATOM      8  O   UNL     1       1.891   1.020   0.655  0.00  0.00    -0.252 OA
ATOM      9  N   UNL     1       3.953   0.869  -0.156  0.00  0.00    -0.239 N 
ATOM     10  C   UNL     1       4.405   1.803   0.704  0.00  0.00    +0.238 C 
ATOM     11  O   UNL     1       3.636   2.349   1.466  0.00  0.00    -0.274 OA
ATOM     12  C   UNL     1       3.567  -3.220  -3.083  0.00  0.00    +0.039 C 
ATOM     13  H   UNL     1       4.568   0.432  -0.766  0.00  0.00    +0.159 HD
ENDROOT
BRANCH  10  14
ATOM     14  C   UNL     1       5.867   2.170   0.718  0.00  0.00    +0.163 C 
ATOM     15  C   UNL     1       6.011   3.692   0.772  0.00  0.00    +0.034 C 
ATOM     16 CL   UNL     1       6.656   1.439   2.165  0.00  0.00    -0.112 Cl
ENDBRANCH  10  14
BRANCH   1  18
ATOM     17  C   UNL     1      -1.499  -0.284  -0.131  0.00  0.00    +0.006 C 
ATOM     18  C   UNL     1      -0.003   0.017  -0.015  0.00  0.00    +0.021 C 
ENDBRANCH   1  18
TORSDOF 2
