REMARK  Name = ZINC00695168
REMARK  9 active torsions:
REMARK  status: ('A' for Active; 'I' for Inactive)
REMARK    1  A    between atoms: C_1  and  C_2
REMARK    2  A    between atoms: C_2  and  C_3
REMARK    3  A    between atoms: C_2  and  O_4
REMARK    4  A    between atoms: O_4  and  C_5
REMARK    5  A    between atoms: C_8  and  C_13
REMARK    6  A    between atoms: C_10  and  O_11
REMARK    7  A    between atoms: O_11  and  C_12
REMARK    8  A    between atoms: N_14  and  N_15
REMARK    9  A    between atoms: C_16  and  C_18
REMARK                            x       y       z     vdW  Elec       q    Type
REMARK                         _______ _______ _______ _____ _____    ______ ____
ROOT
ATOM      1  N   UNL     1       6.468   6.168   0.182  0.00  0.00    -0.200 N 
ATOM      2  C   UNL     1       5.903   4.964   0.396  0.00  0.00    +0.299 C 
ATOM      3  O   UNL     1       6.604   3.985   0.575  0.00  0.00    -0.265 OA
ATOM      4  H   UNL     1       5.910   6.948   0.039  0.00  0.00    +0.178 HD
ENDROOT
BRANCH   2   5
ATOM      5  C   UNL     1       4.441   4.832   0.412  0.00  0.00    +0.192 A 
ATOM      6  C   UNL     1       3.756   3.674   0.617  0.00  0.00    +0.063 A 
ATOM      7  C   UNL     1       2.384   3.994   0.553  0.00  0.00    +0.029 A 
ATOM      8  C   UNL     1       1.150   3.221   0.685  0.00  0.00    -0.007 A 
ATOM      9  C   UNL     1       1.167   1.846   0.932  0.00  0.00    +0.009 A 
ATOM     10  C   UNL     1      -0.010   1.165   1.047  0.00  0.00    +0.001 A 
ATOM     11  C   UNL     1      -1.229   1.822   0.916  0.00  0.00    +0.001 A 
ATOM     12  C   UNL     1      -1.280   3.164   0.681  0.00  0.00    +0.008 A 
ATOM     13  C   UNL     1      -0.088   3.894   0.556  0.00  0.00    -0.017 A 
ATOM     14  C   UNL     1      -0.103   5.281   0.306  0.00  0.00    +0.012 A 
ATOM     15  C   UNL     1       1.050   5.984   0.186  0.00  0.00    +0.047 A 
ATOM     16  C   UNL     1       2.302   5.370   0.304  0.00  0.00    +0.136 A 
ATOM     17  O   UNL     1       3.563   5.841   0.226  0.00  0.00    -0.450 OA
ENDBRANCH   2   5
BRANCH   1  19
ATOM     18  C   UNL     1       8.409   7.454  -0.040  0.00  0.00    +0.138 C 
ATOM     19  N   UNL     1       7.864   6.294   0.166  0.00  0.00    -0.187 NA
BRANCH  18  23
ATOM     20  C   UNL     1      12.640   7.829  -0.086  0.00  0.00    +0.162 A 
ATOM     21  C   UNL     1      12.057   6.590   0.135  0.00  0.00    +0.050 A 
ATOM     22  C   UNL     1      10.684   6.465   0.155  0.00  0.00    +0.013 A 
ATOM     23  C   UNL     1       9.877   7.586  -0.056  0.00  0.00    -0.002 A 
ATOM     24  C   UNL     1      10.465   8.834  -0.278  0.00  0.00    +0.059 A 
ATOM     25  C   UNL     1      11.843   8.952  -0.292  0.00  0.00    +0.162 A 
BRANCH  25  26
ATOM     26  O   UNL     1      12.419  10.165  -0.507  0.00  0.00    -0.491 OA
ATOM     27  C   UNL     1      11.540  11.274  -0.711  0.00  0.00    +0.277 C 
ENDBRANCH  25  26
BRANCH  20  28
ATOM     28  O   UNL     1      13.995   7.947  -0.101  0.00  0.00    -0.486 OA
BRANCH  28  30
ATOM     29  C   UNL     1      16.130   6.949  -0.635  0.00  0.00    +0.051 C 
ATOM     30  C   UNL     1      14.752   6.740  -0.003  0.00  0.00    +0.167 C 
ATOM     31  C   UNL     1      14.920   6.361   1.470  0.00  0.00    +0.051 C 
ENDBRANCH  28  30
ENDBRANCH  20  28
ENDBRANCH  18  23
ENDBRANCH   1  19
TORSDOF 6
