REMARK  Name = ZINC35099347
REMARK  10 active torsions:
REMARK  status: ('A' for Active; 'I' for Inactive)
REMARK    1  A    between atoms: C_1  and  C_2
REMARK    2  A    between atoms: C_2  and  O_3
REMARK    3  A    between atoms: O_3  and  C_4
REMARK    4  A    between atoms: C_6  and  C_11
REMARK    5  A    between atoms: C_9  and  O_10
REMARK    6  A    between atoms: C_13  and  C_28
REMARK    7  A    between atoms: C_15  and  C_20
REMARK    8  A    between atoms: C_15  and  O_27
REMARK    9  A    between atoms: C_23  and  C_26
REMARK   10  A    between atoms: C_28  and  C_30
REMARK                            x       y       z     vdW  Elec       q    Type
REMARK                         _______ _______ _______ _____ _____    ______ ____
ROOT
ATOM      1  C   UNL     1      -0.150  -4.845   0.468  0.00  0.00    +0.120 C 
ATOM      2  C   UNL     1       0.902  -5.568   1.316  0.00  0.00    +0.144 C 
ATOM      3  C   UNL     1       0.194  -6.616   2.182  0.00  0.00    +0.172 C 
ATOM      4  N   UNL     1      -0.582  -7.508   1.318  0.00  0.00    -0.267 N 
ATOM      5  C   UNL     1      -1.087  -7.083   0.150  0.00  0.00    +0.302 C 
ATOM      6  O   UNL     1      -1.733  -7.861  -0.524  0.00  0.00    -0.253 OA
ATOM      7  N   UNL     1      -0.909  -5.832  -0.302  0.00  0.00    -0.292 N 
ATOM      8  H   UNL     1      -0.734  -8.425   1.596  0.00  0.00    +0.153 HD
ATOM      9  H   UNL     1      -1.289  -5.577  -1.158  0.00  0.00    +0.151 HD
ENDROOT
BRANCH   3  10
ATOM     10  C   UNL     1       1.220  -7.417   2.941  0.00  0.00    +0.003 A 
ATOM     11  C   UNL     1       1.751  -8.566   2.384  0.00  0.00    +0.008 A 
ATOM     12  C   UNL     1       2.692  -9.300   3.081  0.00  0.00    +0.004 A 
ATOM     13  C   UNL     1       3.102  -8.887   4.335  0.00  0.00    -0.050 A 
ATOM     14  C   UNL     1       2.572  -7.738   4.891  0.00  0.00    +0.004 A 
ATOM     15  C   UNL     1       1.634  -7.001   4.193  0.00  0.00    +0.008 A 
ATOM     16  C   UNL     1       4.127  -9.688   5.095  0.00  0.00    +0.044 C 
ENDBRANCH   3  10
BRANCH   1  19
ATOM     17  C   UNL     1       1.316  -1.680  -0.983  0.00  0.00    +0.162 A 
ATOM     18  C   UNL     1       0.688  -2.562  -0.118  0.00  0.00    +0.055 A 
ATOM     19  C   UNL     1       0.533  -3.888  -0.474  0.00  0.00    -0.023 A 
ATOM     20  C   UNL     1       1.004  -4.339  -1.694  0.00  0.00    +0.009 A 
ATOM     21  C   UNL     1       1.632  -3.465  -2.561  0.00  0.00    +0.049 A 
ATOM     22  C   UNL     1       1.785  -2.132  -2.212  0.00  0.00    +0.158 A 
BRANCH  22  23
ATOM     23  O   UNL     1       2.398  -1.270  -3.067  0.00  0.00    -0.503 OA
ATOM     24  H   UNL     1       3.355  -1.210  -2.947  0.00  0.00    +0.292 HD
ENDBRANCH  22  23
BRANCH  17  25
ATOM     25  O   UNL     1       1.469  -0.375  -0.633  0.00  0.00    -0.489 OA
BRANCH  25  27
ATOM     26  C   UNL     1       1.224   1.511   0.859  0.00  0.00    +0.048 C 
ATOM     27  C   UNL     1       0.963   0.019   0.644  0.00  0.00    +0.226 C 
ENDBRANCH  25  27
ENDBRANCH  17  25
ENDBRANCH   1  19
BRANCH   3  28
ATOM     28  O   UNL     1      -0.681  -5.962   3.103  0.00  0.00    -0.367 OA
ATOM     29  H   UNL     1      -1.163  -6.567   3.684  0.00  0.00    +0.212 HD
ENDBRANCH   3  28
BRANCH   2  30
ATOM     30  C   UNL     1       1.902  -6.243   0.414  0.00  0.00    +0.245 C 
ATOM     31  O   UNL     1       1.538  -7.094  -0.362  0.00  0.00    -0.287 OA
BRANCH  30  32
ATOM     32  C   UNL     1       3.357  -5.856   0.479  0.00  0.00    +0.451 C 
ATOM     33  F   UNL     1       4.064  -6.528  -0.524  0.00  0.00    -0.163 F 
ATOM     34  F   UNL     1       3.482  -4.475   0.293  0.00  0.00    -0.163 F 
ATOM     35  F   UNL     1       3.877  -6.206   1.730  0.00  0.00    -0.163 F 
ENDBRANCH  30  32
ENDBRANCH   2  30
TORSDOF 8
