REMARK  Name = ZINC39461605
REMARK  4 active torsions:
REMARK  status: ('A' for Active; 'I' for Inactive)
REMARK    1  A    between atoms: C_1  and  C_2
REMARK    2  A    between atoms: C_2  and  C_3
REMARK    3  A    between atoms: C_2  and  N_4
REMARK    4  A    between atoms: C_9  and  C_12
REMARK                            x       y       z     vdW  Elec       q    Type
REMARK                         _______ _______ _______ _____ _____    ______ ____
ROOT
ATOM      1  N   UNL     1       0.711  -0.489   1.189  0.00  0.00    -0.230 N 
ATOM      2  C   UNL     1       0.184  -1.353   2.249  0.00  0.00    +0.212 C 
ATOM      3  C   UNL     1       1.456  -2.073   2.695  0.00  0.00    +0.094 C 
ATOM      4  N   UNL     1       1.156  -3.292   2.975  0.00  0.00    -0.260 NA
ATOM      5  C   UNL     1      -0.264  -3.550   2.683  0.00  0.00    +0.204 C 
ATOM      6  N   UNL     1      -0.705  -2.426   1.785  0.00  0.00    -0.267 NA
ATOM      7  C   UNL     1       2.481  -1.051   2.467  0.00  0.00    +0.156 C 
ATOM      8  N   UNL     1       2.046  -0.232   1.553  0.00  0.00    -0.189 NA
ATOM      9  H   UNL     1      -1.673  -2.185   1.938  0.00  0.00    +0.126 HD
ENDROOT
BRANCH   5  10
ATOM     10  C   UNL     1      -0.422  -4.878   1.989  0.00  0.00    +0.006 C 
ATOM     11  C   UNL     1      -0.739  -4.917   0.698  0.00  0.00    +0.017 C 
ATOM     12  C   UNL     1      -0.922  -6.238   0.061  0.00  0.00    +0.018 A 
ATOM     13  C   UNL     1      -0.970  -6.375  -1.322  0.00  0.00    +0.031 A 
ATOM     14  C   UNL     1      -1.129  -7.632  -1.877  0.00  0.00    +0.042 A 
ATOM     15  C   UNL     1      -1.238  -8.747  -1.062  0.00  0.00    +0.023 A 
ATOM     16  C   UNL     1      -1.196  -8.617   0.315  0.00  0.00    +0.048 A 
ATOM     17  C   UNL     1      -1.045  -7.366   0.883  0.00  0.00    +0.128 A 
ATOM     18  O   UNL     1      -1.036  -7.201   2.231  0.00  0.00    -0.487 OA
ATOM     19  C   UNL     1      -0.214  -6.155   2.758  0.00  0.00    +0.263 C 
ATOM     20 CL   UNL     1      -1.192  -7.812  -3.602  0.00  0.00    -0.084 Cl
ENDBRANCH   5  10
BRANCH   1  22
ATOM     21  C   UNL     1      -0.019   1.526   0.010  0.00  0.00    +0.029 C 
ATOM     22  C   UNL     1       0.002  -0.004   0.002  0.00  0.00    +0.089 C 
ATOM     23  C   UNL     1       0.718  -0.497  -1.257  0.00  0.00    +0.029 C 
ENDBRANCH   1  22
TORSDOF 2
