REMARK  Name = ZINC23101539
REMARK  6 active torsions:
REMARK  status: ('A' for Active; 'I' for Inactive)
REMARK    1  A    between atoms: C_3  and  N_25
REMARK    2  A    between atoms: C_6  and  C_7
REMARK    3  A    between atoms: C_7  and  N_8
REMARK    4  A    between atoms: C_9  and  C_11
REMARK    5  A    between atoms: C_11  and  N_12
REMARK    6  A    between atoms: C_13  and  C_15
REMARK                            x       y       z     vdW  Elec       q    Type
REMARK                         _______ _______ _______ _____ _____    ______ ____
ROOT
ATOM      1  N   UNL     1      -8.506   0.978   2.543  0.00  0.00    -0.310 N 
ATOM      2  C   UNL     1      -7.222   1.323   2.320  0.00  0.00    +0.230 C 
ATOM      3  O   UNL     1      -6.635   2.023   3.116  0.00  0.00    -0.274 OA
ATOM      4  H   UNL     1      -9.039   0.343   1.821  0.00  0.00    +0.149 HD
ENDROOT
BRANCH   1   5
ATOM      5  C   UNL     1      -9.192   1.451   3.749  0.00  0.00    +0.141 C 
BRANCH   5  11
ATOM      6  C   UNL     1     -10.899  -0.290   4.355  0.00  0.00    +0.010 A 
ATOM      7  C   UNL     1     -12.209  -0.733   4.343  0.00  0.00    +0.042 A 
ATOM      8  C   UNL     1     -13.184   0.054   3.738  0.00  0.00    +0.099 A 
ATOM      9  N   UNL     1     -12.864   1.212   3.180  0.00  0.00    -0.349 N 
ATOM     10  C   UNL     1     -11.623   1.662   3.182  0.00  0.00    +0.089 A 
ATOM     11  C   UNL     1     -10.606   0.929   3.759  0.00  0.00    -0.014 A 
ATOM     12  H   UNL     1     -13.642   1.825   2.701  0.00  0.00    +0.167 HD
BRANCH   8  13
ATOM     13  N   UNL     1     -14.505  -0.378   3.719  0.00  0.00    -0.317 N 
ATOM     14  C   UNL     1     -15.044  -0.500   5.097  0.00  0.00    +0.106 C 
ATOM     15  C   UNL     1     -16.578  -0.460   4.882  0.00  0.00    +0.020 C 
ATOM     16  C   UNL     1     -16.740   0.570   3.740  0.00  0.00    +0.020 C 
ATOM     17  C   UNL     1     -15.373   0.602   3.031  0.00  0.00    +0.106 C 
ENDBRANCH   8  13
ENDBRANCH   5  11
ENDBRANCH   1   5
BRANCH   2  18
ATOM     18  C   UNL     1      -6.517   0.837   1.080  0.00  0.00    +0.200 C 
BRANCH  18  19
ATOM     19  N   UNL     1      -5.143   1.344   1.069  0.00  0.00    -0.306 N 
ATOM     20  C   UNL     1      -4.318   1.035   0.049  0.00  0.00    +0.220 C 
ATOM     21  O   UNL     1      -4.714   0.337  -0.861  0.00  0.00    -0.275 OA
ATOM     22  H   UNL     1      -4.784   1.976   1.894  0.00  0.00    +0.149 HD
BRANCH  20  23
ATOM     23  C   UNL     1      -2.904   1.556   0.038  0.00  0.00    +0.048 C 
ATOM     24  C   UNL     1      -2.188   1.063  -1.221  0.00  0.00    +0.019 C 
ATOM     25  C   UNL     1      -0.753   1.593  -1.232  0.00  0.00    -0.009 C 
ATOM     26  C   UNL     1      -0.013   1.086   0.008  0.00  0.00    +0.007 C 
ATOM     27  C   UNL     1      -0.729   1.579   1.267  0.00  0.00    -0.009 C 
ATOM     28  C   UNL     1      -2.164   1.050   1.278  0.00  0.00    +0.019 C 
ATOM     29  C   UNL     1      -0.750   3.109   1.275  0.00  0.00    +0.007 C 
ATOM     30  C   UNL     1      -1.490   3.616   0.036  0.00  0.00    -0.009 C 
ATOM     31  C   UNL     1      -0.773   3.123  -1.223  0.00  0.00    +0.007 C 
ATOM     32  C   UNL     1      -2.925   3.086   0.047  0.00  0.00    +0.019 C 
ENDBRANCH  20  23
ENDBRANCH  18  19
ENDBRANCH   2  18
TORSDOF 6
