REMARK  Name = ZINC01734388
REMARK  4 active torsions:
REMARK  status: ('A' for Active; 'I' for Inactive)
REMARK    1  A    between atoms: C_1  and  C_2
REMARK    2  A    between atoms: C_2  and  C_4
REMARK    3  A    between atoms: C_4  and  C_9
REMARK    4  A    between atoms: C_13  and  N_15
REMARK                            x       y       z     vdW  Elec       q    Type
REMARK                         _______ _______ _______ _____ _____    ______ ____
ROOT
ATOM      1  C   UNL     1      -0.867   3.503   1.248  0.00  0.00    +0.014 A 
ATOM      2  C   UNL     1       0.124   4.300   1.790  0.00  0.00    +0.009 A 
ATOM      3  C   UNL     1       0.000   5.676   1.758  0.00  0.00    +0.003 A 
ATOM      4  C   UNL     1      -1.121   6.255   1.193  0.00  0.00    +0.033 A 
ATOM      5  C   UNL     1      -2.114   5.459   0.655  0.00  0.00    +0.127 A 
ATOM      6  C   UNL     1      -1.987   4.082   0.683  0.00  0.00    +0.041 A 
ENDROOT
BRANCH   1   7
ATOM      7  C   UNL     1      -0.729   2.003   1.279  0.00  0.00    +0.209 C 
ATOM      8  O   UNL     1       0.031   1.615   2.431  0.00  0.00    -0.342 OA
ATOM      9  C   UNL     1      -0.805   0.750   3.225  0.00  0.00    +0.192 C 
ATOM     10  C   UNL     1      -1.849   0.236   2.202  0.00  0.00    +0.192 C 
ATOM     11  O   UNL     1      -2.031   1.399   1.359  0.00  0.00    -0.342 OA
BRANCH   7  13
ATOM     12  C   UNL     1       1.401   2.094  -0.023  0.00  0.00    +0.025 C 
ATOM     13  C   UNL     1      -0.019   1.526   0.010  0.00  0.00    +0.118 C 
ATOM     14 BR   UNL     1      -1.011   2.147  -1.569  0.00  0.00    -0.082 Br
ENDBRANCH   7  13
ENDBRANCH   1   7
BRANCH   5  15
ATOM     15  N   UNL     1      -3.314   6.080   0.051  0.00  0.00    +0.056 N 
ATOM     16  O   UNL     1      -4.190   5.378  -0.423  0.00  0.00    -0.126 OA
ATOM     17  O   UNL     1      -3.426   7.292   0.026  0.00  0.00    -0.126 OA
ENDBRANCH   5  15
TORSDOF 3
