REMARK  Name = ZINC02911580
REMARK  8 active torsions:
REMARK  status: ('A' for Active; 'I' for Inactive)
REMARK    1  A    between atoms: C_1  and  C_2
REMARK    2  A    between atoms: C_2  and  C_3
REMARK    3  A    between atoms: C_3  and  O_4
REMARK    4  A    between atoms: O_4  and  C_5
REMARK    5  A    between atoms: C_10  and  C_11
REMARK    6  A    between atoms: C_23  and  S_26
REMARK    7  A    between atoms: S_26  and  C_27
REMARK    8  A    between atoms: C_27  and  C_28
REMARK                            x       y       z     vdW  Elec       q    Type
REMARK                         _______ _______ _______ _____ _____    ______ ____
ROOT
ATOM      1  C   UNL     1      -0.059   5.351   0.029  0.00  0.00    +0.297 C 
ATOM      2  N   UNL     1       1.288   5.842  -0.247  0.00  0.00    -0.305 N 
ATOM      3  C   UNL     1       2.243   5.798   0.773  0.00  0.00    +0.039 A 
ATOM      4  C   UNL     1       3.325   4.940   0.709  0.00  0.00    +0.024 A 
ATOM      5  C   UNL     1       4.243   4.912   1.743  0.00  0.00    +0.002 A 
ATOM      6  C   UNL     1       4.084   5.736   2.844  0.00  0.00    +0.001 A 
ATOM      7  C   UNL     1       3.011   6.603   2.919  0.00  0.00    +0.012 A 
ATOM      8  C   UNL     1       2.085   6.646   1.884  0.00  0.00    +0.028 A 
ATOM      9  C   UNL     1       0.941   7.582   1.908  0.00  0.00    +0.156 A 
ATOM     10  C   UNL     1      -0.353   7.109   1.595  0.00  0.00    +0.248 A 
ATOM     11  N   UNL     1      -1.363   7.963   1.614  0.00  0.00    -0.184 NA
ATOM     12  C   UNL     1      -1.134   9.234   1.930  0.00  0.00    +0.212 A 
ATOM     13  N   UNL     1       0.089   9.656   2.226  0.00  0.00    -0.122 NA
ATOM     14  N   UNL     1       1.101   8.859   2.217  0.00  0.00    -0.141 NA
ATOM     15  O   UNL     1      -0.537   5.803   1.290  0.00  0.00    -0.449 OA
ATOM     16  H   UNL     1       1.516   6.193  -1.123  0.00  0.00    +0.150 HD
ENDROOT
BRANCH   1  22
ATOM     17  C   UNL     1      -0.179   3.154  -1.174  0.00  0.00    +0.129 A 
ATOM     18  C   UNL     1      -0.158   1.766  -1.178  0.00  0.00    +0.046 A 
ATOM     19  C   UNL     1      -0.013   1.076   0.009  0.00  0.00    +0.004 A 
ATOM     20  C   UNL     1       0.121   1.766   1.200  0.00  0.00    +0.001 A 
ATOM     21  C   UNL     1       0.106   3.148   1.206  0.00  0.00    +0.012 A 
ATOM     22  C   UNL     1      -0.043   3.844   0.021  0.00  0.00    +0.053 A 
BRANCH  17  23
ATOM     23  O   UNL     1      -0.326   3.836  -2.341  0.00  0.00    -0.492 OA
BRANCH  23  24
ATOM     24  C   UNL     1      -0.460   3.060  -3.533  0.00  0.00    +0.229 C 
BRANCH  24  26
ATOM     25  C   UNL     1      -0.758   3.164  -6.012  0.00  0.00    +0.007 C 
ATOM     26  C   UNL     1      -0.615   3.994  -4.735  0.00  0.00    +0.038 C 
ENDBRANCH  24  26
ENDBRANCH  23  24
ENDBRANCH  17  23
ENDBRANCH   1  22
BRANCH  12  27
ATOM     27  S   UNL     1      -2.475  10.376   1.957  0.00  0.00    -0.085 S 
BRANCH  27  28
ATOM     28  C   UNL     1      -1.595  11.884   2.434  0.00  0.00    +0.074 C 
ATOM     29  C   UNL     1      -2.586  13.046   2.524  0.00  0.00    +0.016 C 
ENDBRANCH  27  28
ENDBRANCH  12  27
TORSDOF 6
