REMARK  Name = ZINC18220127
REMARK  9 active torsions:
REMARK  status: ('A' for Active; 'I' for Inactive)
REMARK    1  A    between atoms: C_1  and  O_2
REMARK    2  A    between atoms: O_2  and  C_3
REMARK    3  A    between atoms: C_6  and  C_11
REMARK    4  A    between atoms: C_7  and  O_9
REMARK    5  A    between atoms: O_9  and  C_10
REMARK    6  A    between atoms: C_11  and  C_12
REMARK    7  A    between atoms: C_12  and  C_13
REMARK    8  A    between atoms: C_18  and  N_61
REMARK    9  A    between atoms: N_23  and  C_26
REMARK                            x       y       z     vdW  Elec       q    Type
REMARK                         _______ _______ _______ _____ _____    ______ ____
ROOT
ATOM      1  C   UNL     1      -2.987  -1.782   1.450  0.00  0.00    -0.014 C 
ATOM      2  C   UNL     1      -4.158  -0.923   0.965  0.00  0.00    -0.015 C 
ATOM      3  C   UNL     1      -5.450  -1.738   1.046  0.00  0.00    -0.077 C 
ATOM      4  C   UNL     1      -4.586  -3.031   2.904  0.00  0.00    -0.077 C 
ATOM      5  C   UNL     1      -3.268  -2.255   2.879  0.00  0.00    -0.015 C 
ATOM      6  N   UNL     1      -5.676  -2.142   2.450  0.00  0.00    +0.388 N 
ATOM      7  H   UNL     1      -5.687  -1.302   3.041  0.00  0.00    -0.081 HD
ENDROOT
BRANCH   6   8
ATOM      8  C   UNL     1      -6.976  -2.833   2.574  0.00  0.00    +0.029 C 
ATOM      9  C   UNL     1      -8.112  -1.917   2.076  0.00  0.00    +0.090 C 
ATOM     10  C   UNL     1      -8.967  -1.711   3.308  0.00  0.00    +0.225 C 
ATOM     11  O   UNL     1      -9.978  -1.043   3.358  0.00  0.00    -0.275 OA
ATOM     12  N   UNL     1      -8.430  -2.382   4.334  0.00  0.00    -0.212 N 
ATOM     13  C   UNL     1      -7.308  -3.049   4.035  0.00  0.00    +0.213 C 
ATOM     14  O   UNL     1      -6.661  -3.719   4.810  0.00  0.00    -0.277 OA
BRANCH  12  15
ATOM     15  C   UNL     1      -8.996  -2.387   5.617  0.00  0.00    +0.044 A 
ATOM     16  C   UNL     1      -9.012  -1.224   6.374  0.00  0.00    +0.025 A 
ATOM     17  C   UNL     1      -9.575  -1.230   7.636  0.00  0.00    +0.022 A 
ATOM     18  C   UNL     1     -10.113  -2.397   8.149  0.00  0.00    +0.041 A 
ATOM     19  C   UNL     1     -10.092  -3.560   7.398  0.00  0.00    +0.022 A 
ATOM     20  C   UNL     1      -9.535  -3.557   6.135  0.00  0.00    +0.025 A 
ATOM     21 CL   UNL     1     -10.814  -2.403   9.737  0.00  0.00    -0.084 Cl
ENDBRANCH  12  15
ENDBRANCH   6   8
BRANCH   1  22
ATOM     22  C   UNL     1      -1.701  -0.953   1.429  0.00  0.00    +0.008 C 
BRANCH  22  23
ATOM     23  C   UNL     1      -1.354  -0.587  -0.016  0.00  0.00    +0.039 C 
BRANCH  23  27
ATOM     24  C   UNL     1       2.240   1.732  -0.075  0.00  0.00    +0.124 A 
ATOM     25  C   UNL     1       1.003   2.361  -0.070  0.00  0.00    +0.046 A 
ATOM     26  C   UNL     1      -0.156   1.610  -0.051  0.00  0.00    +0.011 A 
ATOM     27  C   UNL     1      -0.087   0.230  -0.037  0.00  0.00    -0.005 A 
ATOM     28  C   UNL     1       1.147  -0.405  -0.042  0.00  0.00    +0.127 A 
ATOM     29  C   UNL     1       2.311   0.347  -0.061  0.00  0.00    +0.091 A 
BRANCH  24  31
ATOM     30  C   UNL     1       3.231   3.892  -0.107  0.00  0.00    +0.277 C 
ATOM     31  O   UNL     1       3.380   2.471  -0.094  0.00  0.00    -0.495 OA
ENDBRANCH  24  31
BRANCH  28  32
ATOM     32  O   UNL     1       1.213  -1.762  -0.027  0.00  0.00    -0.495 OA
ATOM     33  C   UNL     1       2.517  -2.347  -0.034  0.00  0.00    +0.277 C 
ENDBRANCH  28  32
ENDBRANCH  23  27
ENDBRANCH  22  23
ENDBRANCH   1  22
TORSDOF 7
