REMARK  Name = ZINC38936051
REMARK  7 active torsions:
REMARK  status: ('A' for Active; 'I' for Inactive)
REMARK    1  A    between atoms: C_1  and  O_2
REMARK    2  A    between atoms: O_2  and  C_3
REMARK    3  A    between atoms: C_6  and  C_11
REMARK    4  A    between atoms: C_8  and  O_9
REMARK    5  A    between atoms: O_9  and  C_10
REMARK    6  A    between atoms: N_17  and  N_18
REMARK    7  A    between atoms: C_19  and  C_20
REMARK                            x       y       z     vdW  Elec       q    Type
REMARK                         _______ _______ _______ _____ _____    ______ ____
ROOT
ATOM      1  C   UNL     1       2.500  -2.580  -4.581  0.00  0.00    +0.264 C 
ATOM      2  N   UNL     1       3.148  -3.789  -4.051  0.00  0.00    -0.189 NA
ATOM      3  N   UNL     1       4.367  -3.600  -4.045  0.00  0.00    -0.219 N 
ATOM      4  C   UNL     1       4.726  -2.375  -4.513  0.00  0.00    +0.174 C 
ATOM      5  S   UNL     1       6.335  -1.804  -4.634  0.00  0.00    -0.015 S 
ATOM      6  N   UNL     1       3.625  -1.672  -4.872  0.00  0.00    -0.172 N 
ATOM      7  H   UNL     1       5.007  -4.261  -3.736  0.00  0.00    +0.176 HD
ENDROOT
BRANCH   1  11
ATOM      8  C   UNL     1      -0.096  -0.855  -1.653  0.00  0.00    +0.162 A 
ATOM      9  C   UNL     1       0.584  -0.042  -2.545  0.00  0.00    +0.050 A 
ATOM     10  C   UNL     1       1.423  -0.602  -3.490  0.00  0.00    +0.011 A 
ATOM     11  C   UNL     1       1.585  -1.974  -3.548  0.00  0.00    +0.001 A 
ATOM     12  C   UNL     1       0.910  -2.791  -2.661  0.00  0.00    +0.056 A 
ATOM     13  C   UNL     1       0.072  -2.236  -1.707  0.00  0.00    +0.162 A 
BRANCH   8  15
ATOM     14  C   UNL     1      -1.044   1.118  -0.725  0.00  0.00    +0.277 C 
ATOM     15  O   UNL     1      -0.921  -0.305  -0.722  0.00  0.00    -0.491 OA
ENDBRANCH   8  15
BRANCH  13  16
ATOM     16  O   UNL     1      -0.588  -3.038  -0.830  0.00  0.00    -0.491 OA
ATOM     17  C   UNL     1      -0.368  -4.445  -0.945  0.00  0.00    +0.277 C 
ENDBRANCH  13  16
ENDBRANCH   1  11
BRANCH   6  18
ATOM     18  N   UNL     1       3.567  -0.375  -5.400  0.00  0.00    -0.183 NA
ATOM     19  C   UNL     1       4.662   0.252  -5.704  0.00  0.00    +0.141 C 
BRANCH  19  20
ATOM     20  C   UNL     1       4.608   1.657  -6.146  0.00  0.00    +0.031 A 
ATOM     21  C   UNL     1       5.784   2.334  -6.480  0.00  0.00    +0.027 A 
ATOM     22  C   UNL     1       5.726   3.649  -6.894  0.00  0.00    +0.019 A 
ATOM     23  C   UNL     1       4.506   4.299  -6.979  0.00  0.00    +0.018 A 
ATOM     24  C   UNL     1       3.337   3.637  -6.651  0.00  0.00    +0.040 A 
ATOM     25  C   UNL     1       3.378   2.318  -6.240  0.00  0.00    +0.132 A 
ATOM     26  F   UNL     1       2.236   1.670  -5.925  0.00  0.00    -0.205 F 
ATOM     27 BR   UNL     1       7.317   4.567  -7.344  0.00  0.00    -0.050 Br
ENDBRANCH  19  20
ENDBRANCH   6  18
TORSDOF 5
