REMARK  Name = ZINC01188454
REMARK  4 active torsions:
REMARK  status: ('A' for Active; 'I' for Inactive)
REMARK    1  A    between atoms: C_3  and  O_24
REMARK    2  A    between atoms: C_4  and  O_23
REMARK    3  A    between atoms: C_6  and  C_7
REMARK    4  A    between atoms: N_12  and  C_15
REMARK                            x       y       z     vdW  Elec       q    Type
REMARK                         _______ _______ _______ _____ _____    ______ ____
ROOT
ATOM      1  C   UNL     1       5.989   0.755  -0.052  0.00  0.00    +0.026 C 
ATOM      2  C   UNL     1       4.641   0.617  -0.302  0.00  0.00    +0.102 C 
ATOM      3  C   UNL     1       3.917  -0.617  -0.666  0.00  0.00    +0.266 C 
ATOM      4  O   UNL     1       4.399  -1.725  -0.806  0.00  0.00    -0.268 OA
ATOM      5  N   UNL     1       2.622  -0.280  -0.814  0.00  0.00    -0.223 N 
ATOM      6  N   UNL     1       2.438   1.081  -0.575  0.00  0.00    -0.184 N 
ATOM      7  C   UNL     1       3.609   1.671  -0.269  0.00  0.00    +0.272 C 
ATOM      8  O   UNL     1       3.782   2.848  -0.013  0.00  0.00    -0.268 OA
ATOM      9  H   UNL     1       1.914  -0.899  -1.054  0.00  0.00    +0.174 HD
ENDROOT
BRANCH   6  10
ATOM     10  C   UNL     1       1.208   1.744  -0.648  0.00  0.00    +0.058 A 
ATOM     11  C   UNL     1       1.135   3.107  -0.390  0.00  0.00    +0.027 A 
ATOM     12  C   UNL     1      -0.080   3.759  -0.462  0.00  0.00    +0.023 A 
ATOM     13  C   UNL     1      -1.226   3.055  -0.791  0.00  0.00    +0.059 A 
ATOM     14  C   UNL     1      -1.156   1.698  -1.055  0.00  0.00    +0.061 A 
ATOM     15  C   UNL     1       0.057   1.040  -0.978  0.00  0.00    +0.046 A 
ATOM     16 CL   UNL     1      -2.594   0.820  -1.474  0.00  0.00    -0.082 Cl
ATOM     17 CL   UNL     1      -2.752   3.878  -0.880  0.00  0.00    -0.082 Cl
ENDBRANCH   6  10
BRANCH   1  23
ATOM     18  C   UNL     1       8.144  -0.405  -0.473  0.00  0.00    +0.012 A 
ATOM     19  C   UNL     1       8.943  -1.523  -0.381  0.00  0.00    +0.050 A 
ATOM     20  C   UNL     1       8.462  -2.677   0.225  0.00  0.00    +0.158 A 
ATOM     21  C   UNL     1       7.166  -2.711   0.744  0.00  0.00    +0.159 A 
ATOM     22  C   UNL     1       6.360  -1.595   0.661  0.00  0.00    +0.057 A 
ATOM     23  C   UNL     1       6.841  -0.431   0.045  0.00  0.00    -0.020 A 
BRANCH  21  24
ATOM     24  O   UNL     1       6.701  -3.843   1.336  0.00  0.00    -0.503 OA
ATOM     25  H   UNL     1       6.871  -3.888   2.287  0.00  0.00    +0.292 HD
ENDBRANCH  21  24
BRANCH  20  26
ATOM     26  O   UNL     1       9.255  -3.775   0.313  0.00  0.00    -0.503 OA
ATOM     27  H   UNL     1       9.789  -3.811   1.118  0.00  0.00    +0.292 HD
ENDBRANCH  20  26
ENDBRANCH   1  23
TORSDOF 4
