REMARK  Name = ZINC63737592
REMARK  6 active torsions:
REMARK  status: ('A' for Active; 'I' for Inactive)
REMARK    1  A    between atoms: C_1  and  O_2
REMARK    2  A    between atoms: O_2  and  C_3
REMARK    3  A    between atoms: C_6  and  S_9
REMARK    4  A    between atoms: S_9  and  N_12
REMARK    5  A    between atoms: N_12  and  C_13
REMARK    6  A    between atoms: C_17  and  C_19
REMARK                            x       y       z     vdW  Elec       q    Type
REMARK                         _______ _______ _______ _____ _____    ______ ____
ROOT
ATOM      1  C   UNL     1       4.423  -3.768  -3.024  0.00  0.00    +0.048 A 
ATOM      2  C   UNL     1       3.558  -3.854  -1.940  0.00  0.00    +0.024 A 
ATOM      3  C   UNL     1       3.812  -4.755  -0.926  0.00  0.00    +0.002 A 
ATOM      4  C   UNL     1       4.926  -5.572  -0.987  0.00  0.00    +0.006 A 
ATOM      5  C   UNL     1       5.790  -5.490  -2.064  0.00  0.00    -0.020 A 
ATOM      6  C   UNL     1       5.538  -4.595  -3.086  0.00  0.00    +0.030 A 
ENDROOT
BRANCH   5   7
ATOM      7  C   UNL     1       7.003  -6.381  -2.126  0.00  0.00    +0.133 C 
ATOM      8  C   UNL     1       8.086  -5.852  -1.212  0.00  0.00    +0.012 C 
ATOM      9  C   UNL     1       8.315  -6.825  -0.301  0.00  0.00    -0.001 A 
ATOM     10  C   UNL     1       9.236  -6.922   0.838  0.00  0.00    +0.048 A 
ATOM     11  C   UNL     1       9.237  -8.051   1.586  0.00  0.00    +0.124 A 
ATOM     12  C   UNL     1       8.382  -9.127   1.299  0.00  0.00    +0.040 A 
ATOM     13  C   UNL     1       7.510  -9.110   0.270  0.00  0.00    +0.029 A 
ATOM     14  C   UNL     1       7.424  -7.973  -0.582  0.00  0.00    +0.043 A 
ATOM     15  N   UNL     1       6.672  -7.721  -1.627  0.00  0.00    -0.374 N 
ATOM     16  F   UNL     1      10.084  -8.145   2.635  0.00  0.00    -0.205 F 
ATOM     17  H   UNL     1       6.009  -8.318  -2.007  0.00  0.00    +0.161 HD
ENDBRANCH   5   7
BRANCH   1  18
ATOM     18  N   UNL     1       4.169  -2.858  -4.053  0.00  0.00    -0.216 N 
ATOM     19  H   UNL     1       4.694  -2.046  -4.122  0.00  0.00    +0.174 HD
BRANCH  18  20
ATOM     20  S   UNL     1       2.971  -3.166  -5.153  0.00  0.00    +0.072 S 
ATOM     21  O   UNL     1       3.013  -2.112  -6.105  0.00  0.00    -0.150 OA
ATOM     22  O   UNL     1       1.801  -3.471  -4.406  0.00  0.00    -0.150 OA
BRANCH  20  26
ATOM     23  C   UNL     1       4.119  -6.950  -7.361  0.00  0.00    +0.120 A 
ATOM     24  C   UNL     1       3.266  -7.014  -6.268  0.00  0.00    +0.047 A 
ATOM     25  C   UNL     1       2.918  -5.858  -5.596  0.00  0.00    +0.032 A 
ATOM     26  C   UNL     1       3.417  -4.638  -6.012  0.00  0.00    +0.109 A 
ATOM     27  C   UNL     1       4.267  -4.571  -7.101  0.00  0.00    +0.032 A 
ATOM     28  C   UNL     1       4.623  -5.725  -7.772  0.00  0.00    +0.047 A 
BRANCH  23  30
ATOM     29  C   UNL     1       3.906  -9.310  -7.543  0.00  0.00    +0.277 C 
ATOM     30  O   UNL     1       4.463  -8.085  -8.023  0.00  0.00    -0.495 OA
ENDBRANCH  23  30
ENDBRANCH  20  26
ENDBRANCH  18  20
ENDBRANCH   1  18
TORSDOF 5
