REMARK  Name = ZINC40569668
REMARK  8 active torsions:
REMARK  status: ('A' for Active; 'I' for Inactive)
REMARK    1  A    between atoms: C_1  and  C_2
REMARK    2  A    between atoms: N_8  and  C_9
REMARK    3  A    between atoms: C_9  and  C_10
REMARK    4  A    between atoms: C_16  and  C_26
REMARK    5  A    between atoms: C_18  and  C_22
REMARK    6  A    between atoms: C_19  and  N_21
REMARK    7  A    between atoms: C_22  and  O_24
REMARK    8  A    between atoms: O_24  and  C_25
REMARK                            x       y       z     vdW  Elec       q    Type
REMARK                         _______ _______ _______ _____ _____    ______ ____
ROOT
ATOM      1  C   UNL     1      -0.018   1.491   0.022  0.00  0.00    +0.064 C 
ATOM      2  C   UNL     1      -0.027  -0.016   0.058  0.00  0.00    +0.023 A 
ATOM      3  C   UNL     1      -0.170  -0.709  -1.092  0.00  0.00    +0.068 A 
ATOM      4  C   UNL     1      -0.179  -2.119  -1.063  0.00  0.00    +0.141 A 
ATOM      5  C   UNL     1      -0.040  -2.763   0.148  0.00  0.00    +0.074 A 
ATOM      6  C   UNL     1       0.105  -2.002   1.315  0.00  0.00    +0.259 A 
ATOM      7  O   UNL     1       0.228  -2.559   2.395  0.00  0.00    -0.267 OA
ATOM      8  N   UNL     1       0.114  -0.658   1.247  0.00  0.00    -0.308 N 
ATOM      9  C   UNL     1      -0.043  -4.265   0.225  0.00  0.00    +0.136 C 
ATOM     10  C   UNL     1      -0.598  -4.848  -1.045  0.00  0.00    +0.108 C 
ATOM     11  C   UNL     1      -0.704  -4.101  -2.174  0.00  0.00    +0.195 C 
ATOM     12  O   UNL     1      -0.321  -2.814  -2.212  0.00  0.00    -0.441 OA
ENDROOT
BRANCH   9  13
ATOM     13  C   UNL     1       1.368  -4.757   0.421  0.00  0.00    +0.117 A 
ATOM     14  C   UNL     1       1.809  -5.486   1.463  0.00  0.00    +0.045 A 
ATOM     15  C   UNL     1       3.185  -5.724   1.242  0.00  0.00    +0.041 A 
ATOM     16  C   UNL     1       3.503  -5.127   0.079  0.00  0.00    +0.195 A 
ATOM     17  O   UNL     1       2.397  -4.548  -0.416  0.00  0.00    -0.467 OA
ENDBRANCH   9  13
BRANCH  11  18
ATOM     18  N   UNL     1      -1.216  -4.676  -3.306  0.00  0.00    -0.329 N 
ATOM     19  H   UNL     1      -1.564  -5.581  -3.275  0.00  0.00    +0.145 HD
ATOM     20  H   UNL     1      -1.229  -4.179  -4.139  0.00  0.00    +0.145 HD
ENDBRANCH  11  18
BRANCH  10  21
ATOM     21  C   UNL     1      -1.015  -6.187  -1.064  0.00  0.00    +0.341 C 
ATOM     22  O   UNL     1      -2.064  -6.506  -0.535  0.00  0.00    -0.245 OA
BRANCH  21  23
ATOM     23  O   UNL     1      -0.252  -7.123  -1.669  0.00  0.00    -0.465 OA
ATOM     24  C   UNL     1      -0.737  -8.467  -1.651  0.00  0.00    +0.280 C 
ENDBRANCH  21  23
ENDBRANCH  10  21
BRANCH   8  25
ATOM     25  C   UNL     1       0.272   0.125   2.475  0.00  0.00    +0.160 C 
BRANCH  25  26
ATOM     26  C   UNL     1       1.727   0.468   2.668  0.00  0.00    -0.028 A 
ATOM     27  C   UNL     1       2.579  -0.443   3.263  0.00  0.00    +0.005 A 
ATOM     28  C   UNL     1       3.913  -0.128   3.440  0.00  0.00    +0.000 A 
ATOM     29  C   UNL     1       4.396   1.098   3.021  0.00  0.00    +0.000 A 
ATOM     30  C   UNL     1       3.543   2.009   2.425  0.00  0.00    +0.000 A 
ATOM     31  C   UNL     1       2.210   1.692   2.244  0.00  0.00    +0.005 A 
ENDBRANCH  25  26
ENDBRANCH   8  25
TORSDOF 6
