REMARK  Name = ZINC14656377
REMARK  8 active torsions:
REMARK  status: ('A' for Active; 'I' for Inactive)
REMARK    1  A    between atoms: C_1  and  C_2
REMARK    2  A    between atoms: C_2  and  C_3
REMARK    3  A    between atoms: C_3  and  C_4
REMARK    4  A    between atoms: C_4  and  N_5
REMARK    5  A    between atoms: C_6  and  N_25
REMARK    6  A    between atoms: C_7  and  N_14
REMARK    7  A    between atoms: N_14  and  C_15
REMARK    8  A    between atoms: C_16  and  C_18
REMARK                            x       y       z     vdW  Elec       q    Type
REMARK                         _______ _______ _______ _____ _____    ______ ____
ROOT
ATOM      1  N   UNL     1      -1.097  -1.234   0.835  0.00  0.00    -0.280 N 
ATOM      2  C   UNL     1      -1.483  -2.131   1.804  0.00  0.00    +0.127 A 
ATOM      3  C   UNL     1      -1.563  -3.472   1.486  0.00  0.00    +0.140 A 
ATOM      4  C   UNL     1      -1.248  -3.880   0.176  0.00  0.00    +0.277 A 
ATOM      5  O   UNL     1      -1.311  -5.058  -0.131  0.00  0.00    -0.266 OA
ATOM      6  N   UNL     1      -0.876  -2.960  -0.735  0.00  0.00    -0.273 N 
ATOM      7  H   UNL     1      -0.648  -3.249  -1.665  0.00  0.00    +0.173 HD
ATOM      8  C   UNL     1      -0.808  -1.657  -0.409  0.00  0.00    +0.331 A 
ATOM      9  O   UNL     1      -0.475  -0.847  -1.252  0.00  0.00    -0.246 OA
ENDROOT
BRANCH   3  10
ATOM     10  N   UNL     1      -1.956  -4.417   2.457  0.00  0.00    -0.263 N 
ATOM     11  C   UNL     1      -1.052  -5.511   2.821  0.00  0.00    +0.139 C 
ATOM     12  C   UNL     1      -3.162  -4.313   3.050  0.00  0.00    +0.252 C 
ATOM     13  O   UNL     1      -3.497  -5.123   3.892  0.00  0.00    -0.270 OA
BRANCH  12  14
ATOM     14  C   UNL     1      -4.077  -3.214   2.676  0.00  0.00    +0.050 A 
ATOM     15  C   UNL     1      -4.058  -2.696   1.379  0.00  0.00    +0.014 A 
ATOM     16  C   UNL     1      -4.918  -1.674   1.036  0.00  0.00    +0.001 A 
ATOM     17  C   UNL     1      -5.790  -1.154   1.976  0.00  0.00    +0.001 A 
ATOM     18  C   UNL     1      -5.810  -1.658   3.264  0.00  0.00    +0.015 A 
ATOM     19  C   UNL     1      -4.959  -2.684   3.620  0.00  0.00    +0.025 A 
ATOM     20  I   UNL     1      -4.990  -3.446   5.571  0.00  0.00    -0.043 I 
ENDBRANCH  12  14
ENDBRANCH   3  10
BRANCH   2  21
ATOM     21  N   UNL     1      -1.784  -1.698   3.073  0.00  0.00    -0.343 N 
ATOM     22  H   UNL     1      -1.921  -0.753   3.243  0.00  0.00    +0.144 HD
ATOM     23  H   UNL     1      -1.859  -2.337   3.798  0.00  0.00    +0.144 HD
ENDBRANCH   2  21
BRANCH   1  24
ATOM     24  C   UNL     1      -1.007   0.192   1.158  0.00  0.00    +0.128 C 
BRANCH  24  25
ATOM     25  C   UNL     1       0.403   0.514   1.657  0.00  0.00    +0.021 C 
BRANCH  25  27
ATOM     26  C   UNL     1       1.907   2.325   2.493  0.00  0.00    +0.004 C 
ATOM     27  C   UNL     1       0.497   2.003   1.994  0.00  0.00    -0.002 C 
ENDBRANCH  25  27
ENDBRANCH  24  25
ENDBRANCH   1  24
TORSDOF 6
