REMARK  Name = ZINC00492615
REMARK  5 active torsions:
REMARK  status: ('A' for Active; 'I' for Inactive)
REMARK    1  A    between atoms: C_1  and  C_2
REMARK    2  A    between atoms: C_2  and  O_3
REMARK    3  A    between atoms: O_3  and  C_4
REMARK    4  A    between atoms: N_6  and  C_7
REMARK    5  A    between atoms: N_6  and  C_8
REMARK                            x       y       z     vdW  Elec       q    Type
REMARK                         _______ _______ _______ _____ _____    ______ ____
ROOT
ATOM      1  C   UNL     1       3.934   5.835   2.687  0.00  0.00    +0.041 A 
ATOM      2  C   UNL     1       3.249   7.028   2.493  0.00  0.00    +0.024 A 
ATOM      3  C   UNL     1       2.313   7.139   1.482  0.00  0.00    +0.007 A 
ATOM      4  C   UNL     1       2.059   6.053   0.659  0.00  0.00    -0.026 A 
ATOM      5  C   UNL     1       2.748   4.881   0.839  0.00  0.00    +0.036 A 
ATOM      6  C   UNL     1       3.684   4.751   1.855  0.00  0.00    +0.047 A 
ATOM      7  N   UNL     1       2.478   3.833  -0.035  0.00  0.00    -0.314 N 
ATOM      8  C   UNL     1       1.250   3.184  -0.090  0.00  0.00    +0.035 A 
ATOM      9  C   UNL     1       1.301   1.786  -0.128  0.00  0.00    +0.023 A 
ATOM     10  C   UNL     1       0.146   1.037  -0.146  0.00  0.00    +0.002 A 
ATOM     11  C   UNL     1      -1.078   1.681  -0.120  0.00  0.00    +0.000 A 
ATOM     12  C   UNL     1      -1.130   3.054  -0.079  0.00  0.00    +0.005 A 
ATOM     13  C   UNL     1       0.034   3.829  -0.080  0.00  0.00    -0.026 A 
ATOM     14  C   UNL     1      -0.208   5.317  -0.091  0.00  0.00    +0.041 C 
ATOM     15  C   UNL     1       1.010   6.148  -0.408  0.00  0.00    +0.041 C 
ATOM     16  H   UNL     1       3.181   3.541  -0.636  0.00  0.00    +0.152 HD
ENDROOT
BRANCH   1  19
ATOM     17  C   UNL     1       4.631   4.914   4.768  0.00  0.00    +0.407 C 
ATOM     18  O   UNL     1       3.642   4.209   4.775  0.00  0.00    -0.226 OA
ATOM     19  N   UNL     1       4.873   5.725   3.719  0.00  0.00    -0.240 N 
ATOM     20  C   UNL     1       6.120   6.492   3.658  0.00  0.00    +0.142 C 
BRANCH  17  21
ATOM     21  O   UNL     1       5.486   4.886   5.808  0.00  0.00    -0.450 OA
BRANCH  21  23
ATOM     22  C   UNL     1       6.239   4.094   7.984  0.00  0.00    +0.048 C 
ATOM     23  C   UNL     1       5.161   3.989   6.903  0.00  0.00    +0.230 C 
ENDBRANCH  21  23
ENDBRANCH  17  21
ENDBRANCH   1  19
TORSDOF 3
