REMARK  Name = ZINC24440683
REMARK  8 active torsions:
REMARK  status: ('A' for Active; 'I' for Inactive)
REMARK    1  A    between atoms: C_1  and  N_2
REMARK    2  A    between atoms: C_6  and  C_7
REMARK    3  A    between atoms: C_7  and  C_9
REMARK    4  A    between atoms: C_7  and  N_16
REMARK    5  A    between atoms: C_17  and  C_19
REMARK    6  A    between atoms: C_19  and  C_20
REMARK    7  A    between atoms: C_20  and  C_22
REMARK    8  A    between atoms: C_20  and  N_29
REMARK                            x       y       z     vdW  Elec       q    Type
REMARK                         _______ _______ _______ _____ _____    ______ ____
ROOT
ATOM      1  N   UNL     1       3.482   3.141  -0.648  0.00  0.00    -0.301 N 
ATOM      2  C   UNL     1       4.576   3.716  -1.185  0.00  0.00    +0.216 C 
ATOM      3  O   UNL     1       4.750   4.911  -1.073  0.00  0.00    -0.276 OA
ATOM      4  H   UNL     1       3.324   2.057  -0.750  0.00  0.00    +0.150 HD
ENDROOT
BRANCH   1   5
ATOM      5  C   UNL     1       2.502   3.959   0.071  0.00  0.00    +0.172 C 
BRANCH   5   6
ATOM      6  C   UNL     1       1.157   3.281   0.032  0.00  0.00    +0.015 A 
ATOM      7  C   UNL     1       1.077   1.911  -0.131  0.00  0.00    +0.009 A 
ATOM      8  C   UNL     1      -0.156   1.289  -0.166  0.00  0.00    +0.001 A 
ATOM      9  C   UNL     1      -1.313   2.037  -0.044  0.00  0.00    +0.003 A 
ATOM     10  C   UNL     1      -1.236   3.406   0.124  0.00  0.00    +0.039 A 
ATOM     11  C   UNL     1      -0.000   4.031   0.160  0.00  0.00    +0.129 A 
ATOM     12  F   UNL     1       0.076   5.370   0.320  0.00  0.00    -0.205 F 
ENDBRANCH   5   6
BRANCH   5  18
ATOM     13  C   UNL     1       2.510   6.593   1.702  0.00  0.00    +0.150 C 
ATOM     14  N   UNL     1       2.937   5.283   2.198  0.00  0.00    -0.336 N 
ATOM     15  C   UNL     1       3.403   5.003   3.454  0.00  0.00    +0.106 A 
ATOM     16  C   UNL     1       3.684   3.686   3.481  0.00  0.00    +0.130 A 
ATOM     17  N   UNL     1       3.392   3.175   2.275  0.00  0.00    -0.238 NA
ATOM     18  C   UNL     1       2.940   4.125   1.503  0.00  0.00    +0.134 A 
ENDBRANCH   5  18
ENDBRANCH   1   5
BRANCH   2  19
ATOM     19  C   UNL     1       5.584   2.874  -1.925  0.00  0.00    +0.123 C 
BRANCH  19  20
ATOM     20  C   UNL     1       6.720   3.766  -2.430  0.00  0.00    +0.115 C 
BRANCH  20  21
ATOM     21  C   UNL     1       7.787   2.910  -3.061  0.00  0.00    -0.008 A 
ATOM     22  C   UNL     1       7.517   1.593  -3.382  0.00  0.00    +0.007 A 
ATOM     23  C   UNL     1       8.494   0.808  -3.966  0.00  0.00    +0.000 A 
ATOM     24  C   UNL     1       9.746   1.338  -4.220  0.00  0.00    +0.001 A 
ATOM     25  C   UNL     1      10.019   2.653  -3.894  0.00  0.00    +0.020 A 
ATOM     26  C   UNL     1       9.040   3.440  -3.315  0.00  0.00    +0.046 A 
ATOM     27 CL   UNL     1       9.382   5.092  -2.905  0.00  0.00    -0.083 Cl
ENDBRANCH  20  21
BRANCH  20  28
ATOM     28  N   UNL     1       6.198   4.707  -3.423  0.00  0.00    -0.292 N 
ATOM     29  C   UNL     1       5.702   4.249  -4.590  0.00  0.00    +0.298 C 
ATOM     30  O   UNL     1       5.603   3.052  -4.780  0.00  0.00    -0.253 OA
ATOM     31  N   UNL     1       5.315   5.118  -5.545  0.00  0.00    -0.313 N 
ATOM     32  H   UNL     1       6.210   5.787  -3.218  0.00  0.00    +0.151 HD
ATOM     33  H   UNL     1       4.910   4.744  -6.497  0.00  0.00    +0.146 HD
ATOM     34  H   UNL     1       5.404   6.200  -5.373  0.00  0.00    +0.146 HD
ENDBRANCH  20  28
ENDBRANCH  19  20
ENDBRANCH   2  19
TORSDOF 7
