REMARK  Name = ZINC66673351
REMARK  7 active torsions:
REMARK  status: ('A' for Active; 'I' for Inactive)
REMARK    1  A    between atoms: C_1  and  C_2
REMARK    2  A    between atoms: N_6  and  C_21
REMARK    3  A    between atoms: C_8  and  C_10
REMARK    4  A    between atoms: N_12  and  C_13
REMARK    5  A    between atoms: N_16  and  C_18
REMARK    6  A    between atoms: C_18  and  C_19
REMARK    7  A    between atoms: C_18  and  C_20
REMARK                            x       y       z     vdW  Elec       q    Type
REMARK                         _______ _______ _______ _____ _____    ______ ____
ROOT
ATOM      1  C   UNL     1      -0.549   0.959  -0.085  0.00  0.00    +0.038 C 
ATOM      2  C   UNL     1      -0.012  -0.451   0.166  0.00  0.00    +0.157 C 
ATOM      3  C   UNL     1       0.716  -0.945  -1.063  0.00  0.00    +0.259 C 
ATOM      4  O   UNL     1       0.109  -1.514  -1.946  0.00  0.00    -0.271 OA
ATOM      5  N   UNL     1       2.045  -0.748  -1.169  0.00  0.00    -0.157 N 
ATOM      6  N   UNL     1       2.759  -0.110  -0.149  0.00  0.00    -0.152 NA
ATOM      7  C   UNL     1       2.237   0.044   1.037  0.00  0.00    +0.201 C 
ATOM      8  N   UNL     1       0.943  -0.428   1.284  0.00  0.00    -0.313 N 
ATOM      9  H   UNL     1       0.682  -0.730   2.168  0.00  0.00    +0.148 HD
ENDROOT
BRANCH   5  10
ATOM     10  C   UNL     1       2.720  -1.187  -2.314  0.00  0.00    +0.060 A 
ATOM     11  C   UNL     1       3.887  -1.931  -2.192  0.00  0.00    +0.025 A 
ATOM     12  C   UNL     1       4.550  -2.362  -3.323  0.00  0.00    +0.002 A 
ATOM     13  C   UNL     1       4.054  -2.055  -4.577  0.00  0.00    +0.000 A 
ATOM     14  C   UNL     1       2.893  -1.315  -4.702  0.00  0.00    +0.002 A 
ATOM     15  C   UNL     1       2.221  -0.885  -3.574  0.00  0.00    +0.025 A 
ENDBRANCH   5  10
BRANCH   7  16
ATOM     16  C   UNL     1       3.003   0.708   2.106  0.00  0.00    +0.283 C 
ATOM     17  O   UNL     1       2.511   0.849   3.210  0.00  0.00    -0.267 OA
ATOM     18  N   UNL     1       4.249   1.159   1.861  0.00  0.00    -0.277 N 
ATOM     19  H   UNL     1       4.642   1.047   0.982  0.00  0.00    +0.155 HD
BRANCH  18  20
ATOM     20  C   UNL     1       4.981   1.794   2.882  0.00  0.00    +0.072 A 
ATOM     21  C   UNL     1       4.543   2.017   4.196  0.00  0.00    +0.157 A 
ATOM     22  N   UNL     1       5.496   2.630   4.849  0.00  0.00    -0.178 NA
ATOM     23  N   UNL     1       6.576   2.821   3.978  0.00  0.00    -0.267 N 
ATOM     24  C   UNL     1       6.239   2.293   2.773  0.00  0.00    +0.132 A 
BRANCH  23  25
ATOM     25  C   UNL     1       7.847   3.469   4.309  0.00  0.00    +0.101 C 
ATOM     26  C   UNL     1       8.874   2.407   4.704  0.00  0.00    +0.032 C 
ATOM     27  C   UNL     1       8.357   4.244   3.092  0.00  0.00    +0.032 C 
ENDBRANCH  23  25
ENDBRANCH  18  20
ENDBRANCH   7  16
TORSDOF 4
