REMARK  Name = ZINC20464833
REMARK  9 active torsions:
REMARK  status: ('A' for Active; 'I' for Inactive)
REMARK    1  A    between atoms: C_4  and  C_7
REMARK    2  A    between atoms: C_7  and  N_8
REMARK    3  A    between atoms: N_8  and  C_9
REMARK    4  A    between atoms: C_9  and  C_10
REMARK    5  A    between atoms: C_12  and  N_22
REMARK    6  A    between atoms: C_14  and  O_21
REMARK    7  A    between atoms: C_16  and  C_19
REMARK    8  A    between atoms: C_19  and  O_20
REMARK    9  A    between atoms: N_25  and  C_28
REMARK                            x       y       z     vdW  Elec       q    Type
REMARK                         _______ _______ _______ _____ _____    ______ ____
ROOT
ATOM      1  C   UNL     1      -6.423   6.072   2.479  0.00  0.00    +0.122 C 
ATOM      2  C   UNL     1      -6.046   5.740   1.022  0.00  0.00    +0.115 C 
ATOM      3  C   UNL     1      -6.255   7.073   0.263  0.00  0.00    +0.165 C 
ATOM      4  C   UNL     1      -7.217   7.837   1.208  0.00  0.00    +0.174 C 
ATOM      5  O   UNL     1      -6.758   7.469   2.526  0.00  0.00    -0.369 OA
ENDROOT
BRANCH   2   6
ATOM      6  N   UNL     1      -4.642   5.315   0.938  0.00  0.00    -0.292 NA
ATOM      7  C   UNL     1      -4.484   3.926   1.390  0.00  0.00    +0.104 C 
ATOM      8  C   UNL     1      -3.001   3.549   1.363  0.00  0.00    +0.120 C 
ATOM      9  N   UNL     1      -2.480   3.718  -0.001  0.00  0.00    -0.327 N 
ATOM     10  C   UNL     1      -2.638   5.107  -0.453  0.00  0.00    +0.120 C 
ATOM     11  C   UNL     1      -4.121   5.485  -0.425  0.00  0.00    +0.104 C 
BRANCH   9  12
ATOM     12  C   UNL     1      -1.146   3.314  -0.080  0.00  0.00    +0.030 A 
ATOM     13  C   UNL     1      -0.498   2.826   1.048  0.00  0.00    +0.023 A 
ATOM     14  C   UNL     1       0.824   2.433   0.967  0.00  0.00    +0.002 A 
ATOM     15  C   UNL     1       1.499   2.515  -0.237  0.00  0.00    +0.000 A 
ATOM     16  C   UNL     1       0.855   2.995  -1.363  0.00  0.00    +0.002 A 
ATOM     17  C   UNL     1      -0.465   3.395  -1.288  0.00  0.00    +0.023 A 
ENDBRANCH   9  12
ENDBRANCH   2   6
BRANCH   3  18
ATOM     18  O   UNL     1      -5.019   7.775   0.116  0.00  0.00    -0.388 OA
ATOM     19  H   UNL     1      -4.996   8.745  -0.403  0.00  0.00    +0.210 HD
ENDBRANCH   3  18
BRANCH   1  20
ATOM     20  C   UNL     1      -5.237   5.786   3.401  0.00  0.00    -0.049 C 
BRANCH  20  21
ATOM     21  N   UNL     1      -5.519   6.318   4.741  0.00  0.00    +0.383 N 
ATOM     22  H   UNL     1      -6.427   5.834   5.129  0.00  0.00    -0.085 HD
ATOM     23  H   UNL     1      -5.686   7.402   4.662  0.00  0.00    -0.085 HD
BRANCH  21  24
ATOM     24  C   UNL     1      -4.399   6.061   5.656  0.00  0.00    -0.047 C 
BRANCH  24  28
ATOM     25  C   UNL     1      -5.320   7.646   9.515  0.00  0.00    +0.000 A 
ATOM     26  C   UNL     1      -5.665   6.344   9.202  0.00  0.00    +0.000 A 
ATOM     27  C   UNL     1      -5.367   5.832   7.953  0.00  0.00    +0.002 A 
ATOM     28  C   UNL     1      -4.724   6.620   7.017  0.00  0.00    -0.064 A 
ATOM     29  C   UNL     1      -4.374   7.920   7.332  0.00  0.00    +0.002 A 
ATOM     30  C   UNL     1      -4.677   8.435   8.579  0.00  0.00    +0.000 A 
ENDBRANCH  24  28
ENDBRANCH  21  24
ENDBRANCH  20  21
ENDBRANCH   1  20
BRANCH   4  31
ATOM     31  C   UNL     1      -7.096   9.348   0.998  0.00  0.00    +0.190 C 
BRANCH  31  32
ATOM     32  O   UNL     1      -8.003  10.024   1.871  0.00  0.00    -0.392 OA
ATOM     33  H   UNL     1      -8.059  11.123   1.862  0.00  0.00    +0.210 HD
ENDBRANCH  31  32
ENDBRANCH   4  31
TORSDOF 9
