REMARK  Name = ZINC37840352
REMARK  3 active torsions:
REMARK  status: ('A' for Active; 'I' for Inactive)
REMARK    1  A    between atoms: C_1  and  C_2
REMARK    2  A    between atoms: N_6  and  S_15
REMARK    3  A    between atoms: S_15  and  C_18
REMARK                            x       y       z     vdW  Elec       q    Type
REMARK                         _______ _______ _______ _____ _____    ______ ____
ROOT
ATOM      1  C   UNL     1       0.188   1.264  -1.919  0.00  0.00    +0.008 C 
ATOM      2  C   UNL     1       0.225  -0.246  -1.678  0.00  0.00    -0.008 C 
ATOM      3  C   UNL     1       1.432  -0.850  -2.402  0.00  0.00    +0.020 C 
ATOM      4  C   UNL     1       1.465  -2.364  -2.176  0.00  0.00    +0.110 C 
ATOM      5  N   UNL     1       1.422  -2.637  -0.731  0.00  0.00    -0.173 NA
ATOM      6  C   UNL     1       0.339  -2.035   0.055  0.00  0.00    +0.083 C 
ATOM      7  C   UNL     1       0.348  -0.521  -0.180  0.00  0.00    +0.011 C 
ATOM      8  C   UNL     1      -0.816   0.110   0.582  0.00  0.00    +0.005 C 
ATOM      9  C   UNL     1      -0.642  -0.167   2.078  0.00  0.00    +0.000 C 
ATOM     10  C   UNL     1      -0.614  -1.675   2.328  0.00  0.00    +0.002 C 
ATOM     11  C   UNL     1       0.539  -2.313   1.544  0.00  0.00    +0.021 C 
ENDROOT
BRANCH   5  12
ATOM     12  S   UNL     1       2.563  -3.597  -0.012  0.00  0.00    +0.062 S 
ATOM     13  O   UNL     1       3.647  -3.693  -0.926  0.00  0.00    -0.153 OA
ATOM     14  O   UNL     1       2.726  -3.111   1.313  0.00  0.00    -0.153 OA
BRANCH  12  15
ATOM     15  C   UNL     1       1.875  -5.213   0.124  0.00  0.00    +0.122 A 
ATOM     16  C   UNL     1       1.181  -5.584   1.284  0.00  0.00    +0.035 A 
ATOM     17  C   UNL     1       0.654  -6.839   1.373  0.00  0.00    +0.072 A 
ATOM     18  C   UNL     1       0.818  -7.732   0.299  0.00  0.00    +0.249 A 
ATOM     19  O   UNL     1       0.351  -8.858   0.366  0.00  0.00    -0.268 OA
ATOM     20  N   UNL     1       1.490  -7.345  -0.802  0.00  0.00    -0.327 N 
ATOM     21  H   UNL     1       1.600  -7.966  -1.539  0.00  0.00    +0.168 HD
ATOM     22  C   UNL     1       2.010  -6.095  -0.894  0.00  0.00    +0.114 A 
ENDBRANCH  12  15
ENDBRANCH   5  12
TORSDOF 2
