REMARK  Name = ZINC16720979
REMARK  8 active torsions:
REMARK  status: ('A' for Active; 'I' for Inactive)
REMARK    1  A    between atoms: C_1  and  C_2
REMARK    2  A    between atoms: C_2  and  C_3
REMARK    3  A    between atoms: C_2  and  N_4
REMARK    4  A    between atoms: N_4  and  C_5
REMARK    5  A    between atoms: N_4  and  S_6
REMARK    6  A    between atoms: S_6  and  C_9
REMARK    7  A    between atoms: C_12  and  N_15
REMARK    8  A    between atoms: N_15  and  C_16
REMARK                            x       y       z     vdW  Elec       q    Type
REMARK                         _______ _______ _______ _____ _____    ______ ____
ROOT
ATOM      1  N   UNL     1       0.126  -7.031  -0.939  0.00  0.00    -0.320 N 
ATOM      2  H   UNL     1      -0.019  -7.464  -0.083  0.00  0.00    +0.152 HD
ENDROOT
BRANCH   1   3
ATOM      3  C   UNL     1       0.165  -7.772  -2.078  0.00  0.00    +0.085 C 
ATOM      4  C   UNL     1      -0.145  -9.114  -2.038  0.00  0.00    +0.059 C 
ATOM      5  C   UNL     1      -1.057  -9.653  -1.009  0.00  0.00    +0.000 A 
ATOM      6  C   UNL     1      -1.638  -8.837  -0.045  0.00  0.00    +0.009 A 
ATOM      7  C   UNL     1      -2.485  -9.389   0.895  0.00  0.00    +0.001 A 
ATOM      8  C   UNL     1      -2.759 -10.749   0.884  0.00  0.00    +0.001 A 
ATOM      9  C   UNL     1      -2.192 -11.574  -0.063  0.00  0.00    +0.013 A 
ATOM     10  C   UNL     1      -1.334 -11.036  -1.022  0.00  0.00    +0.045 A 
ATOM     11  C   UNL     1      -0.710 -11.880  -2.050  0.00  0.00    +0.251 C 
ATOM     12  O   UNL     1      -0.944 -13.074  -2.067  0.00  0.00    -0.270 OA
ATOM     13  N   UNL     1       0.116 -11.356  -2.971  0.00  0.00    -0.248 N 
ATOM     14  C   UNL     1       0.418 -10.049  -3.019  0.00  0.00    +0.252 C 
ATOM     15  O   UNL     1       1.169  -9.635  -3.884  0.00  0.00    -0.270 OA
ATOM     16  H   UNL     1       0.508 -11.948  -3.632  0.00  0.00    +0.158 HD
ENDBRANCH   1   3
BRANCH   1  20
ATOM     17  C   UNL     1       0.628  -2.901  -1.124  0.00  0.00    +0.106 A 
ATOM     18  C   UNL     1       0.421  -3.517   0.097  0.00  0.00    +0.030 A 
ATOM     19  C   UNL     1       0.254  -4.886   0.162  0.00  0.00    +0.025 A 
ATOM     20  C   UNL     1       0.294  -5.645  -1.001  0.00  0.00    +0.031 A 
ATOM     21  C   UNL     1       0.501  -5.023  -2.226  0.00  0.00    +0.025 A 
ATOM     22  C   UNL     1       0.662  -3.653  -2.284  0.00  0.00    +0.030 A 
BRANCH  17  23
ATOM     23  S   UNL     1       0.841  -1.154  -1.202  0.00  0.00    +0.061 S 
ATOM     24  O   UNL     1       1.557  -0.885  -2.400  0.00  0.00    -0.153 OA
ATOM     25  O   UNL     1       1.312  -0.744   0.075  0.00  0.00    -0.153 OA
BRANCH  23  26
ATOM     26  N   UNL     1      -0.662  -0.485  -1.389  0.00  0.00    -0.177 NA
ATOM     27  C   UNL     1      -1.202  -0.260  -2.732  0.00  0.00    +0.132 C 
BRANCH  26  29
ATOM     28  C   UNL     1      -1.749   1.383  -0.244  0.00  0.00    +0.025 C 
ATOM     29  C   UNL     1      -1.452  -0.117  -0.211  0.00  0.00    +0.073 C 
ATOM     30  C   UNL     1      -2.768  -0.898  -0.215  0.00  0.00    +0.025 C 
ENDBRANCH  26  29
ENDBRANCH  23  26
ENDBRANCH  17  23
ENDBRANCH   1  20
TORSDOF 5
