REMARK  Name = ZINC48275862
REMARK  12 active torsions:
REMARK  status: ('A' for Active; 'I' for Inactive)
REMARK    1  A    between atoms: C_1  and  C_2
REMARK    2  A    between atoms: C_2  and  C_3
REMARK    3  A    between atoms: C_2  and  C_4
REMARK    4  A    between atoms: C_2  and  N_25
REMARK    5  A    between atoms: C_4  and  N_5
REMARK    6  A    between atoms: N_5  and  C_6
REMARK    7  A    between atoms: N_5  and  S_15
REMARK    8  A    between atoms: C_6  and  C_7
REMARK    9  A    between atoms: S_15  and  C_18
REMARK   10  A    between atoms: N_20  and  C_23
REMARK   11  A    between atoms: N_25  and  C_26
REMARK   12  A    between atoms: N_25  and  C_27
REMARK                            x       y       z     vdW  Elec       q    Type
REMARK                         _______ _______ _______ _____ _____    ______ ____
ROOT
ATOM      1  N   UNL     1      -1.335  -2.483  -0.317  0.00  0.00    -0.172 NA
ENDROOT
BRANCH   1   2
ATOM      2  S   UNL     1      -0.409  -2.912  -1.621  0.00  0.00    +0.081 S 
ATOM      3  O   UNL     1      -0.742  -4.258  -1.931  0.00  0.00    -0.151 OA
ATOM      4  O   UNL     1      -0.530  -1.859  -2.568  0.00  0.00    -0.151 OA
BRANCH   2   5
ATOM      5  C   UNL     1       1.270  -2.918  -1.087  0.00  0.00    +0.231 A 
ATOM      6  C   UNL     1       2.178  -1.948  -1.315  0.00  0.00    +0.156 A 
ATOM      7  N   UNL     1       3.347  -2.354  -0.730  0.00  0.00    -0.323 N 
ATOM      8  C   UNL     1       3.113  -3.559  -0.165  0.00  0.00    +0.202 A 
ATOM      9  N   UNL     1       1.869  -3.888  -0.378  0.00  0.00    -0.215 NA
ATOM     10  C   UNL     1       4.614  -1.620  -0.719  0.00  0.00    +0.151 C 
ATOM     11 CL   UNL     1       1.915  -0.468  -2.184  0.00  0.00    -0.060 Cl
ENDBRANCH   2   5
ENDBRANCH   1   2
BRANCH   1  12
ATOM     12  C   UNL     1      -1.645  -1.073  -0.070  0.00  0.00    +0.097 C 
BRANCH  12  14
ATOM     13  C   UNL     1      -1.675   0.207   2.076  0.00  0.00    -0.009 C 
ATOM     14  C   UNL     1      -0.790  -0.559   1.090  0.00  0.00    -0.057 C 
ATOM     15  C   UNL     1      -0.135  -1.742   1.805  0.00  0.00    -0.009 C 
BRANCH  14  16
ATOM     16  N   UNL     1       0.252   0.337   0.570  0.00  0.00    +0.380 N 
ATOM     17  C   UNL     1      -0.377   1.491  -0.086  0.00  0.00    -0.096 C 
ATOM     18  C   UNL     1       1.095   0.803   1.680  0.00  0.00    -0.096 C 
ATOM     19  H   UNL     1       0.821  -0.161  -0.098  0.00  0.00    -0.082 HD
ENDBRANCH  14  16
ENDBRANCH  12  14
ENDBRANCH   1  12
BRANCH   1  20
ATOM     20  C   UNL     1      -1.845  -3.515   0.590  0.00  0.00    +0.144 C 
BRANCH  20  21
ATOM     21  C   UNL     1      -3.351  -3.530   0.538  0.00  0.00    -0.030 A 
ATOM     22  C   UNL     1      -4.080  -2.732   1.399  0.00  0.00    +0.006 A 
ATOM     23  C   UNL     1      -5.461  -2.746   1.353  0.00  0.00    +0.022 A 
ATOM     24  C   UNL     1      -6.115  -3.558   0.443  0.00  0.00    +0.059 A 
ATOM     25  C   UNL     1      -5.385  -4.357  -0.420  0.00  0.00    +0.060 A 
ATOM     26  C   UNL     1      -4.002  -4.338  -0.375  0.00  0.00    +0.026 A 
ATOM     27 CL   UNL     1      -6.203  -5.377  -1.561  0.00  0.00    -0.082 Cl
ATOM     28 CL   UNL     1      -7.850  -3.576   0.385  0.00  0.00    -0.082 Cl
ENDBRANCH  20  21
ENDBRANCH   1  20
TORSDOF 7
