REMARK  Name = ZINC41378558
REMARK  9 active torsions:
REMARK  status: ('A' for Active; 'I' for Inactive)
REMARK    1  A    between atoms: CB_1  and  CA_2
REMARK    2  A    between atoms: CA_2  and  C_4
REMARK    3  A    between atoms: CA_2  and  N_6
REMARK    4  A    between atoms: C_4  and  O_5
REMARK    5  A    between atoms: C_7  and  C_9
REMARK    6  A    between atoms: N_11  and  C_12
REMARK    7  A    between atoms: C_15  and  N_22
REMARK    8  A    between atoms: C_17  and  C_18
REMARK    9  A    between atoms: C_23  and  C_25
REMARK                            x       y       z     vdW  Elec       q    Type
REMARK                         _______ _______ _______ _____ _____    ______ ____
ROOT
ATOM      1  C   UNK A   0       4.750  -1.730  -3.548  0.00  0.00    +0.046 A 
ATOM      2  C   UNK A   0       4.069  -2.071  -4.710  0.00  0.00    +0.026 A 
ATOM      3  C   UNK A   0       4.760  -2.587  -5.788  0.00  0.00    +0.025 A 
ATOM      4  C   UNK A   0       6.135  -2.766  -5.711  0.00  0.00    +0.034 A 
ATOM      5  C   UNK A   0       6.816  -2.426  -4.549  0.00  0.00    +0.037 A 
ATOM      6  C   UNK A   0       6.127  -1.904  -3.473  0.00  0.00    +0.078 A 
ENDROOT
BRANCH   1   9
ATOM      7  C   UNK A   0       2.802  -1.637  -2.187  0.00  0.00    +0.303 C 
ATOM      8  O   UNK A   0       2.252  -2.414  -2.940  0.00  0.00    -0.265 OA
ATOM      9  N   UNK A   0       4.051  -1.208  -2.455  0.00  0.00    -0.277 N 
ATOM     10  H   UNK A   0       4.465  -0.537  -1.891  0.00  0.00    +0.155 HD
BRANCH   7  12
ATOM     11  N   ALA A   1       0.844  -1.584  -0.696  0.00  0.00    -0.303 N 
ATOM     12  C   UNK A   0       2.094  -1.155  -0.964  0.00  0.00    +0.300 C 
ATOM     13  O   UNK A   0       2.643  -0.378  -0.211  0.00  0.00    -0.265 OA
ATOM     14  H   ALA A   1       0.405  -2.205  -1.298  0.00  0.00    +0.150 HD
BRANCH  11  16
ATOM     15  CB  ALA A   1      -0.531   0.226   0.207  0.00  0.00    +0.030 C 
ATOM     16  CA  ALA A   1       0.149  -1.112   0.504  0.00  0.00    +0.096 C 
BRANCH  16  17
ATOM     17  C   ALA A   1      -0.905  -2.139   0.921  0.00  0.00    +0.177 C 
BRANCH  17  18
ATOM     18  O   ALA A   1      -1.912  -2.224  -0.090  0.00  0.00    -0.393 OA
ATOM     19  H   ALA A   1      -2.615  -2.858   0.108  0.00  0.00    +0.209 HD
ENDBRANCH  17  18
ENDBRANCH  16  17
ENDBRANCH  11  16
ENDBRANCH   7  12
ENDBRANCH   1   9
BRANCH   6  20
ATOM     20  C   UNK A   0       6.866  -1.528  -2.215  0.00  0.00    +0.419 C 
ATOM     21  F   UNK A   0       8.230  -1.792  -2.379  0.00  0.00    -0.166 F 
ATOM     22  F   UNK A   0       6.683  -0.166  -1.955  0.00  0.00    -0.166 F 
ATOM     23  F   UNK A   0       6.372  -2.279  -1.142  0.00  0.00    -0.166 F 
ENDBRANCH   6  20
BRANCH   4  24
ATOM     24  N   UNK A   0       6.835  -3.289  -6.804  0.00  0.00    -0.279 N 
ATOM     25  C   UNK A   0       6.450  -2.984  -8.059  0.00  0.00    +0.284 C 
ATOM     26  O   UNK A   0       5.445  -2.323  -8.244  0.00  0.00    -0.266 OA
ATOM     27  H   UNK A   0       7.597  -3.871  -6.658  0.00  0.00    +0.155 HD
BRANCH  25  28
ATOM     28  C   UNK A   0       7.242  -3.450  -9.202  0.00  0.00    +0.189 A 
ATOM     29  C   UNK A   0       6.969  -3.209 -10.518  0.00  0.00    +0.054 A 
ATOM     30  C   UNK A   0       7.980  -3.837 -11.262  0.00  0.00    +0.042 A 
ATOM     31  C   UNK A   0       8.816  -4.426 -10.378  0.00  0.00    +0.196 A 
ATOM     32  O   UNK A   0       8.370  -4.186  -9.138  0.00  0.00    -0.458 OA
ENDBRANCH  25  28
ENDBRANCH   4  24
TORSDOF 8
