REMARK  Name = ZINC66376628
REMARK  5 active torsions:
REMARK  status: ('A' for Active; 'I' for Inactive)
REMARK    1  A    between atoms: C_1  and  C_2
REMARK    2  A    between atoms: C_2  and  C_4
REMARK    3  A    between atoms: C_2  and  N_16
REMARK    4  A    between atoms: C_17  and  C_19
REMARK    5  A    between atoms: C_22  and  C_25
REMARK                            x       y       z     vdW  Elec       q    Type
REMARK                         _______ _______ _______ _____ _____    ______ ____
ROOT
ATOM      1  N   UNL     1       0.711  -0.489   1.189  0.00  0.00    -0.306 N 
ATOM      2  C   UNL     1       2.054  -0.600   1.174  0.00  0.00    +0.257 C 
ATOM      3  O   UNL     1       2.676  -0.297   0.177  0.00  0.00    -0.272 OA
ATOM      4  H   UNL     1       0.213  -0.731   1.986  0.00  0.00    +0.149 HD
ENDROOT
BRANCH   2   5
ATOM      5  C   UNL     1       2.783  -1.099   2.395  0.00  0.00    +0.295 C 
ATOM      6  C   UNL     1       2.472  -2.593   2.653  0.00  0.00    +0.116 C 
ATOM      7  C   UNL     1       3.616  -3.294   1.945  0.00  0.00    +0.094 C 
ATOM      8  N   UNL     1       4.538  -2.423   1.704  0.00  0.00    -0.088 NA
ATOM      9  O   UNL     1       4.207  -1.129   2.169  0.00  0.00    -0.380 OA
BRANCH   7  10
ATOM     10  C   UNL     1       3.665  -4.726   1.591  0.00  0.00    +0.037 A 
ATOM     11  C   UNL     1       2.593  -5.564   1.905  0.00  0.00    +0.051 A 
ATOM     12  C   UNL     1       2.646  -6.903   1.571  0.00  0.00    +0.124 A 
ATOM     13  C   UNL     1       3.761  -7.416   0.927  0.00  0.00    +0.041 A 
ATOM     14  C   UNL     1       4.827  -6.593   0.614  0.00  0.00    +0.042 A 
ATOM     15  C   UNL     1       4.784  -5.249   0.936  0.00  0.00    +0.132 A 
ATOM     16  F   UNL     1       5.824  -4.445   0.624  0.00  0.00    -0.205 F 
ATOM     17  F   UNL     1       1.610  -7.715   1.874  0.00  0.00    -0.205 F 
ENDBRANCH   7  10
ENDBRANCH   2   5
BRANCH   1  19
ATOM     18  C   UNL     1      -0.019   1.526   0.010  0.00  0.00    +0.033 C 
ATOM     19  C   UNL     1       0.002  -0.004   0.002  0.00  0.00    +0.100 C 
BRANCH  19  20
ATOM     20  C   UNL     1      -1.412  -0.526   0.013  0.00  0.00    -0.025 A 
ATOM     21  C   UNL     1      -2.121  -0.570   1.201  0.00  0.00    +0.007 A 
ATOM     22  C   UNL     1      -3.417  -1.046   1.221  0.00  0.00    +0.028 A 
ATOM     23  C   UNL     1      -4.011  -1.482   0.046  0.00  0.00    +0.067 A 
ATOM     24  C   UNL     1      -3.295  -1.438  -1.153  0.00  0.00    +0.067 A 
ATOM     25  C   UNL     1      -1.996  -0.953  -1.164  0.00  0.00    +0.033 A 
ATOM     26  N   UNL     1      -4.139  -1.932  -2.144  0.00  0.00    -0.306 N 
ATOM     27  H   UNL     1      -3.918  -2.023  -3.084  0.00  0.00    +0.170 HD
ATOM     28  C   UNL     1      -5.314  -2.262  -1.575  0.00  0.00    +0.325 A 
ATOM     29  O   UNL     1      -6.272  -2.725  -2.165  0.00  0.00    -0.247 OA
ATOM     30  N   UNL     1      -5.267  -2.002  -0.255  0.00  0.00    -0.306 N 
ATOM     31  H   UNL     1      -5.986  -2.151   0.379  0.00  0.00    +0.170 HD
ENDBRANCH  19  20
ENDBRANCH   1  19
TORSDOF 4
