REMARK  Name = ZINC64713045
REMARK  8 active torsions:
REMARK  status: ('A' for Active; 'I' for Inactive)
REMARK    1  A    between atoms: C_1  and  C_2
REMARK    2  A    between atoms: C_5  and  C_8
REMARK    3  A    between atoms: C_10  and  C_14
REMARK    4  A    between atoms: C_11  and  C_13
REMARK    5  A    between atoms: C_14  and  S_15
REMARK    6  A    between atoms: S_15  and  C_16
REMARK    7  A    between atoms: C_26  and  C_28
REMARK    8  A    between atoms: C_31  and  C_34
REMARK                            x       y       z     vdW  Elec       q    Type
REMARK                         _______ _______ _______ _____ _____    ______ ____
ROOT
ATOM      1  C   UNL     1      -1.410  -9.471   2.970  0.00  0.00    +0.272 C 
ATOM      2  N   UNL     1      -0.653  -9.103   4.180  0.00  0.00    -0.163 NA
ATOM      3  N   UNL     1       0.141  -9.861   4.742  0.00  0.00    -0.081 NA
ATOM      4  C   UNL     1       0.382 -11.134   4.336  0.00  0.00    +0.276 C 
ATOM      5  O   UNL     1       1.245 -11.812   4.842  0.00  0.00    -0.270 OA
ATOM      6  C   UNL     1      -0.481 -11.651   3.227  0.00  0.00    +0.193 C 
ATOM      7  N   UNL     1      -0.649 -10.495   2.288  0.00  0.00    -0.178 NA
ATOM      8  N   UNL     1      -1.103 -11.130   1.183  0.00  0.00    -0.274 N 
ATOM      9  C   UNL     1      -0.285 -12.280   1.066  0.00  0.00    +0.047 C 
ATOM     10  C   UNL     1       0.141 -12.667   2.308  0.00  0.00    +0.027 C 
ATOM     11  H   UNL     1      -1.829 -10.858   0.600  0.00  0.00    +0.167 HD
ENDROOT
BRANCH   9  12
ATOM     12  C   UNL     1       0.049 -12.967  -0.203  0.00  0.00    -0.003 A 
ATOM     13  C   UNL     1       0.863 -14.100  -0.192  0.00  0.00    +0.010 A 
ATOM     14  C   UNL     1       1.170 -14.736  -1.378  0.00  0.00    +0.004 A 
ATOM     15  C   UNL     1       0.673 -14.252  -2.575  0.00  0.00    -0.050 A 
ATOM     16  C   UNL     1      -0.135 -13.130  -2.591  0.00  0.00    +0.004 A 
ATOM     17  C   UNL     1      -0.455 -12.488  -1.412  0.00  0.00    +0.010 A 
ATOM     18  C   UNL     1       1.013 -14.951  -3.865  0.00  0.00    +0.044 C 
ENDBRANCH   9  12
BRANCH   1  19
ATOM     19  S   UNL     1      -1.603  -8.023   1.896  0.00  0.00    -0.110 S 
BRANCH  19  20
ATOM     20  C   UNL     1       0.101  -7.514   1.536  0.00  0.00    +0.131 C 
BRANCH  20  23
ATOM     21  C   UNL     1       0.058  -4.251  -0.021  0.00  0.00    +0.228 A 
ATOM     22  N   UNL     1       0.068  -5.023   1.040  0.00  0.00    -0.213 NA
ATOM     23  C   UNL     1       0.085  -6.303   0.639  0.00  0.00    +0.093 A 
ATOM     24  C   UNL     1       0.085  -6.314  -0.707  0.00  0.00    +0.127 A 
ATOM     25  O   UNL     1       0.062  -5.030  -1.117  0.00  0.00    -0.440 OA
ATOM     26  C   UNL     1       0.101  -7.534  -1.591  0.00  0.00    +0.088 C 
BRANCH  21  31
ATOM     27  C   UNL     1      -0.018   1.503   0.010  0.00  0.00    +0.044 C 
ATOM     28  C   UNL     1       0.002  -0.004   0.002  0.00  0.00    -0.050 A 
ATOM     29  C   UNL     1       0.006  -0.686  -1.202  0.00  0.00    +0.004 A 
ATOM     30  C   UNL     1       0.024  -2.066  -1.216  0.00  0.00    +0.013 A 
ATOM     31  C   UNL     1       0.039  -2.773  -0.013  0.00  0.00    +0.037 A 
ATOM     32  C   UNL     1       0.036  -2.079   1.198  0.00  0.00    +0.013 A 
ATOM     33  C   UNL     1       0.023  -0.699   1.198  0.00  0.00    +0.004 A 
ENDBRANCH  21  31
ENDBRANCH  20  23
ENDBRANCH  19  20
ENDBRANCH   1  19
TORSDOF 5
