REMARK  Name = ZINC39795880
REMARK  8 active torsions:
REMARK  status: ('A' for Active; 'I' for Inactive)
REMARK    1  A    between atoms: C_1  and  C_2
REMARK    2  A    between atoms: C_4  and  C_15
REMARK    3  A    between atoms: C_6  and  S_9
REMARK    4  A    between atoms: C_7  and  C_8
REMARK    5  A    between atoms: S_9  and  N_12
REMARK    6  A    between atoms: N_12  and  C_13
REMARK    7  A    between atoms: N_12  and  C_14
REMARK    8  A    between atoms: C_20  and  C_23
REMARK                            x       y       z     vdW  Elec       q    Type
REMARK                         _______ _______ _______ _____ _____    ______ ____
ROOT
ATOM      1  C   UNL     1      -1.038  -2.962  -2.258  0.00  0.00    +0.247 C 
ATOM      2  O   UNL     1      -0.844  -4.160  -2.196  0.00  0.00    -0.270 OA
ATOM      3  N   UNL     1      -1.549  -2.419  -3.381  0.00  0.00    -0.293 N 
ATOM      4  C   UNL     1      -1.970  -3.260  -4.514  0.00  0.00    +0.113 C 
ATOM      5  C   UNL     1      -3.476  -3.067  -4.714  0.00  0.00    +0.054 C 
ATOM      6  C   UNL     1      -3.827  -1.610  -4.667  0.00  0.00    -0.043 C 
ATOM      7  C   UNL     1      -3.052  -0.673  -4.133  0.00  0.00    -0.004 C 
ATOM      8  C   UNL     1      -1.714  -0.965  -3.520  0.00  0.00    +0.135 C 
ENDROOT
BRANCH   6   9
ATOM      9  C   UNL     1      -5.058  -1.209  -5.224  0.00  0.00    -0.016 C 
ATOM     10  C   UNL     1      -6.059  -2.030  -5.727  0.00  0.00    +0.003 A 
ATOM     11  C   UNL     1      -6.175  -3.435  -5.841  0.00  0.00    +0.010 A 
ATOM     12  C   UNL     1      -7.292  -3.975  -6.387  0.00  0.00    +0.001 A 
ATOM     13  C   UNL     1      -8.345  -3.177  -6.844  0.00  0.00    +0.002 A 
ATOM     14  C   UNL     1      -8.304  -1.825  -6.767  0.00  0.00    +0.026 A 
ATOM     15  C   UNL     1      -7.166  -1.184  -6.208  0.00  0.00    +0.043 A 
ATOM     16  N   UNL     1      -6.887   0.088  -6.023  0.00  0.00    -0.380 N 
ATOM     17  C   UNL     1      -5.567   0.205  -5.394  0.00  0.00    +0.149 C 
ATOM     18  H   UNL     1      -7.464   0.830  -6.261  0.00  0.00    +0.160 HD
ENDBRANCH   6   9
BRANCH   1  22
ATOM     19  C   UNL     1       0.907   1.254  -0.428  0.00  0.00    +0.044 C 
ATOM     20  C   UNL     1       0.222  -0.071  -0.217  0.00  0.00    -0.045 A 
ATOM     21  C   UNL     1      -0.078  -0.872  -1.300  0.00  0.00    +0.016 A 
ATOM     22  C   UNL     1      -0.713  -2.099  -1.102  0.00  0.00    +0.039 A 
ATOM     23  C   UNL     1      -1.040  -2.508   0.192  0.00  0.00    +0.042 A 
ATOM     24  C   UNL     1      -0.734  -1.699   1.266  0.00  0.00    +0.109 A 
ATOM     25  C   UNL     1      -0.100  -0.485   1.063  0.00  0.00    -0.021 A 
ATOM     26  C   UNL     1       0.236   0.391   2.242  0.00  0.00    +0.046 C 
BRANCH  24  27
ATOM     27  S   UNL     1      -1.147  -2.213   2.900  0.00  0.00    +0.061 S 
ATOM     28  O   UNL     1      -1.795  -3.472   2.778  0.00  0.00    -0.153 OA
ATOM     29  O   UNL     1       0.020  -2.030   3.690  0.00  0.00    -0.153 OA
BRANCH  27  30
ATOM     30  N   UNL     1      -2.280  -1.152   3.476  0.00  0.00    -0.183 NA
ATOM     31  C   UNL     1      -3.691  -1.322   3.120  0.00  0.00    +0.131 C 
ATOM     32  C   UNL     1      -1.871  -0.042   4.341  0.00  0.00    +0.131 C 
ENDBRANCH  27  30
ENDBRANCH  24  27
ENDBRANCH   1  22
TORSDOF 4
