REMARK  Name = ZINC56910863
REMARK  6 active torsions:
REMARK  status: ('A' for Active; 'I' for Inactive)
REMARK    1  A    between atoms: C_1  and  C_2
REMARK    2  A    between atoms: C_2  and  C_3
REMARK    3  A    between atoms: C_2  and  C_4
REMARK    4  A    between atoms: C_2  and  N_5
REMARK    5  A    between atoms: C_6  and  N_18
REMARK    6  A    between atoms: C_13  and  C_15
REMARK                            x       y       z     vdW  Elec       q    Type
REMARK                         _______ _______ _______ _____ _____    ______ ____
ROOT
ATOM      1  N   UNL     1       1.314  -0.797  -1.030  0.00  0.00    -0.242 N 
ATOM      2  C   UNL     1       1.298  -2.119  -1.316  0.00  0.00    +0.141 A 
ATOM      3  C   UNL     1       1.829  -2.276  -2.559  0.00  0.00    +0.037 A 
ATOM      4  C   UNL     1       2.176  -1.012  -3.041  0.00  0.00    +0.087 A 
ATOM      5  N   UNL     1       1.863  -0.125  -2.129  0.00  0.00    -0.172 NA
ATOM      6  C   UNL     1       2.766  -1.169  -4.420  0.00  0.00    +0.165 C 
ATOM      7  N   UNL     1       2.759  -2.597  -4.750  0.00  0.00    -0.291 N 
ATOM      8  C   UNL     1       2.179  -3.304  -3.604  0.00  0.00    +0.149 C 
ATOM      9  C   UNL     1       3.203  -3.155  -5.894  0.00  0.00    +0.219 C 
ATOM     10  O   UNL     1       3.141  -4.357  -6.046  0.00  0.00    -0.275 OA
ENDROOT
BRANCH   2  11
ATOM     11  N   UNL     1       0.824  -3.138  -0.485  0.00  0.00    -0.308 N 
ATOM     12  C   UNL     1      -0.490  -3.432  -0.257  0.00  0.00    +0.092 A 
ATOM     13  C   UNL     1      -0.546  -4.475   0.597  0.00  0.00    +0.019 A 
ATOM     14  C   UNL     1       0.780  -4.839   0.908  0.00  0.00    +0.019 A 
ATOM     15  C   UNL     1       1.597  -4.008   0.229  0.00  0.00    +0.092 A 
ENDBRANCH   2  11
BRANCH   1  17
ATOM     16  C   UNL     1      -0.681  -0.353   0.313  0.00  0.00    +0.036 C 
ATOM     17  C   UNL     1       0.835  -0.177   0.208  0.00  0.00    +0.057 C 
ATOM     18  C   UNL     1       1.176   1.314   0.197  0.00  0.00    +0.036 C 
ATOM     19  C   UNL     1       1.510  -0.846   1.407  0.00  0.00    +0.036 C 
ENDBRANCH   1  17
BRANCH   9  20
ATOM     20  C   UNL     1       3.776  -2.287  -6.984  0.00  0.00    +0.075 C 
ATOM     21  C   UNL     1       2.973  -2.158  -8.280  0.00  0.00    +0.013 C 
ATOM     22  C   UNL     1       4.263  -2.981  -8.258  0.00  0.00    +0.013 C 
ENDBRANCH   9  20
TORSDOF 3
