REMARK  Name = ZINC14013441
REMARK  8 active torsions:
REMARK  status: ('A' for Active; 'I' for Inactive)
REMARK    1  A    between atoms: C_1  and  C_2
REMARK    2  A    between atoms: C_5  and  C_34
REMARK    3  A    between atoms: C_6  and  N_8
REMARK    4  A    between atoms: C_9  and  C_11
REMARK    5  A    between atoms: C_11  and  C_12
REMARK    6  A    between atoms: N_23  and  C_26
REMARK    7  A    between atoms: C_29  and  C_33
REMARK    8  A    between atoms: C_30  and  C_32
REMARK                            x       y       z     vdW  Elec       q    Type
REMARK                         _______ _______ _______ _____ _____    ______ ____
ROOT
ATOM      1  C   UNL     1      -1.267   2.124   0.069  0.00  0.00    +0.112 C 
ATOM      2  C   UNL     1      -1.115   3.649   0.158  0.00  0.00    +0.103 C 
ATOM      3  S   UNL     1       0.708   3.823   0.135  0.00  0.00    -0.085 S 
ATOM      4  C   UNL     1       1.161   2.105   0.030  0.00  0.00    +0.174 A 
ATOM      5  N   UNL     1      -0.003   1.391   0.010  0.00  0.00    -0.283 N 
ATOM      6  C   UNL     1       0.097   0.024  -0.069  0.00  0.00    +0.266 A 
ATOM      7  O   UNL     1      -0.910  -0.661  -0.090  0.00  0.00    -0.267 OA
ATOM      8  C   UNL     1       1.369  -0.585  -0.126  0.00  0.00    +0.103 A 
ATOM      9  C   UNL     1       1.817  -1.921  -0.210  0.00  0.00    +0.150 A 
ATOM     10  N   UNL     1       3.121  -1.919  -0.234  0.00  0.00    -0.172 NA
ATOM     11  N   UNL     1       3.589  -0.601  -0.168  0.00  0.00    -0.214 N 
ATOM     12  C   UNL     1       2.513   0.230  -0.101  0.00  0.00    +0.171 A 
ATOM     13  N   UNL     1       2.354   1.555  -0.023  0.00  0.00    -0.203 NA
ENDROOT
BRANCH  11  14
ATOM     14  C   UNL     1       4.933  -0.205  -0.170  0.00  0.00    +0.068 A 
ATOM     15  C   UNL     1       5.312   0.970  -0.805  0.00  0.00    +0.028 A 
ATOM     16  C   UNL     1       6.636   1.360  -0.800  0.00  0.00    +0.006 A 
ATOM     17  C   UNL     1       7.588   0.575  -0.174  0.00  0.00    -0.047 A 
ATOM     18  C   UNL     1       7.215  -0.598   0.455  0.00  0.00    -0.046 A 
ATOM     19  C   UNL     1       5.890  -0.991   0.458  0.00  0.00    +0.031 A 
ATOM     20  C   UNL     1       8.254  -1.450   1.137  0.00  0.00    +0.044 C 
ATOM     21  C   UNL     1       9.033   1.000  -0.176  0.00  0.00    +0.044 C 
ENDBRANCH  11  14
BRANCH   1  22
ATOM     22  C   UNL     1      -2.082   1.786  -1.181  0.00  0.00    +0.122 C 
BRANCH  22  24
ATOM     23  N   UNL     1      -4.365   2.199  -2.039  0.00  0.00    -0.285 N 
ATOM     24  C   UNL     1      -3.450   2.409  -1.072  0.00  0.00    +0.219 C 
ATOM     25  O   UNL     1      -3.727   3.100  -0.115  0.00  0.00    -0.275 OA
ATOM     26  H   UNL     1      -4.172   1.585  -2.765  0.00  0.00    +0.155 HD
BRANCH  23  32
ATOM     27  C   UNL     1      -8.009   4.191   0.593  0.00  0.00    +0.044 C 
ATOM     28  C   UNL     1      -7.384   3.843  -0.733  0.00  0.00    -0.049 A 
ATOM     29  C   UNL     1      -8.026   4.184  -1.910  0.00  0.00    +0.004 A 
ATOM     30  C   UNL     1      -7.455   3.867  -3.129  0.00  0.00    +0.005 A 
ATOM     31  C   UNL     1      -6.239   3.214  -3.175  0.00  0.00    -0.029 A 
ATOM     32  C   UNL     1      -5.595   2.865  -1.996  0.00  0.00    +0.037 A 
ATOM     33  C   UNL     1      -6.170   3.185  -0.773  0.00  0.00    +0.027 A 
ATOM     34  C   UNL     1      -5.615   2.875  -4.504  0.00  0.00    +0.045 C 
ENDBRANCH  23  32
ENDBRANCH  22  24
ENDBRANCH   1  22
TORSDOF 4
