REMARK  Name = ZINC35938821
REMARK  6 active torsions:
REMARK  status: ('A' for Active; 'I' for Inactive)
REMARK    1  A    between atoms: C_1  and  C_2
REMARK    2  A    between atoms: C_2  and  C_4
REMARK    3  A    between atoms: C_2  and  N_21
REMARK    4  A    between atoms: N_9  and  S_12
REMARK    5  A    between atoms: S_12  and  C_15
REMARK    6  A    between atoms: C_29  and  C_31
REMARK                            x       y       z     vdW  Elec       q    Type
REMARK                         _______ _______ _______ _____ _____    ______ ____
ROOT
ATOM      1  C   UNL     1       0.111   1.541  -0.192  0.00  0.00    -0.004 C 
ATOM      2  C   UNL     1       0.122   0.012  -0.143  0.00  0.00    +0.018 C 
ENDROOT
BRANCH   2   3
ATOM      3  N   UNL     1      -1.232  -0.478   0.150  0.00  0.00    +0.395 N 
ATOM      4  C   UNL     1      -1.727   0.172   1.371  0.00  0.00    -0.071 C 
ATOM      5  C   UNL     1      -2.983  -0.573   1.856  0.00  0.00    +0.024 C 
ATOM      6  C   UNL     1      -3.875  -0.770   0.674  0.00  0.00    -0.010 A 
ATOM      7  C   UNL     1      -3.532  -0.604  -0.634  0.00  0.00    -0.047 A 
ATOM      8  C   UNL     1      -4.533  -0.840  -1.574  0.00  0.00    +0.010 A 
ATOM      9  C   UNL     1      -5.768  -1.215  -1.167  0.00  0.00    +0.045 A 
ATOM     10  S   UNL     1      -5.575  -1.257   0.609  0.00  0.00    -0.101 S 
ATOM     11  C   UNL     1      -2.109  -0.184  -0.990  0.00  0.00    -0.005 C 
ATOM     12  H   UNL     1      -1.200  -1.476   0.295  0.00  0.00    -0.079 HD
BRANCH  11  13
ATOM     13  C   UNL     1      -1.642  -0.954  -2.198  0.00  0.00    -0.057 A 
ATOM     14  C   UNL     1      -1.339  -2.299  -2.087  0.00  0.00    +0.002 A 
ATOM     15  C   UNL     1      -0.911  -3.005  -3.195  0.00  0.00    +0.000 A 
ATOM     16  C   UNL     1      -0.785  -2.367  -4.415  0.00  0.00    +0.000 A 
ATOM     17  C   UNL     1      -1.088  -1.023  -4.527  0.00  0.00    +0.000 A 
ATOM     18  C   UNL     1      -1.521  -0.318  -3.419  0.00  0.00    +0.002 A 
ENDBRANCH  11  13
ENDBRANCH   2   3
BRANCH   2  19
ATOM     19  C   UNL     1       1.067  -0.449   0.936  0.00  0.00    +0.202 C 
ATOM     20  O   UNL     1       0.631  -0.939   1.956  0.00  0.00    -0.277 OA
ATOM     21  N   UNL     1       2.398  -0.318   0.767  0.00  0.00    -0.300 N 
ATOM     22  C   UNL     1       2.946   0.172  -0.506  0.00  0.00    +0.125 C 
ATOM     23  C   UNL     1       3.837   1.387  -0.221  0.00  0.00    +0.128 C 
ATOM     24  N   UNL     1       4.766   1.044   0.865  0.00  0.00    -0.174 NA
ATOM     25  C   UNL     1       4.218   0.554   2.138  0.00  0.00    +0.128 C 
ATOM     26  C   UNL     1       3.327  -0.656   1.854  0.00  0.00    +0.125 C 
BRANCH  24  27
ATOM     27  S   UNL     1       6.401   1.206   0.657  0.00  0.00    +0.061 S 
ATOM     28  O   UNL     1       7.017   0.318   1.580  0.00  0.00    -0.153 OA
ATOM     29  O   UNL     1       6.641   1.138  -0.742  0.00  0.00    -0.153 OA
BRANCH  27  30
ATOM     30  C   UNL     1       6.831   2.838   1.164  0.00  0.00    +0.105 A 
ATOM     31  C   UNL     1       6.814   3.873   0.247  0.00  0.00    +0.028 A 
ATOM     32  C   UNL     1       7.152   5.153   0.645  0.00  0.00    +0.002 A 
ATOM     33  C   UNL     1       7.507   5.398   1.958  0.00  0.00    +0.000 A 
ATOM     34  C   UNL     1       7.523   4.363   2.874  0.00  0.00    +0.002 A 
ATOM     35  C   UNL     1       7.181   3.084   2.478  0.00  0.00    +0.028 A 
ENDBRANCH  27  30
ENDBRANCH  24  27
ENDBRANCH   2  19
TORSDOF 5
