REMARK  Name = ZINC17596893
REMARK  6 active torsions:
REMARK  status: ('A' for Active; 'I' for Inactive)
REMARK    1  A    between atoms: C_3  and  C_15
REMARK    2  A    between atoms: C_6  and  C_7
REMARK    3  A    between atoms: C_7  and  N_8
REMARK    4  A    between atoms: C_15  and  O_17
REMARK    5  A    between atoms: O_17  and  C_18
REMARK    6  A    between atoms: C_18  and  C_19
REMARK                            x       y       z     vdW  Elec       q    Type
REMARK                         _______ _______ _______ _____ _____    ______ ____
ROOT
ATOM      1  C   UNL     1      -4.125  -2.259   0.031  0.00  0.00    +0.339 C 
ATOM      2  O   UNL     1      -3.178  -3.020   0.017  0.00  0.00    -0.245 OA
ENDROOT
BRANCH   1   5
ATOM      3  C   UNL     1      -7.008  -4.665   0.045  0.00  0.00    +0.006 A 
ATOM      4  C   UNL     1      -5.719  -4.173   0.035  0.00  0.00    +0.015 A 
ATOM      5  C   UNL     1      -5.502  -2.793   0.042  0.00  0.00    +0.059 A 
ATOM      6  C   UNL     1      -6.592  -1.921   0.064  0.00  0.00    +0.015 A 
ATOM      7  C   UNL     1      -7.876  -2.427   0.068  0.00  0.00    +0.006 A 
ATOM      8  C   UNL     1      -8.084  -3.795   0.062  0.00  0.00    -0.030 A 
BRANCH   8   9
ATOM      9  C   UNL     1      -9.489  -4.340   0.072  0.00  0.00    +0.151 C 
BRANCH   9  10
ATOM     10  N   UNL     1      -9.930  -4.525   1.457  0.00  0.00    -0.238 N 
ATOM     11  C   UNL     1      -9.747  -5.668   2.129  0.00  0.00    +0.223 C 
ATOM     12  O   UNL     1      -9.209  -6.662   1.690  0.00  0.00    -0.275 OA
ATOM     13  C   UNL     1     -10.313  -5.522   3.524  0.00  0.00    +0.105 C 
ATOM     14  C   UNL     1     -10.871  -4.084   3.539  0.00  0.00    +0.105 C 
ATOM     15  C   UNL     1     -10.556  -3.567   2.152  0.00  0.00    +0.223 C 
ATOM     16  O   UNL     1     -10.827  -2.461   1.737  0.00  0.00    -0.275 OA
ENDBRANCH   9  10
ENDBRANCH   8   9
ENDBRANCH   1   5
BRANCH   1  17
ATOM     17  O   UNL     1      -3.918  -0.928   0.037  0.00  0.00    -0.456 OA
BRANCH  17  18
ATOM     18  C   UNL     1      -2.539  -0.474   0.025  0.00  0.00    +0.269 C 
BRANCH  18  19
ATOM     19  C   UNL     1      -2.506   1.032   0.034  0.00  0.00    +0.007 A 
ATOM     20  C   UNL     1      -3.654   1.755   0.051  0.00  0.00    +0.099 A 
ATOM     21  C   UNL     1      -3.595   3.166   0.058  0.00  0.00    +0.338 A 
ATOM     22  O   UNL     1      -4.633   3.803   0.073  0.00  0.00    -0.245 OA
ATOM     23  O   UNL     1      -2.425   3.822   0.050  0.00  0.00    -0.422 OA
ATOM     24  C   UNL     1      -1.247   3.163   0.033  0.00  0.00    +0.140 A 
ATOM     25  C   UNL     1      -1.232   1.757   0.017  0.00  0.00    +0.024 A 
ATOM     26  C   UNL     1      -0.013   1.076   0.008  0.00  0.00    +0.015 A 
ATOM     27  C   UNL     1       1.164   1.777   0.001  0.00  0.00    -0.043 A 
ATOM     28  C   UNL     1       1.153   3.164   0.007  0.00  0.00    -0.041 A 
ATOM     29  C   UNL     1      -0.044   3.855   0.024  0.00  0.00    +0.051 A 
ATOM     30  C   UNL     1       2.576   3.684  -0.004  0.00  0.00    +0.036 C 
ATOM     31  C   UNL     1       3.449   2.486   0.424  0.00  0.00    +0.009 C 
ATOM     32  C   UNL     1       2.594   1.278  -0.016  0.00  0.00    +0.036 C 
ENDBRANCH  18  19
ENDBRANCH  17  18
ENDBRANCH   1  17
TORSDOF 6
