REMARK  Name = ZINC21272863
REMARK  8 active torsions:
REMARK  status: ('A' for Active; 'I' for Inactive)
REMARK    1  A    between atoms: C_1  and  C_2
REMARK    2  A    between atoms: C_4  and  O_5
REMARK    3  A    between atoms: C_14  and  C_16
REMARK    4  A    between atoms: C_16  and  S_17
REMARK    5  A    between atoms: S_17  and  C_18
REMARK    6  A    between atoms: C_18  and  C_19
REMARK    7  A    between atoms: C_20  and  C_25
REMARK    8  A    between atoms: C_23  and  C_24
REMARK                            x       y       z     vdW  Elec       q    Type
REMARK                         _______ _______ _______ _____ _____    ______ ____
ROOT
ATOM      1  C   UNL     1      10.598   8.628   1.524  0.00  0.00    +0.045 C 
ATOM      2  C   UNL     1       9.156   8.768   1.939  0.00  0.00    -0.033 A 
ATOM      3  C   UNL     1       8.571   9.991   2.028  0.00  0.00    +0.091 A 
ATOM      4  C   UNL     1       7.220  10.096   2.418  0.00  0.00    +0.285 A 
ATOM      5  O   UNL     1       6.484   9.011   2.708  0.00  0.00    -0.425 OA
ATOM      6  C   UNL     1       7.004   7.767   2.639  0.00  0.00    +0.141 A 
ATOM      7  C   UNL     1       8.347   7.589   2.256  0.00  0.00    +0.021 A 
ATOM      8  C   UNL     1       8.890   6.302   2.183  0.00  0.00    +0.013 A 
ATOM      9  C   UNL     1       8.117   5.220   2.489  0.00  0.00    +0.024 A 
ATOM     10  C   UNL     1       6.784   5.389   2.863  0.00  0.00    +0.037 A 
ATOM     11  C   UNL     1       6.229   6.658   2.940  0.00  0.00    +0.070 A 
ATOM     12  N   UNL     1       6.003   4.273   3.167  0.00  0.00    -0.285 N 
ATOM     13  C   UNL     1       4.694   4.260   2.849  0.00  0.00    +0.227 C 
ATOM     14  O   UNL     1       4.174   5.248   2.376  0.00  0.00    -0.275 OA
ATOM     15  H   UNL     1       6.457   3.404   3.665  0.00  0.00    +0.155 HD
ENDROOT
BRANCH   4  16
ATOM     16  O   UNL     1       6.708  11.198   2.494  0.00  0.00    -0.480 OA
ATOM     17  H   UNL     1       5.656  11.296   2.797  0.00  0.00    +0.295 HD
ENDBRANCH   4  16
BRANCH  13  18
ATOM     18  C   UNL     1       3.874   3.017   3.084  0.00  0.00    +0.165 C 
BRANCH  18  19
ATOM     19  S   UNL     1       2.163   3.314   2.559  0.00  0.00    -0.147 S 
BRANCH  19  20
ATOM     20  C   UNL     1       1.320   1.744   2.902  0.00  0.00    +0.110 C 
BRANCH  20  21
ATOM     21  C   UNL     1      -0.130   1.856   2.507  0.00  0.00    +0.027 A 
ATOM     22  C   UNL     1      -0.716   1.561   1.255  0.00  0.00    +0.085 A 
ATOM     23  N   UNL     1      -1.988   1.811   1.377  0.00  0.00    -0.083 NA
ATOM     24  O   UNL     1      -2.261   2.196   2.490  0.00  0.00    -0.359 OA
ATOM     25  C   UNL     1      -1.173   2.262   3.270  0.00  0.00    +0.138 A 
ATOM     26  C   UNL     1      -1.121   2.701   4.710  0.00  0.00    +0.089 C 
ATOM     27  C   UNL     1      -0.008   1.063   0.022  0.00  0.00    +0.069 C 
ENDBRANCH  20  21
ENDBRANCH  19  20
ENDBRANCH  18  19
ENDBRANCH  13  18
TORSDOF 5
