REMARK  Name = ZINC38826163
REMARK  7 active torsions:
REMARK  status: ('A' for Active; 'I' for Inactive)
REMARK    1  A    between atoms: C_1  and  O_2
REMARK    2  A    between atoms: O_2  and  C_3
REMARK    3  A    between atoms: C_5  and  C_10
REMARK    4  A    between atoms: C_8  and  O_9
REMARK    5  A    between atoms: N_11  and  N_12
REMARK    6  A    between atoms: C_13  and  C_15
REMARK    7  A    between atoms: C_18  and  C_21
REMARK                            x       y       z     vdW  Elec       q    Type
REMARK                         _______ _______ _______ _____ _____    ______ ____
ROOT
ATOM      1  N   UNL     1      -7.191   0.395   0.050  0.00  0.00    -0.205 N 
ATOM      2  C   UNL     1      -8.373  -0.253   0.064  0.00  0.00    +0.263 C 
ATOM      3  O   UNL     1      -8.400  -1.466   0.071  0.00  0.00    -0.271 OA
ATOM      4  H   UNL     1      -7.170   1.365   0.044  0.00  0.00    +0.177 HD
ENDROOT
BRANCH   2   5
ATOM      5  C   UNL     1      -9.661   0.530   0.070  0.00  0.00    +0.240 C 
ATOM      6  C   UNL     1     -10.009   0.978   1.478  0.00  0.00    +0.041 C 
ATOM      7  C   UNL     1     -11.188   0.376   1.727  0.00  0.00    +0.093 C 
ATOM      8  N   UNL     1     -11.578  -0.363   0.656  0.00  0.00    -0.153 NA
ATOM      9  N   UNL     1     -10.795  -0.333  -0.301  0.00  0.00    -0.170 NA
BRANCH   7  10
ATOM     10  C   UNL     1     -11.953   0.503   2.992  0.00  0.00    +0.020 A 
ATOM     11  C   UNL     1     -11.406   1.189   4.074  0.00  0.00    +0.013 A 
ATOM     12  C   UNL     1     -12.121   1.304   5.248  0.00  0.00    +0.021 A 
ATOM     13  C   UNL     1     -13.381   0.739   5.353  0.00  0.00    +0.042 A 
ATOM     14  C   UNL     1     -13.930   0.056   4.282  0.00  0.00    +0.040 A 
ATOM     15  C   UNL     1     -13.225  -0.059   3.099  0.00  0.00    +0.052 A 
ATOM     16 CL   UNL     1     -13.917  -0.909   1.753  0.00  0.00    -0.083 Cl
ATOM     17 CL   UNL     1     -14.275   0.887   6.834  0.00  0.00    -0.083 Cl
ENDBRANCH   7  10
ENDBRANCH   2   5
BRANCH   1  19
ATOM     18  C   UNL     1      -4.856   0.291   0.031  0.00  0.00    +0.138 C 
ATOM     19  N   UNL     1      -5.994  -0.333   0.044  0.00  0.00    -0.188 NA
BRANCH  18  22
ATOM     20  C   UNL     1      -1.191  -0.528   0.005  0.00  0.00    +0.162 A 
ATOM     21  C   UNL     1      -2.370   0.195   0.010  0.00  0.00    +0.058 A 
ATOM     22  C   UNL     1      -3.596  -0.475   0.025  0.00  0.00    -0.002 A 
ATOM     23  C   UNL     1      -3.625  -1.871   0.033  0.00  0.00    +0.013 A 
ATOM     24  C   UNL     1      -2.446  -2.586   0.028  0.00  0.00    +0.050 A 
ATOM     25  C   UNL     1      -1.228  -1.920   0.008  0.00  0.00    +0.158 A 
BRANCH  20  27
ATOM     26  C   UNL     1      -0.033   1.549  -0.012  0.00  0.00    +0.277 C 
ATOM     27  O   UNL     1       0.004   0.121  -0.009  0.00  0.00    -0.491 OA
ENDBRANCH  20  27
BRANCH  25  28
ATOM     28  O   UNL     1      -0.068  -2.629  -0.003  0.00  0.00    -0.503 OA
ATOM     29  H   UNL     1       0.277  -2.833   0.878  0.00  0.00    +0.292 HD
ENDBRANCH  25  28
ENDBRANCH  18  22
ENDBRANCH   1  19
TORSDOF 6
