REMARK  Name = ZINC20382918
REMARK  9 active torsions:
REMARK  status: ('A' for Active; 'I' for Inactive)
REMARK    1  A    between atoms: C_1  and  C_2
REMARK    2  A    between atoms: C_2  and  N_3
REMARK    3  A    between atoms: C_10  and  C_11
REMARK    4  A    between atoms: C_17  and  C_20
REMARK    5  A    between atoms: N_22  and  C_23
REMARK    6  A    between atoms: C_23  and  C_24
REMARK    7  A    between atoms: C_24  and  C_25
REMARK    8  A    between atoms: C_28  and  S_31
REMARK    9  A    between atoms: S_31  and  N_34
REMARK                            x       y       z     vdW  Elec       q    Type
REMARK                         _______ _______ _______ _____ _____    ______ ____
ROOT
ATOM      1  C   UNL     1       4.708   2.663  -0.367  0.00  0.00    +0.263 C 
ATOM      2  O   UNL     1       5.268   3.725  -0.565  0.00  0.00    -0.268 OA
ATOM      3  N   UNL     1       5.408   1.512  -0.413  0.00  0.00    -0.296 N 
ATOM      4  C   UNL     1       4.720   0.215  -0.367  0.00  0.00    +0.108 C 
ATOM      5  C   UNL     1       5.173  -0.622  -1.573  0.00  0.00    +0.020 C 
ATOM      6  C   UNL     1       6.700  -0.721  -1.573  0.00  0.00    +0.016 C 
ATOM      7  C   UNL     1       7.304   0.680  -1.705  0.00  0.00    +0.092 C 
ATOM      8  C   UNL     1       6.874   1.532  -0.506  0.00  0.00    +0.120 C 
ENDROOT
BRANCH   1  16
ATOM      9  N   UNL     1       2.343   3.553  -0.518  0.00  0.00    -0.336 N 
ATOM     10  C   UNL     1       1.084   3.197  -0.040  0.00  0.00    +0.057 A 
ATOM     11  C   UNL     1      -0.235   3.666  -0.107  0.00  0.00    +0.034 A 
ATOM     12  C   UNL     1      -1.223   3.004   0.532  0.00  0.00    +0.048 A 
ATOM     13  S   UNL     1      -0.354   1.636   1.281  0.00  0.00    -0.095 S 
ATOM     14  C   UNL     1       1.279   2.030   0.708  0.00  0.00    +0.038 A 
ATOM     15  C   UNL     1       2.622   1.689   0.684  0.00  0.00    +0.048 A 
ATOM     16  C   UNL     1       3.272   2.636  -0.077  0.00  0.00    +0.106 A 
BRANCH   9  18
ATOM     17  C   UNL     1       2.865   5.942  -0.469  0.00  0.00    +0.027 C 
ATOM     18  C   UNL     1       2.633   4.718  -1.358  0.00  0.00    +0.119 C 
ENDBRANCH   9  18
ENDBRANCH   1  16
BRANCH   7  19
ATOM     19  C   UNL     1       8.807   0.579  -1.737  0.00  0.00    +0.218 C 
ATOM     20  O   UNL     1       9.344  -0.507  -1.665  0.00  0.00    -0.275 OA
ATOM     21  N   UNL     1       9.555   1.694  -1.846  0.00  0.00    -0.315 N 
ATOM     22  H   UNL     1       9.069   2.679  -1.912  0.00  0.00    +0.149 HD
BRANCH  21  23
ATOM     23  C   UNL     1      11.017   1.596  -1.877  0.00  0.00    +0.109 C 
BRANCH  23  24
ATOM     24  C   UNL     1      11.619   2.997  -2.005  0.00  0.00    +0.054 C 
BRANCH  24  25
ATOM     25  C   UNL     1      13.122   2.896  -2.038  0.00  0.00    -0.046 A 
ATOM     26  C   UNL     1      13.844   2.950  -0.860  0.00  0.00    +0.005 A 
ATOM     27  C   UNL     1      15.223   2.853  -0.889  0.00  0.00    +0.029 A 
ATOM     28  C   UNL     1      15.880   2.711  -2.097  0.00  0.00    +0.105 A 
ATOM     29  C   UNL     1      15.159   2.662  -3.275  0.00  0.00    +0.029 A 
ATOM     30  C   UNL     1      13.780   2.754  -3.245  0.00  0.00    +0.005 A 
BRANCH  28  31
ATOM     31  S   UNL     1      17.638   2.593  -2.135  0.00  0.00    +0.056 S 
ATOM     32  O   UNL     1      18.041   2.118  -0.858  0.00  0.00    -0.153 OA
ATOM     33  O   UNL     1      17.974   1.918  -3.339  0.00  0.00    -0.153 OA
BRANCH  31  34
ATOM     34  N   UNL     1      18.229   4.134  -2.275  0.00  0.00    -0.204 NA
ATOM     35  H   UNL     1      19.328   4.104  -2.302  0.00  0.00    +0.144 HD
ATOM     36  H   UNL     1      17.900   4.733  -1.413  0.00  0.00    +0.144 HD
ENDBRANCH  31  34
ENDBRANCH  28  31
ENDBRANCH  24  25
ENDBRANCH  23  24
ENDBRANCH  21  23
ENDBRANCH   7  19
TORSDOF 8
