REMARK  Name = ZINC05741152
REMARK  2 active torsions:
REMARK  status: ('A' for Active; 'I' for Inactive)
REMARK    1  A    between atoms: C_4  and  C_7
REMARK    2  A    between atoms: C_19  and  N_24
REMARK                            x       y       z     vdW  Elec       q    Type
REMARK                         _______ _______ _______ _____ _____    ______ ____
ROOT
ATOM      1  C   UNL     1       2.068   1.617  -1.340  0.00  0.00    +0.106 C 
ATOM      2  C   UNL     1       1.353   1.972  -0.033  0.00  0.00    +0.047 C 
ATOM      3  C   UNL     1       2.100   1.372   1.155  0.00  0.00    +0.011 C 
ATOM      4  C   UNL     1       2.029  -0.156   1.086  0.00  0.00    +0.028 C 
ATOM      5  C   UNL     1       0.558  -0.580   1.046  0.00  0.00    +0.160 C 
ATOM      6  O   UNL     1      -0.069   0.013  -0.092  0.00  0.00    -0.372 OA
ATOM      7  C   UNL     1      -0.079   1.443  -0.087  0.00  0.00    +0.155 C 
ATOM      8  C   UNL     1      -0.756   1.924  -1.347  0.00  0.00    +0.004 A 
ATOM      9  C   UNL     1      -2.139   1.955  -1.392  0.00  0.00    +0.040 A 
ATOM     10  C   UNL     1      -2.788   2.386  -2.533  0.00  0.00    +0.127 A 
ATOM     11  C   UNL     1      -2.059   2.787  -3.637  0.00  0.00    +0.034 A 
ATOM     12  C   UNL     1      -0.679   2.761  -3.599  0.00  0.00    +0.025 A 
ATOM     13  C   UNL     1      -0.023   2.330  -2.450  0.00  0.00    +0.033 A 
ATOM     14  N   UNL     1       1.376   2.317  -2.432  0.00  0.00    -0.336 N 
ATOM     15  H   UNL     1       1.882   2.763  -3.129  0.00  0.00    +0.147 HD
ENDROOT
BRANCH   1  19
ATOM     16  C   UNL     1       1.897  -2.602  -1.986  0.00  0.00    +0.000 A 
ATOM     17  C   UNL     1       0.759  -1.832  -2.142  0.00  0.00    +0.000 A 
ATOM     18  C   UNL     1       0.815  -0.467  -1.933  0.00  0.00    +0.005 A 
ATOM     19  C   UNL     1       2.008   0.129  -1.568  0.00  0.00    -0.027 A 
ATOM     20  C   UNL     1       3.146  -0.641  -1.417  0.00  0.00    +0.005 A 
ATOM     21  C   UNL     1       3.090  -2.007  -1.621  0.00  0.00    +0.000 A 
ENDBRANCH   1  19
BRANCH  10  22
ATOM     22  N   UNL     1      -4.268   2.417  -2.574  0.00  0.00    +0.056 N 
ATOM     23  O   UNL     1      -4.841   2.797  -3.579  0.00  0.00    -0.126 OA
ATOM     24  O   UNL     1      -4.912   2.064  -1.603  0.00  0.00    -0.126 OA
ENDBRANCH  10  22
TORSDOF 2
