REMARK  Name = ZINC06195022
REMARK  9 active torsions:
REMARK  status: ('A' for Active; 'I' for Inactive)
REMARK    1  A    between atoms: C_1  and  C_2
REMARK    2  A    between atoms: C_2  and  O_3
REMARK    3  A    between atoms: O_3  and  C_4
REMARK    4  A    between atoms: C_13  and  C_25
REMARK    5  A    between atoms: C_15  and  C_21
REMARK    6  A    between atoms: C_15  and  C_23
REMARK    7  A    between atoms: C_16  and  N_20
REMARK    8  A    between atoms: C_17  and  C_18
REMARK    9  A    between atoms: C_30  and  C_31
REMARK                            x       y       z     vdW  Elec       q    Type
REMARK                         _______ _______ _______ _____ _____    ______ ____
ROOT
ATOM      1  C   UNL     1       0.603   3.473   3.698  0.00  0.00    +0.403 C 
ATOM      2  O   UNL     1      -0.022   4.447   3.329  0.00  0.00    -0.226 OA
ATOM      3  N   UNL     1       1.892   3.321   3.333  0.00  0.00    -0.263 N 
ATOM      4  C   UNL     1       2.680   2.151   3.762  0.00  0.00    +0.138 C 
ATOM      5  C   UNL     1       3.203   1.488   2.513  0.00  0.00    -0.003 C 
ATOM      6  C   UNL     1       3.424   2.181   1.414  0.00  0.00    -0.026 C 
ATOM      7  C   UNL     1       3.218   3.664   1.293  0.00  0.00    +0.048 C 
ATOM      8  C   UNL     1       2.570   4.312   2.490  0.00  0.00    +0.120 C 
ATOM      9  C   UNL     1       2.451   3.937  -0.001  0.00  0.00    +0.068 C 
ATOM     10  C   UNL     1       3.305   3.490  -1.188  0.00  0.00    +0.188 C 
ATOM     11  C   UNL     1       3.820   2.094  -1.007  0.00  0.00    +0.054 C 
ATOM     12  C   UNL     1       3.895   1.470   0.195  0.00  0.00    +0.074 C 
ENDROOT
BRANCH   9  13
ATOM     13  C   UNL     1       1.156   3.166   0.008  0.00  0.00    -0.029 A 
ATOM     14  C   UNL     1       1.174   1.785   0.088  0.00  0.00    +0.004 A 
ATOM     15  C   UNL     1      -0.013   1.078   0.095  0.00  0.00    +0.000 A 
ATOM     16  C   UNL     1      -1.219   1.750   0.017  0.00  0.00    +0.001 A 
ATOM     17  C   UNL     1      -1.237   3.130  -0.057  0.00  0.00    +0.012 A 
ATOM     18  C   UNL     1      -0.049   3.838  -0.065  0.00  0.00    +0.058 A 
BRANCH  18  19
ATOM     19  C   UNL     1      -0.069   5.342  -0.152  0.00  0.00    +0.418 C 
ATOM     20  F   UNL     1      -1.393   5.788  -0.215  0.00  0.00    -0.166 F 
ATOM     21  F   UNL     1       0.553   5.883   0.978  0.00  0.00    -0.166 F 
ATOM     22  F   UNL     1       0.616   5.751  -1.302  0.00  0.00    -0.166 F 
ENDBRANCH  18  19
ENDBRANCH   9  13
BRANCH  11  23
ATOM     23  N   UNL     1       4.237   1.412  -2.115  0.00  0.00    -0.358 N 
ATOM     24  H   UNL     1       4.620   0.386  -2.018  0.00  0.00    +0.142 HD
ATOM     25  H   UNL     1       4.189   1.889  -3.106  0.00  0.00    +0.142 HD
ENDBRANCH  11  23
BRANCH  12  26
ATOM     26  C   UNL     1       4.422   0.142   0.289  0.00  0.00    +0.101 C 
ATOM     27  N   UNL     1       4.840  -0.912   0.364  0.00  0.00    -0.191 NA
ENDBRANCH  12  26
BRANCH  10  28
ATOM     28  C   UNL     1       2.491   3.547  -2.414  0.00  0.00    +0.091 C 
ATOM     29  N   UNL     1       1.863   3.590  -3.359  0.00  0.00    -0.194 NA
ENDBRANCH  10  28
BRANCH  10  30
ATOM     30  C   UNL     1       4.448   4.407  -1.329  0.00  0.00    +0.091 C 
ATOM     31  N   UNL     1       5.330   5.115  -1.437  0.00  0.00    -0.194 NA
ENDBRANCH  10  30
BRANCH   1  32
ATOM     32  O   UNL     1       0.009   2.545   4.471  0.00  0.00    -0.451 OA
BRANCH  32  34
ATOM     33  C   UNL     1      -1.880   1.623   5.701  0.00  0.00    +0.048 C 
ATOM     34  C   UNL     1      -1.380   2.774   4.825  0.00  0.00    +0.230 C 
ENDBRANCH  32  34
ENDBRANCH   1  32
TORSDOF 8
