REMARK  Name = ZINC02766757
REMARK  3 active torsions:
REMARK  status: ('A' for Active; 'I' for Inactive)
REMARK    1  A    between atoms: C_6  and  C_7
REMARK    2  A    between atoms: C_10  and  C_20
REMARK    3  A    between atoms: C_14  and  C_17
REMARK                            x       y       z     vdW  Elec       q    Type
REMARK                         _______ _______ _______ _____ _____    ______ ____
ROOT
ATOM      1  C   UNL     1      -1.293  -0.775   0.011  0.00  0.00    +0.104 C 
ATOM      2  C   UNL     1      -1.588  -1.270   1.431  0.00  0.00    +0.063 C 
ATOM      3  C   UNL     1      -0.421  -2.126   1.936  0.00  0.00    +0.215 C 
ATOM      4  N   UNL     1      -0.091  -3.127   0.916  0.00  0.00    -0.238 N 
ATOM      5  C   UNL     1      -0.456  -3.022  -0.385  0.00  0.00    +0.136 A 
ATOM      6  C   UNL     1       0.021  -4.138  -1.044  0.00  0.00    +0.111 A 
ATOM      7  C   UNL     1       0.695  -4.926  -0.079  0.00  0.00    +0.155 A 
ATOM      8  N   UNL     1       0.620  -4.315   1.073  0.00  0.00    -0.176 NA
ATOM      9  N   UNL     1      -1.180  -1.944  -0.883  0.00  0.00    -0.321 N 
ATOM     10  H   UNL     1      -1.588  -1.959  -1.763  0.00  0.00    +0.148 HD
ENDROOT
BRANCH   1  16
ATOM     11  C   UNL     1      -0.017   1.378   0.010  0.00  0.00    +0.007 A 
ATOM     12  C   UNL     1       1.171   2.086   0.002  0.00  0.00    +0.020 A 
ATOM     13  C   UNL     1       2.378   1.410  -0.013  0.00  0.00    +0.041 A 
ATOM     14  C   UNL     1       2.396   0.027  -0.021  0.00  0.00    +0.020 A 
ATOM     15  C   UNL     1       1.208  -0.679  -0.013  0.00  0.00    +0.007 A 
ATOM     16  C   UNL     1       0.002  -0.004   0.002  0.00  0.00    -0.027 A 
ATOM     17 CL   UNL     1       3.870   2.298  -0.023  0.00  0.00    -0.084 Cl
ENDBRANCH   1  16
BRANCH   3  18
ATOM     18  C   UNL     1      -0.824  -2.828   3.235  0.00  0.00    +0.412 C 
ATOM     19  F   UNL     1      -1.933  -3.647   2.997  0.00  0.00    -0.168 F 
ATOM     20  F   UNL     1       0.242  -3.609   3.693  0.00  0.00    -0.168 F 
ATOM     21  F   UNL     1      -1.150  -1.870   4.200  0.00  0.00    -0.168 F 
ENDBRANCH   3  18
BRANCH   6  22
ATOM     22  C   UNL     1      -0.136  -4.440  -2.435  0.00  0.00    +0.104 C 
ATOM     23  N   UNL     1      -0.261  -4.680  -3.538  0.00  0.00    -0.191 NA
ENDBRANCH   6  22
TORSDOF 3
