REMARK  Name = ZINC48379358
REMARK  6 active torsions:
REMARK  status: ('A' for Active; 'I' for Inactive)
REMARK    1  A    between atoms: C_1  and  C_2
REMARK    2  A    between atoms: C_9  and  C_11
REMARK    3  A    between atoms: C_14  and  C_18
REMARK    4  A    between atoms: C_16  and  O_17
REMARK    5  A    between atoms: C_18  and  C_19
REMARK    6  A    between atoms: C_18  and  C_20
REMARK                            x       y       z     vdW  Elec       q    Type
REMARK                         _______ _______ _______ _____ _____    ______ ____
ROOT
ATOM      1  C   UNL     1       0.489  -4.236   2.123  0.00  0.00    +0.078 A 
ATOM      2  C   UNL     1       1.065  -4.894   1.034  0.00  0.00    +0.017 A 
ATOM      3  C   UNL     1       1.102  -6.271   1.004  0.00  0.00    +0.005 A 
ATOM      4  C   UNL     1       0.569  -7.007   2.050  0.00  0.00    -0.041 A 
ATOM      5  C   UNL     1      -0.004  -6.369   3.132  0.00  0.00    +0.050 A 
ATOM      6  C   UNL     1      -0.044  -4.984   3.181  0.00  0.00    +0.129 A 
ENDROOT
BRANCH   1  14
ATOM      7  C   UNL     1      -1.820   1.285   0.854  0.00  0.00    +0.009 C 
ATOM      8  C   UNL     1      -1.690  -0.238   0.925  0.00  0.00    +0.003 C 
ATOM      9  C   UNL     1      -2.128  -0.851  -0.407  0.00  0.00    +0.006 C 
ATOM     10  C   UNL     1      -2.029  -2.376  -0.325  0.00  0.00    +0.019 C 
ATOM     11  C   UNL     1      -0.574  -2.776  -0.064  0.00  0.00    +0.108 C 
ATOM     12  N   UNL     1      -0.099  -2.076   1.137  0.00  0.00    -0.297 N 
ATOM     13  C   UNL     1      -0.231  -0.614   1.202  0.00  0.00    +0.111 C 
ATOM     14  C   UNL     1       0.447  -2.761   2.161  0.00  0.00    +0.250 C 
ATOM     15  O   UNL     1       0.905  -2.165   3.116  0.00  0.00    -0.270 OA
ENDBRANCH   1  14
BRANCH   4  16
ATOM     16  C   UNL     1       0.614  -8.513   2.006  0.00  0.00    +0.013 C 
ATOM     17  C   UNL     1      -0.146  -9.010   0.775  0.00  0.00    +0.012 C 
ATOM     18  C   UNL     1       2.070  -8.977   1.927  0.00  0.00    +0.012 C 
ENDBRANCH   4  16
BRANCH   6  19
ATOM     19  O   UNL     1      -0.602  -4.356   4.246  0.00  0.00    -0.506 OA
ATOM     20  H   UNL     1      -1.549  -4.186   4.151  0.00  0.00    +0.292 HD
ENDBRANCH   6  19
TORSDOF 3
