REMARK  Name = ZINC00397674
REMARK  3 active torsions:
REMARK  status: ('A' for Active; 'I' for Inactive)
REMARK    1  A    between atoms: C_6  and  S_7
REMARK    2  A    between atoms: S_7  and  N_10
REMARK    3  A    between atoms: N_10  and  C_11
REMARK                            x       y       z     vdW  Elec       q    Type
REMARK                         _______ _______ _______ _____ _____    ______ ____
ROOT
ATOM      1  S   UNL     1       0.081  -0.000   0.082  0.00  0.00    +0.072 S 
ATOM      2  O   UNL     1      -1.238  -0.465   0.337  0.00  0.00    -0.150 OA
ATOM      3  O   UNL     1       0.831  -0.421  -1.049  0.00  0.00    -0.150 OA
ENDROOT
BRANCH   1   9
ATOM      4  C   UNL     1       2.420  -0.436   1.418  0.00  0.00    +0.030 A 
ATOM      5  C   UNL     1       3.174  -0.748   2.534  0.00  0.00    +0.022 A 
ATOM      6  C   UNL     1       2.547  -1.041   3.732  0.00  0.00    +0.041 A 
ATOM      7  C   UNL     1       1.167  -1.016   3.814  0.00  0.00    +0.022 A 
ATOM      8  C   UNL     1       0.414  -0.698   2.699  0.00  0.00    +0.030 A 
ATOM      9  C   UNL     1       1.041  -0.405   1.502  0.00  0.00    +0.109 A 
ATOM     10 CL   UNL     1       3.494  -1.439   5.132  0.00  0.00    -0.084 Cl
ENDBRANCH   1   9
BRANCH   1  11
ATOM     11  N   UNL     1      -0.006   1.652   0.004  0.00  0.00    -0.216 N 
ATOM     12  H   UNL     1       0.381   2.123  -0.750  0.00  0.00    +0.174 HD
BRANCH  11  13
ATOM     13  C   UNL     1      -0.633   2.367   1.027  0.00  0.00    +0.050 A 
ATOM     14  C   UNL     1      -1.861   1.944   1.522  0.00  0.00    +0.026 A 
ATOM     15  C   UNL     1      -2.476   2.649   2.537  0.00  0.00    +0.023 A 
ATOM     16  C   UNL     1      -1.877   3.783   3.055  0.00  0.00    +0.059 A 
ATOM     17  C   UNL     1      -0.656   4.212   2.561  0.00  0.00    +0.061 A 
ATOM     18  C   UNL     1      -0.034   3.506   1.548  0.00  0.00    +0.046 A 
ATOM     19 CL   UNL     1       0.093   5.636   3.213  0.00  0.00    -0.082 Cl
ATOM     20 CL   UNL     1      -2.656   4.671   4.328  0.00  0.00    -0.082 Cl
ENDBRANCH  11  13
ENDBRANCH   1  11
TORSDOF 3
