REMARK  Name = ZINC32535268
REMARK  10 active torsions:
REMARK  status: ('A' for Active; 'I' for Inactive)
REMARK    1  A    between atoms: C_1  and  C_2
REMARK    2  A    between atoms: C_2  and  C_3
REMARK    3  A    between atoms: C_9  and  C_11
REMARK    4  A    between atoms: C_11  and  C_13
REMARK    5  A    between atoms: C_11  and  S_15
REMARK    6  A    between atoms: C_13  and  C_14
REMARK    7  A    between atoms: S_15  and  C_16
REMARK    8  A    between atoms: C_22  and  C_31
REMARK    9  A    between atoms: C_24  and  C_30
REMARK   10  A    between atoms: C_27  and  C_29
REMARK                            x       y       z     vdW  Elec       q    Type
REMARK                         _______ _______ _______ _____ _____    ______ ____
ROOT
ATOM      1  C   UNL     1       4.662  -2.026   9.422  0.00  0.00    +0.197 A 
ATOM      2  N   UNL     1       3.716  -2.891   9.737  0.00  0.00    -0.122 NA
ATOM      3  N   UNL     1       4.035  -3.523  10.804  0.00  0.00    -0.129 NA
ATOM      4  C   UNL     1       5.205  -3.092  11.236  0.00  0.00    +0.162 A 
ATOM      5  N   UNL     1       5.704  -2.232  10.274  0.00  0.00    -0.270 N 
ATOM      6  C   UNL     1       7.023  -1.829  10.354  0.00  0.00    +0.061 A 
ATOM      7  C   UNL     1       7.788  -1.454   9.261  0.00  0.00    -0.026 A 
ATOM      8  C   UNL     1       9.013  -0.839   9.449  0.00  0.00    +0.008 A 
ATOM      9  C   UNL     1       9.517  -0.646  10.724  0.00  0.00    -0.050 A 
ATOM     10  C   UNL     1       8.860  -1.185  11.810  0.00  0.00    +0.013 A 
ATOM     11  C   UNL     1       7.678  -1.900  11.607  0.00  0.00    +0.002 A 
ATOM     12  C   UNL     1       7.090  -2.719  12.669  0.00  0.00    -0.038 A 
ATOM     13  C   UNL     1       5.909  -3.335  12.437  0.00  0.00    +0.052 A 
ATOM     14  C   UNL     1       7.794  -2.916  13.986  0.00  0.00    +0.044 C 
ATOM     15  C   UNL     1      10.781   0.147  10.928  0.00  0.00    +0.044 C 
ATOM     16  C   UNL     1       7.368  -1.772   7.849  0.00  0.00    +0.046 C 
ENDROOT
BRANCH   1  17
ATOM     17  S   UNL     1       4.554  -0.862   8.104  0.00  0.00    -0.073 S 
BRANCH  17  18
ATOM     18  C   UNL     1       2.838  -1.127   7.590  0.00  0.00    +0.140 C 
BRANCH  18  25
ATOM     19  C   UNL     1       0.806  -6.661   5.190  0.00  0.00    +0.103 A 
ATOM     20  N   UNL     1       2.046  -6.216   5.211  0.00  0.00    -0.145 NA
ATOM     21  N   UNL     1       2.319  -5.094   5.720  0.00  0.00    -0.126 NA
ATOM     22  C   UNL     1       1.385  -4.322   6.250  0.00  0.00    +0.188 A 
ATOM     23  S   UNL     1      -0.031  -5.297   5.988  0.00  0.00    -0.035 S 
ATOM     24  N   UNL     1       1.503  -3.071   6.847  0.00  0.00    -0.262 N 
ATOM     25  C   UNL     1       2.711  -2.482   6.944  0.00  0.00    +0.232 C 
ATOM     26  O   UNL     1       3.696  -3.042   6.511  0.00  0.00    -0.274 OA
ATOM     27  H   UNL     1       0.610  -2.563   7.240  0.00  0.00    +0.157 HD
BRANCH  19  29
ATOM     28  C   UNL     1       0.266  -9.018   5.738  0.00  0.00    +0.011 C 
ATOM     29  C   UNL     1       0.250  -7.950   4.643  0.00  0.00    +0.061 C 
ENDBRANCH  19  29
ENDBRANCH  18  25
BRANCH  18  30
ATOM     30  C   UNL     1       2.433  -0.043   6.589  0.00  0.00    +0.020 C 
ATOM     31  C   UNL     1       2.449   1.322   7.279  0.00  0.00    +0.005 C 
ENDBRANCH  18  30
ENDBRANCH  17  18
ENDBRANCH   1  17
TORSDOF 5
