REMARK  Name = ZINC32782092
REMARK  6 active torsions:
REMARK  status: ('A' for Active; 'I' for Inactive)
REMARK    1  A    between atoms: C_1  and  C_2
REMARK    2  A    between atoms: C_9  and  C_13
REMARK    3  A    between atoms: C_13  and  S_14
REMARK    4  A    between atoms: S_14  and  C_15
REMARK    5  A    between atoms: C_17  and  C_22
REMARK    6  A    between atoms: C_19  and  C_21
REMARK                            x       y       z     vdW  Elec       q    Type
REMARK                         _______ _______ _______ _____ _____    ______ ____
ROOT
ATOM      1  C   UNL     1       6.243   5.588   3.548  0.00  0.00    +0.047 C 
ATOM      2  C   UNL     1       6.591   6.370   2.308  0.00  0.00    -0.008 A 
ATOM      3  C   UNL     1       7.606   7.280   2.333  0.00  0.00    +0.008 A 
ATOM      4  C   UNL     1       7.917   8.000   1.171  0.00  0.00    +0.019 A 
ATOM      5  C   UNL     1       7.215   7.792   0.034  0.00  0.00    +0.096 A 
ATOM      6  N   UNL     1       6.199   6.886  -0.000  0.00  0.00    -0.268 N 
ATOM      7  C   UNL     1       5.872   6.168   1.116  0.00  0.00    +0.143 A 
ATOM      8  N   UNL     1       4.880   5.280   1.090  0.00  0.00    -0.233 NA
ATOM      9  C   UNL     1       4.180   5.061  -0.012  0.00  0.00    +0.059 A 
ATOM     10  C   UNL     1       4.475   5.756  -1.168  0.00  0.00    +0.094 A 
ATOM     11  C   UNL     1       5.512   6.696  -1.147  0.00  0.00    +0.259 A 
ATOM     12  O   UNL     1       5.794   7.330  -2.151  0.00  0.00    -0.267 OA
ENDROOT
BRANCH   9  13
ATOM     13  C   UNL     1       3.064   4.048  -0.006  0.00  0.00    +0.131 C 
BRANCH  13  14
ATOM     14  S   UNL     1       3.764   2.379  -0.022  0.00  0.00    -0.100 S 
BRANCH  14  15
ATOM     15  C   UNL     1       2.282   1.426  -0.012  0.00  0.00    +0.101 A 
ATOM     16  C   UNL     1       2.336   0.029  -0.020  0.00  0.00    +0.058 A 
ATOM     17  C   UNL     1       1.147  -0.672  -0.013  0.00  0.00    +0.043 A 
ATOM     18  N   UNL     1       0.002  -0.004   0.002  0.00  0.00    -0.237 NA
ATOM     19  C   UNL     1      -0.016   1.313   0.009  0.00  0.00    +0.127 A 
ATOM     20  N   UNL     1       1.094   2.024   0.003  0.00  0.00    -0.226 NA
ATOM     21  C   UNL     1      -1.343   2.028   0.019  0.00  0.00    +0.088 C 
ATOM     22  C   UNL     1       1.151  -2.179  -0.020  0.00  0.00    +0.066 C 
ENDBRANCH  14  15
ENDBRANCH  13  14
ENDBRANCH   9  13
TORSDOF 3
