REMARK  Name = ZINC37061051
REMARK  6 active torsions:
REMARK  status: ('A' for Active; 'I' for Inactive)
REMARK    1  A    between atoms: C_1  and  C_2
REMARK    2  A    between atoms: C_5  and  C_8
REMARK    3  A    between atoms: C_8  and  C_10
REMARK    4  A    between atoms: C_8  and  N_11
REMARK    5  A    between atoms: N_11  and  C_12
REMARK    6  A    between atoms: C_16  and  N_18
REMARK                            x       y       z     vdW  Elec       q    Type
REMARK                         _______ _______ _______ _____ _____    ______ ____
ROOT
ATOM      1  N   UNL     1      -0.816  -4.781   1.039  0.00  0.00    -0.337 N 
ATOM      2  H   UNL     1      -1.004  -4.231   1.816  0.00  0.00    +0.147 HD
ENDROOT
BRANCH   1   3
ATOM      3  C   UNL     1      -1.381  -6.055   0.931  0.00  0.00    +0.030 A 
ATOM      4  C   UNL     1      -1.108  -6.845  -0.179  0.00  0.00    +0.024 A 
ATOM      5  C   UNL     1      -1.667  -8.103  -0.283  0.00  0.00    +0.024 A 
ATOM      6  C   UNL     1      -2.498  -8.577   0.717  0.00  0.00    +0.071 A 
ATOM      7  C   UNL     1      -2.772  -7.792   1.823  0.00  0.00    +0.146 A 
ATOM      8  C   UNL     1      -2.211  -6.535   1.935  0.00  0.00    +0.057 A 
ATOM      9 CL   UNL     1      -3.200 -10.160   0.583  0.00  0.00    -0.081 Cl
BRANCH   7  10
ATOM     10  N   UNL     1      -3.662  -8.302   2.889  0.00  0.00    +0.058 N 
ATOM     11  O   UNL     1      -3.902  -7.617   3.856  0.00  0.00    -0.126 OA
ATOM     12  O   UNL     1      -4.150  -9.405   2.794  0.00  0.00    -0.126 OA
ENDBRANCH   7  10
ENDBRANCH   1   3
BRANCH   1  13
ATOM     13  C   UNL     1       0.059  -4.275  -0.021  0.00  0.00    +0.098 C 
ATOM     14  C   UNL     1       1.488  -4.768   0.218  0.00  0.00    +0.033 C 
BRANCH  13  19
ATOM     15  C   UNL     1      -0.018   1.503   0.010  0.00  0.00    +0.044 C 
ATOM     16  C   UNL     1       0.002  -0.004   0.002  0.00  0.00    -0.050 A 
ATOM     17  C   UNL     1       0.006  -0.689  -1.199  0.00  0.00    +0.004 A 
ATOM     18  C   UNL     1       0.025  -2.071  -1.206  0.00  0.00    +0.006 A 
ATOM     19  C   UNL     1       0.040  -2.768  -0.013  0.00  0.00    -0.028 A 
ATOM     20  C   UNL     1       0.037  -2.084   1.188  0.00  0.00    +0.006 A 
ATOM     21  C   UNL     1       0.023  -0.702   1.195  0.00  0.00    +0.004 A 
ENDBRANCH  13  19
ENDBRANCH   1  13
TORSDOF 4
