REMARK  Name = ZINC67425538
REMARK  8 active torsions:
REMARK  status: ('A' for Active; 'I' for Inactive)
REMARK    1  A    between atoms: C_1  and  C_2
REMARK    2  A    between atoms: C_7  and  O_8
REMARK    3  A    between atoms: O_8  and  C_9
REMARK    4  A    between atoms: C_9  and  C_10
REMARK    5  A    between atoms: C_10  and  C_12
REMARK    6  A    between atoms: C_10  and  N_13
REMARK    7  A    between atoms: C_14  and  C_16
REMARK    8  A    between atoms: C_29  and  C_31
REMARK                            x       y       z     vdW  Elec       q    Type
REMARK                         _______ _______ _______ _____ _____    ______ ____
ROOT
ATOM      1  C   UNL     1       3.025   2.155   6.011  0.00  0.00    +0.306 C 
ATOM      2  O   UNL     1       3.631   2.364   4.980  0.00  0.00    -0.265 OA
ATOM      3  N   UNL     1       3.494   2.638   7.178  0.00  0.00    -0.259 N 
ATOM      4  C   UNL     1       2.809   2.400   8.375  0.00  0.00    +0.058 A 
ATOM      5  C   UNL     1       1.609   3.040   8.642  0.00  0.00    +0.025 A 
ATOM      6  C   UNL     1       0.958   2.810   9.839  0.00  0.00    +0.002 A 
ATOM      7  C   UNL     1       1.500   1.944  10.773  0.00  0.00    +0.002 A 
ATOM      8  C   UNL     1       2.692   1.294  10.510  0.00  0.00    +0.025 A 
ATOM      9  C   UNL     1       3.345   1.511   9.308  0.00  0.00    +0.055 A 
ATOM     10  N   UNL     1       4.523   0.823   8.998  0.00  0.00    -0.284 N 
ATOM     11  C   UNL     1       5.599   1.487   8.520  0.00  0.00    +0.219 C 
ATOM     12  O   UNL     1       6.584   0.869   8.177  0.00  0.00    -0.275 OA
ATOM     13  C   UNL     1       5.581   2.989   8.412  0.00  0.00    +0.118 C 
ATOM     14  C   UNL     1       4.734   3.416   7.218  0.00  0.00    +0.088 C 
ATOM     15  C   UNL     1       4.397   4.903   7.346  0.00  0.00    +0.029 C 
ATOM     16  H   UNL     1       4.568  -0.138   9.126  0.00  0.00    +0.155 HD
ENDROOT
BRANCH   1  18
ATOM     17  N   UNL     1       1.289   0.881   4.818  0.00  0.00    -0.302 N 
ATOM     18  C   UNL     1       1.759   1.363   5.986  0.00  0.00    +0.300 C 
ATOM     19  O   UNL     1       1.153   1.155   7.016  0.00  0.00    -0.265 OA
ATOM     20  H   UNL     1       1.773   1.048   3.994  0.00  0.00    +0.150 HD
BRANCH  17  21
ATOM     21  C   UNL     1       0.047   0.104   4.793  0.00  0.00    +0.108 C 
ATOM     22  C   UNL     1      -1.148   1.056   4.712  0.00  0.00    +0.031 C 
BRANCH  21  23
ATOM     23  C   UNL     1       0.048  -0.820   3.574  0.00  0.00    +0.251 C 
BRANCH  23  24
ATOM     24  O   UNL     1       0.025  -0.033   2.381  0.00  0.00    -0.490 OA
BRANCH  24  31
ATOM     25  C   UNL     1      -0.018   1.503   0.010  0.00  0.00    +0.047 C 
ATOM     26  C   UNL     1       0.002  -0.004   0.002  0.00  0.00    -0.009 A 
ATOM     27  C   UNL     1       0.006  -0.689  -1.198  0.00  0.00    +0.007 A 
ATOM     28  C   UNL     1       0.024  -2.071  -1.206  0.00  0.00    +0.000 A 
ATOM     29  C   UNL     1       0.039  -2.772  -0.014  0.00  0.00    +0.004 A 
ATOM     30  C   UNL     1       0.036  -2.092   1.188  0.00  0.00    +0.046 A 
ATOM     31  C   UNL     1       0.023  -0.705   1.199  0.00  0.00    +0.123 A 
ENDBRANCH  24  31
ENDBRANCH  23  24
ENDBRANCH  21  23
ENDBRANCH  17  21
ENDBRANCH   1  18
TORSDOF 5
