REMARK  Name = ZINC61470254
REMARK  8 active torsions:
REMARK  status: ('A' for Active; 'I' for Inactive)
REMARK    1  A    between atoms: C_1  and  N_2
REMARK    2  A    between atoms: N_2  and  C_3
REMARK    3  A    between atoms: N_2  and  C_22
REMARK    4  A    between atoms: C_3  and  C_4
REMARK    5  A    between atoms: C_4  and  C_5
REMARK    6  A    between atoms: C_5  and  N_6
REMARK    7  A    between atoms: C_7  and  C_9
REMARK    8  A    between atoms: C_14  and  C_16
REMARK                            x       y       z     vdW  Elec       q    Type
REMARK                         _______ _______ _______ _____ _____    ______ ____
ROOT
ATOM      1  N   UNL     1      -0.082  -0.239   4.890  0.00  0.00    -0.314 N 
ATOM      2  C   UNL     1       0.384  -0.583   6.107  0.00  0.00    +0.234 C 
ATOM      3  O   UNL     1       1.423  -1.200   6.207  0.00  0.00    -0.274 OA
ATOM      4  H   UNL     1      -0.913   0.254   4.810  0.00  0.00    +0.149 HD
ENDROOT
BRANCH   2   5
ATOM      5  C   UNL     1      -0.388  -0.202   7.344  0.00  0.00    +0.162 C 
ATOM      6  C   UNL     1      -0.478   1.335   7.454  0.00  0.00    +0.033 C 
ATOM      7  C   UNL     1      -0.321   1.584   8.977  0.00  0.00    +0.021 C 
ATOM      8  C   UNL     1       0.687   0.475   9.371  0.00  0.00    +0.108 C 
ATOM      9  N   UNL     1       0.315  -0.685   8.541  0.00  0.00    -0.290 N 
ATOM     10  C   UNL     1       0.577  -1.975   8.832  0.00  0.00    +0.219 C 
ATOM     11  O   UNL     1       0.222  -2.851   8.073  0.00  0.00    -0.275 OA
BRANCH  10  12
ATOM     12  C   UNL     1       1.310  -2.328  10.100  0.00  0.00    +0.075 C 
ATOM     13  C   UNL     1       2.688  -1.663  10.094  0.00  0.00    +0.013 C 
ATOM     14  C   UNL     1       3.432  -2.022  11.382  0.00  0.00    +0.001 C 
ATOM     15  C   UNL     1       3.598  -3.540  11.470  0.00  0.00    +0.000 C 
ATOM     16  C   UNL     1       2.220  -4.204  11.476  0.00  0.00    +0.001 C 
ATOM     17  C   UNL     1       1.476  -3.846  10.188  0.00  0.00    +0.013 C 
ENDBRANCH  10  12
ENDBRANCH   2   5
BRANCH   1  18
ATOM     18  C   UNL     1       0.669  -0.610   3.687  0.00  0.00    +0.102 C 
BRANCH  18  19
ATOM     19  C   UNL     1      -0.071  -0.103   2.448  0.00  0.00    +0.000 C 
BRANCH  19  20
ATOM     20  C   UNL     1       0.713  -0.491   1.192  0.00  0.00    -0.077 C 
BRANCH  20  22
ATOM     21  C   UNL     1      -0.018   1.465   0.010  0.00  0.00    -0.096 C 
ATOM     22  N   UNL     1       0.002  -0.004   0.002  0.00  0.00    +0.380 N 
ATOM     23  H   UNL     1      -0.945  -0.353   0.009  0.00  0.00    -0.082 HD
BRANCH  22  24
ATOM     24  C   UNL     1       0.690  -0.478  -1.207  0.00  0.00    -0.069 C 
ATOM     25  C   UNL     1      -0.050   0.029  -2.446  0.00  0.00    -0.015 C 
ATOM     26  C   UNL     1       0.666  -0.464  -3.705  0.00  0.00    -0.002 C 
ATOM     27  C   UNL     1       0.687  -1.994  -3.713  0.00  0.00    -0.000 C 
ATOM     28  C   UNL     1       1.427  -2.501  -2.474  0.00  0.00    -0.002 C 
ATOM     29  C   UNL     1       0.710  -2.008  -1.215  0.00  0.00    -0.015 C 
ENDBRANCH  22  24
ENDBRANCH  20  22
ENDBRANCH  19  20
ENDBRANCH  18  19
ENDBRANCH   1  18
TORSDOF 7
