REMARK  Name = ZINC40131175
REMARK  9 active torsions:
REMARK  status: ('A' for Active; 'I' for Inactive)
REMARK    1  A    between atoms: C_1  and  C_2
REMARK    2  A    between atoms: C_2  and  C_3
REMARK    3  A    between atoms: C_3  and  C_4
REMARK    4  A    between atoms: C_6  and  C_16
REMARK    5  A    between atoms: C_8  and  C_13
REMARK    6  A    between atoms: N_18  and  C_19
REMARK    7  A    between atoms: C_21  and  S_26
REMARK    8  A    between atoms: C_24  and  C_25
REMARK    9  A    between atoms: S_26  and  C_29
REMARK                            x       y       z     vdW  Elec       q    Type
REMARK                         _______ _______ _______ _____ _____    ______ ____
ROOT
ATOM      1  C   UNL     1       0.852  -1.981   1.341  0.00  0.00    +0.094 A 
ATOM      2  C   UNL     1      -0.119  -2.876   1.968  0.00  0.00    +0.076 A 
ATOM      3  C   UNL     1      -1.290  -2.676   2.725  0.00  0.00    +0.053 A 
ATOM      4  C   UNL     1      -1.977  -3.804   3.170  0.00  0.00    +0.037 A 
ATOM      5  C   UNL     1      -1.489  -5.062   2.854  0.00  0.00    +0.049 A 
ATOM      6  N   UNL     1      -0.392  -5.218   2.144  0.00  0.00    -0.215 NA
ATOM      7  C   UNL     1       0.306  -4.187   1.693  0.00  0.00    +0.259 A 
ATOM      8  O   UNL     1       1.435  -4.087   0.963  0.00  0.00    -0.334 OA
ATOM      9  N   UNL     1       1.744  -2.724   0.758  0.00  0.00    -0.080 NA
ENDROOT
BRANCH   3  10
ATOM     10  C   UNL     1      -1.773  -1.313   3.039  0.00  0.00    +0.249 C 
ATOM     11  O   UNL     1      -1.670  -0.426   2.214  0.00  0.00    -0.270 OA
ATOM     12  N   UNL     1      -2.328  -1.055   4.239  0.00  0.00    -0.281 N 
ATOM     13  H   UNL     1      -2.360  -1.747   4.918  0.00  0.00    +0.155 HD
BRANCH  12  14
ATOM     14  C   UNL     1      -2.859   0.211   4.506  0.00  0.00    +0.038 A 
ATOM     15  C   UNL     1      -2.265   1.344   3.963  0.00  0.00    +0.050 A 
ATOM     16  C   UNL     1      -2.791   2.592   4.229  0.00  0.00    +0.090 A 
ATOM     17  C   UNL     1      -3.908   2.716   5.036  0.00  0.00    +0.027 A 
ATOM     18  C   UNL     1      -4.502   1.591   5.578  0.00  0.00    +0.007 A 
ATOM     19  C   UNL     1      -3.984   0.339   5.311  0.00  0.00    -0.029 A 
ATOM     20  C   UNL     1      -4.636  -0.887   5.896  0.00  0.00    +0.045 C 
BRANCH  16  21
ATOM     21  S   UNL     1      -2.038   4.029   3.541  0.00  0.00    -0.006 S 
ATOM     22  O   UNL     1      -2.376   5.079   4.437  0.00  0.00    -0.170 OA
ATOM     23  O   UNL     1      -0.681   3.663   3.332  0.00  0.00    -0.170 OA
ATOM     24  C   UNL     1      -2.872   4.274   1.949  0.00  0.00    +0.200 C 
ENDBRANCH  16  21
ENDBRANCH  12  14
ENDBRANCH   3  10
BRANCH   5  25
ATOM     25  C   UNL     1      -2.232  -6.281   3.335  0.00  0.00    +0.038 C 
ATOM     26  C   UNL     1      -3.258  -6.088   4.454  0.00  0.00    +0.010 C 
ATOM     27  C   UNL     1      -1.927  -6.784   4.747  0.00  0.00    +0.010 C 
ENDBRANCH   5  25
BRANCH   1  28
ATOM     28  C   UNL     1       0.821  -0.474   1.361  0.00  0.00    +0.059 C 
BRANCH  28  30
ATOM     29  C   UNL     1       0.068   1.567   0.132  0.00  0.00    +0.004 C 
ATOM     30  C   UNL     1       0.100   0.038   0.112  0.00  0.00    +0.003 C 
ENDBRANCH  28  30
ENDBRANCH   1  28
TORSDOF 6
