REMARK  Name = ZINC06954635
REMARK  4 active torsions:
REMARK  status: ('A' for Active; 'I' for Inactive)
REMARK    1  A    between atoms: C_1  and  O_2
REMARK    2  A    between atoms: O_2  and  C_3
REMARK    3  A    between atoms: C_7  and  C_9
REMARK    4  A    between atoms: C_22  and  N_25
REMARK                            x       y       z     vdW  Elec       q    Type
REMARK                         _______ _______ _______ _____ _____    ______ ____
ROOT
ATOM      1  C   UNL     1      -1.262   3.487   0.112  0.00  0.00    +0.105 C 
ATOM      2  C   UNL     1      -0.250   4.196  -0.763  0.00  0.00    +0.029 C 
ATOM      3  C   UNL     1      -0.218   5.728  -0.735  0.00  0.00    +0.033 C 
ATOM      4  C   UNL     1       1.254   6.006  -1.053  0.00  0.00    -0.030 C 
ATOM      5  C   UNL     1       2.001   4.974  -0.678  0.00  0.00    -0.023 C 
ATOM      6  C   UNL     1       1.121   3.955  -0.056  0.00  0.00    +0.049 C 
ATOM      7  C   UNL     1       1.395   2.504  -0.146  0.00  0.00    -0.017 A 
ATOM      8  C   UNL     1       2.680   2.014  -0.253  0.00  0.00    +0.006 A 
ATOM      9  C   UNL     1       2.909   0.652  -0.302  0.00  0.00    +0.003 A 
ATOM     10  C   UNL     1       1.841  -0.224  -0.245  0.00  0.00    +0.034 A 
ATOM     11  C   UNL     1       0.554   0.257  -0.145  0.00  0.00    +0.147 A 
ATOM     12  C   UNL     1       0.305   1.630  -0.100  0.00  0.00    +0.062 A 
ATOM     13  N   UNL     1      -1.024   2.042  -0.034  0.00  0.00    -0.335 N 
ATOM     14  H   UNL     1      -1.559   1.663  -0.801  0.00  0.00    +0.147 HD
ENDROOT
BRANCH   1  19
ATOM     15  C   UNL     1      -0.128   3.498   3.716  0.00  0.00    +0.120 A 
ATOM     16  C   UNL     1      -0.732   4.653   4.191  0.00  0.00    +0.045 A 
ATOM     17  C   UNL     1      -1.503   5.426   3.344  0.00  0.00    +0.004 A 
ATOM     18  C   UNL     1      -1.674   5.048   2.025  0.00  0.00    +0.006 A 
ATOM     19  C   UNL     1      -1.073   3.897   1.550  0.00  0.00    -0.024 A 
ATOM     20  C   UNL     1      -0.305   3.118   2.394  0.00  0.00    +0.051 A 
BRANCH  15  22
ATOM     21  C   UNL     1       0.765   3.185   5.897  0.00  0.00    +0.277 C 
ATOM     22  O   UNL     1       0.632   2.736   4.547  0.00  0.00    -0.495 OA
ENDBRANCH  15  22
ENDBRANCH   1  19
BRANCH  11  23
ATOM     23  N   UNL     1      -0.579  -0.694  -0.084  0.00  0.00    +0.058 N 
ATOM     24  O   UNL     1      -0.370  -1.893  -0.122  0.00  0.00    -0.126 OA
ATOM     25  O   UNL     1      -1.720  -0.276   0.004  0.00  0.00    -0.126 OA
ENDBRANCH  11  23
TORSDOF 3
