REMARK  Name = ZINC67203226
REMARK  5 active torsions:
REMARK  status: ('A' for Active; 'I' for Inactive)
REMARK    1  A    between atoms: C_1  and  C_2
REMARK    2  A    between atoms: C_5  and  N_22
REMARK    3  A    between atoms: C_7  and  C_8
REMARK    4  A    between atoms: C_12  and  C_19
REMARK    5  A    between atoms: C_16  and  C_18
REMARK                            x       y       z     vdW  Elec       q    Type
REMARK                         _______ _______ _______ _____ _____    ______ ____
ROOT
ATOM      1  C   UNL     1       0.047   0.158   2.399  0.00  0.00    +0.247 C 
ATOM      2  O   UNL     1      -0.088   1.364   2.332  0.00  0.00    -0.270 OA
ATOM      3  N   UNL     1       0.278  -0.430   3.590  0.00  0.00    -0.294 N 
ATOM      4  C   UNL     1       0.549  -1.871   3.673  0.00  0.00    +0.121 C 
ATOM      5  C   UNL     1      -0.425  -2.499   4.675  0.00  0.00    +0.092 C 
ATOM      6  C   UNL     1      -0.321  -1.762   6.012  0.00  0.00    +0.016 C 
ATOM      7  C   UNL     1      -0.707  -0.293   5.818  0.00  0.00    +0.023 C 
ATOM      8  C   UNL     1       0.270   0.360   4.828  0.00  0.00    +0.073 C 
ATOM      9  C   UNL     1      -0.186   1.788   4.522  0.00  0.00    +0.028 C 
ENDROOT
BRANCH   1  16
ATOM     10  C   UNL     1      -2.309   0.329   0.728  0.00  0.00    +0.044 C 
ATOM     11  C   UNL     1      -1.173  -0.591   0.360  0.00  0.00    -0.038 A 
ATOM     12  C   UNL     1      -1.247  -1.357  -0.785  0.00  0.00    +0.006 A 
ATOM     13  C   UNL     1      -0.205  -2.202  -1.124  0.00  0.00    +0.033 A 
ATOM     14  C   UNL     1       0.917  -2.284  -0.319  0.00  0.00    +0.127 A 
ATOM     15  C   UNL     1       1.004  -1.523   0.828  0.00  0.00    +0.046 A 
ATOM     16  C   UNL     1      -0.041  -0.665   1.173  0.00  0.00    +0.042 A 
BRANCH  14  17
ATOM     17  N   UNL     1       2.027  -3.191  -0.690  0.00  0.00    +0.056 N 
ATOM     18  O   UNL     1       1.952  -3.859  -1.694  0.00  0.00    -0.126 OA
ATOM     19  O   UNL     1       3.008  -3.264   0.013  0.00  0.00    -0.126 OA
ENDBRANCH  14  17
ENDBRANCH   1  16
BRANCH   5  20
ATOM     20  C   UNL     1      -0.077  -3.952   4.873  0.00  0.00    +0.215 C 
ATOM     21  O   UNL     1       0.222  -4.359   5.975  0.00  0.00    -0.276 OA
ATOM     22  N   UNL     1      -0.099  -4.799   3.825  0.00  0.00    -0.329 N 
ATOM     23  H   UNL     1      -0.338  -4.473   2.943  0.00  0.00    +0.145 HD
ATOM     24  H   UNL     1       0.126  -5.734   3.952  0.00  0.00    +0.145 HD
ENDBRANCH   5  20
TORSDOF 3
