REMARK  Name = ZINC10962488
REMARK  7 active torsions:
REMARK  status: ('A' for Active; 'I' for Inactive)
REMARK    1  A    between atoms: C_1  and  C_2
REMARK    2  A    between atoms: C_7  and  N_8
REMARK    3  A    between atoms: C_9  and  C_11
REMARK    4  A    between atoms: C_13  and  C_23
REMARK    5  A    between atoms: N_19  and  C_20
REMARK    6  A    between atoms: C_20  and  C_21
REMARK    7  A    between atoms: C_20  and  C_22
REMARK                            x       y       z     vdW  Elec       q    Type
REMARK                         _______ _______ _______ _____ _____    ______ ____
ROOT
ATOM      1  C   UNL     1      -3.685  -1.049  -0.201  0.00  0.00    +0.051 A 
ATOM      2  C   UNL     1      -4.911  -0.387  -0.188  0.00  0.00    +0.037 A 
ATOM      3  C   UNL     1      -6.082  -1.122  -0.298  0.00  0.00    +0.041 A 
ATOM      4  N   UNL     1      -6.067  -2.432  -0.405  0.00  0.00    -0.233 NA
ATOM      5  C   UNL     1      -4.936  -3.122  -0.419  0.00  0.00    +0.159 A 
ATOM      6  C   UNL     1      -3.698  -2.457  -0.317  0.00  0.00    +0.051 A 
ATOM      7  C   UNL     1      -2.691  -3.444  -0.359  0.00  0.00    +0.145 A 
ATOM      8  N   UNL     1      -3.258  -4.611  -0.476  0.00  0.00    -0.177 NA
ATOM      9  N   UNL     1      -4.649  -4.459  -0.517  0.00  0.00    -0.244 N 
ATOM     10  C   UNL     1      -7.405  -0.400  -0.289  0.00  0.00    +0.065 C 
ENDROOT
BRANCH   1  12
ATOM     11  N   UNL     1      -2.428   1.040   0.019  0.00  0.00    -0.281 N 
ATOM     12  C   UNL     1      -2.414  -0.303  -0.091  0.00  0.00    +0.249 C 
ATOM     13  O   UNL     1      -1.355  -0.902  -0.099  0.00  0.00    -0.270 OA
ATOM     14  H   UNL     1      -3.271   1.511   0.106  0.00  0.00    +0.155 HD
BRANCH  11  21
ATOM     15  C   UNL     1      -2.365   3.583   1.292  0.00  0.00    +0.046 C 
ATOM     16  C   UNL     1      -1.151   3.001   0.615  0.00  0.00    -0.027 A 
ATOM     17  C   UNL     1       0.035   3.708   0.597  0.00  0.00    +0.043 A 
ATOM     18  C   UNL     1       1.152   3.174  -0.024  0.00  0.00    +0.124 A 
ATOM     19  C   UNL     1       1.081   1.929  -0.627  0.00  0.00    +0.040 A 
ATOM     20  C   UNL     1      -0.102   1.218  -0.611  0.00  0.00    +0.026 A 
ATOM     21  C   UNL     1      -1.225   1.755   0.006  0.00  0.00    +0.037 A 
ATOM     22  F   UNL     1       2.311   3.867  -0.042  0.00  0.00    -0.205 F 
ENDBRANCH  11  21
ENDBRANCH   1  12
BRANCH   9  23
ATOM     23  C   UNL     1      -5.628  -5.541  -0.644  0.00  0.00    +0.103 C 
ATOM     24  C   UNL     1      -5.385  -6.299  -1.951  0.00  0.00    +0.032 C 
ATOM     25  C   UNL     1      -5.481  -6.502   0.538  0.00  0.00    +0.032 C 
ENDBRANCH   9  23
TORSDOF 3
