REMARK  Name = ZINC64790651
REMARK  3 active torsions:
REMARK  status: ('A' for Active; 'I' for Inactive)
REMARK    1  A    between atoms: C_5  and  C_7
REMARK    2  A    between atoms: C_10  and  C_25
REMARK    3  A    between atoms: C_18  and  C_20
REMARK                            x       y       z     vdW  Elec       q    Type
REMARK                         _______ _______ _______ _____ _____    ______ ____
ROOT
ATOM      1  C   UNL     1       1.229  -2.186  -0.022  0.00  0.00    +0.148 C 
ATOM      2  C   UNL     1       0.486  -2.707  -1.258  0.00  0.00    +0.088 C 
ATOM      3  C   UNL     1      -1.002  -2.614  -1.074  0.00  0.00    +0.055 C 
ATOM      4  N   UNL     1      -1.579  -2.776   0.087  0.00  0.00    -0.215 NA
ATOM      5  C   UNL     1      -0.798  -2.965   1.185  0.00  0.00    +0.251 A 
ATOM      6  N   UNL     1       0.544  -2.697   1.166  0.00  0.00    -0.220 N 
ATOM      7  N   UNL     1       1.032  -3.001   2.432  0.00  0.00    -0.131 NA
ATOM      8  C   UNL     1       0.004  -3.407   3.148  0.00  0.00    +0.243 A 
ATOM      9  N   UNL     1      -1.103  -3.373   2.392  0.00  0.00    -0.176 NA
ATOM     10  N   UNL     1       0.058  -3.810   4.485  0.00  0.00    -0.247 N 
ATOM     11  C   UNL     1      -1.066  -4.206   5.115  0.00  0.00    +0.286 C 
ATOM     12  O   UNL     1      -2.127  -4.214   4.519  0.00  0.00    -0.266 OA
ATOM     13  H   UNL     1       0.903  -3.804   4.960  0.00  0.00    +0.158 HD
ENDROOT
BRANCH   1  18
ATOM     14  C   UNL     1      -0.017   1.378   0.010  0.00  0.00    +0.000 A 
ATOM     15  C   UNL     1       1.171   2.086   0.002  0.00  0.00    +0.001 A 
ATOM     16  C   UNL     1       2.377   1.412  -0.013  0.00  0.00    +0.020 A 
ATOM     17  C   UNL     1       2.397   0.029  -0.021  0.00  0.00    +0.046 A 
ATOM     18  C   UNL     1       1.208  -0.679  -0.013  0.00  0.00    -0.004 A 
ATOM     19  C   UNL     1       0.002  -0.004   0.002  0.00  0.00    +0.007 A 
ATOM     20 CL   UNL     1       3.912  -0.818  -0.041  0.00  0.00    -0.083 Cl
ENDBRANCH   1  18
BRANCH   3  21
ATOM     21  C   UNL     1      -1.843  -2.329  -2.246  0.00  0.00    -0.003 A 
ATOM     22  C   UNL     1      -1.258  -2.155  -3.505  0.00  0.00    +0.011 A 
ATOM     23  C   UNL     1      -2.052  -1.888  -4.600  0.00  0.00    +0.020 A 
ATOM     24  C   UNL     1      -3.426  -1.792  -4.455  0.00  0.00    +0.041 A 
ATOM     25  C   UNL     1      -4.013  -1.962  -3.212  0.00  0.00    +0.020 A 
ATOM     26  C   UNL     1      -3.232  -2.235  -2.109  0.00  0.00    +0.011 A 
ATOM     27 CL   UNL     1      -4.418  -1.455  -5.840  0.00  0.00    -0.084 Cl
ENDBRANCH   3  21
BRANCH  11  28
ATOM     28  C   UNL     1      -1.009  -4.629   6.518  0.00  0.00    +0.189 A 
ATOM     29  C   UNL     1      -2.066  -5.057   7.270  0.00  0.00    +0.054 A 
ATOM     30  C   UNL     1      -1.558  -5.357   8.544  0.00  0.00    +0.042 A 
ATOM     31  C   UNL     1      -0.232  -5.102   8.514  0.00  0.00    +0.196 A 
ATOM     32  O   UNL     1       0.096  -4.668   7.290  0.00  0.00    -0.458 OA
ENDBRANCH  11  28
TORSDOF 3
