REMARK  Name = ZINC12660739
REMARK  6 active torsions:
REMARK  status: ('A' for Active; 'I' for Inactive)
REMARK    1  A    between atoms: C_1  and  C_2
REMARK    2  A    between atoms: C_18  and  C_20
REMARK    3  A    between atoms: C_20  and  N_68
REMARK    4  A    between atoms: N_23  and  C_26
REMARK    5  A    between atoms: C_29  and  O_32
REMARK    6  A    between atoms: O_32  and  C_33
REMARK                            x       y       z     vdW  Elec       q    Type
REMARK                         _______ _______ _______ _____ _____    ______ ____
ROOT
ATOM      1  C   UNL     1       4.416   1.420  -1.934  0.00  0.00    +0.011 C 
ATOM      2  C   UNL     1       3.250   0.431  -2.069  0.00  0.00    -0.023 C 
ATOM      3  C   UNL     1       3.578  -0.598  -3.144  0.00  0.00    +0.007 C 
ATOM      4  C   UNL     1       3.808   0.070  -4.497  0.00  0.00    +0.003 C 
ATOM      5  C   UNL     1       2.559   0.841  -4.928  0.00  0.00    +0.037 C 
ATOM      6  C   UNL     1       2.139   1.811  -3.826  0.00  0.00    +0.096 C 
ATOM      7  C   UNL     1       1.975   1.196  -2.427  0.00  0.00    +0.030 C 
ATOM      8  C   UNL     1       0.783   0.244  -2.463  0.00  0.00    +0.014 C 
ATOM      9  C   UNL     1       0.622  -0.615  -1.251  0.00  0.00    +0.042 C 
ATOM     10  C   UNL     1       1.925  -1.260  -0.744  0.00  0.00    +0.181 C 
ATOM     11  C   UNL     1       3.066  -0.249  -0.715  0.00  0.00    +0.052 C 
ATOM     12  O   UNL     1       1.588  -1.579   0.655  0.00  0.00    -0.461 OA
ATOM     13  C   UNL     1       0.865  -0.543   1.134  0.00  0.00    +0.309 C 
ATOM     14  O   UNL     1       0.895  -0.116   2.262  0.00  0.00    -0.251 OA
ATOM     15  C   UNL     1       0.002  -0.004   0.002  0.00  0.00    +0.088 C 
ATOM     16  C   UNL     1       2.566   3.271  -3.928  0.00  0.00    +0.196 C 
ATOM     17  O   UNL     1       1.224   2.851  -4.183  0.00  0.00    -0.368 OA
ENDROOT
BRANCH  15  18
ATOM     18  C   UNL     1      -0.019   1.519   0.010  0.00  0.00    -0.064 C 
BRANCH  18  24
ATOM     19  C   UNL     1      -2.129   1.627   1.193  0.00  0.00    -0.060 C 
ATOM     20  C   UNL     1      -2.791   2.067   2.501  0.00  0.00    +0.086 C 
ATOM     21  N   UNL     1      -2.625   3.518   2.666  0.00  0.00    -0.333 N 
ATOM     22  C   UNL     1      -1.202   3.884   2.693  0.00  0.00    +0.086 C 
ATOM     23  C   UNL     1      -0.541   3.444   1.384  0.00  0.00    -0.060 C 
ATOM     24  N   UNL     1      -0.695   1.980   1.242  0.00  0.00    +0.382 N 
ATOM     25  H   UNL     1      -0.265   1.519   2.051  0.00  0.00    -0.082 HD
BRANCH  21  26
ATOM     26  C   UNL     1      -3.280   3.969   3.818  0.00  0.00    +0.030 A 
ATOM     27  C   UNL     1      -2.573   4.658   4.795  0.00  0.00    +0.027 A 
ATOM     28  C   UNL     1      -3.222   5.109   5.928  0.00  0.00    +0.047 A 
ATOM     29  C   UNL     1      -4.577   4.863   6.096  0.00  0.00    +0.120 A 
ATOM     30  C   UNL     1      -5.282   4.170   5.123  0.00  0.00    +0.047 A 
ATOM     31  C   UNL     1      -4.637   3.724   3.987  0.00  0.00    +0.027 A 
BRANCH  29  32
ATOM     32  O   UNL     1      -5.213   5.302   7.214  0.00  0.00    -0.495 OA
ATOM     33  C   UNL     1      -4.425   6.008   8.174  0.00  0.00    +0.277 C 
ENDBRANCH  29  32
ENDBRANCH  21  26
ENDBRANCH  18  24
ENDBRANCH  15  18
TORSDOF 4
