REMARK  Name = ZINC06764379
REMARK  10 active torsions:
REMARK  status: ('A' for Active; 'I' for Inactive)
REMARK    1  A    between atoms: C_1  and  C_2
REMARK    2  A    between atoms: C_2  and  C_29
REMARK    3  A    between atoms: N_11  and  C_19
REMARK    4  A    between atoms: N_14  and  C_15
REMARK    5  A    between atoms: C_15  and  C_16
REMARK    6  A    between atoms: C_16  and  N_59
REMARK    7  A    between atoms: C_17  and  N_59
REMARK    8  A    between atoms: C_18  and  N_59
REMARK    9  A    between atoms: C_19  and  C_20
REMARK   10  A    between atoms: C_20  and  C_21
REMARK                            x       y       z     vdW  Elec       q    Type
REMARK                         _______ _______ _______ _____ _____    ______ ____
ROOT
ATOM      1  C   UNL     1       2.138   1.412  -1.089  0.00  0.00    +0.041 C 
ATOM      2  C   UNL     1       1.271   2.045   0.001  0.00  0.00    +0.069 C 
ATOM      3  C   UNL     1       1.932   1.833   1.373  0.00  0.00    +0.077 C 
ATOM      4  C   UNL     1       1.741   0.397   1.753  0.00  0.00    +0.001 A 
ATOM      5  C   UNL     1       0.876  -0.481   1.160  0.00  0.00    +0.013 A 
ATOM      6  C   UNL     1       0.847  -1.779   1.658  0.00  0.00    +0.071 A 
ATOM      7  C   UNL     1       1.717  -2.047   2.728  0.00  0.00    +0.101 A 
ATOM      8  S   UNL     1       2.529  -0.504   2.991  0.00  0.00    -0.086 S 
ATOM      9  C   UNL     1       1.817  -3.296   3.349  0.00  0.00    +0.271 A 
ATOM     10  O   UNL     1       2.582  -3.499   4.276  0.00  0.00    -0.266 OA
ATOM     11  N   UNL     1       1.005  -4.268   2.852  0.00  0.00    -0.260 N 
ATOM     12  C   UNL     1       0.168  -4.030   1.832  0.00  0.00    +0.332 A 
ATOM     13  O   UNL     1      -0.526  -4.950   1.444  0.00  0.00    -0.246 OA
ATOM     14  N   UNL     1       0.042  -2.842   1.206  0.00  0.00    -0.294 N 
ATOM     15  C   UNL     1       0.002  -0.004   0.002  0.00  0.00    +0.198 C 
ATOM     16  O   UNL     1      -0.017   1.425   0.010  0.00  0.00    -0.369 OA
ATOM     17  C   UNL     1       1.117   3.544  -0.268  0.00  0.00    +0.041 C 
ENDROOT
BRANCH  14  18
ATOM     18  C   UNL     1      -0.898  -2.665   0.097  0.00  0.00    +0.108 C 
BRANCH  18  19
ATOM     19  C   UNL     1      -2.256  -2.220   0.645  0.00  0.00    -0.058 C 
BRANCH  19  22
ATOM     20  C   UNL     1      -4.567  -1.847   0.029  0.00  0.00    -0.097 C 
ATOM     21  C   UNL     1      -2.788  -0.927  -1.332  0.00  0.00    -0.097 C 
ATOM     22  N   UNL     1      -3.198  -2.065  -0.483  0.00  0.00    +0.377 N 
ATOM     23  H   UNL     1      -3.186  -2.923  -1.047  0.00  0.00    -0.083 HD
ENDBRANCH  19  22
ENDBRANCH  18  19
ENDBRANCH  14  18
BRANCH  11  24
ATOM     24  C   UNL     1       1.046  -5.606   3.447  0.00  0.00    +0.134 C 
BRANCH  24  25
ATOM     25  C   UNL     1       0.031  -5.689   4.588  0.00  0.00    +0.057 C 
BRANCH  25  26
ATOM     26  C   UNL     1       0.073  -7.066   5.199  0.00  0.00    -0.046 A 
ATOM     27  C   UNL     1      -0.749  -8.065   4.711  0.00  0.00    +0.004 A 
ATOM     28  C   UNL     1      -0.707  -9.329   5.268  0.00  0.00    +0.000 A 
ATOM     29  C   UNL     1       0.150  -9.592   6.321  0.00  0.00    +0.000 A 
ATOM     30  C   UNL     1       0.968  -8.592   6.812  0.00  0.00    +0.000 A 
ATOM     31  C   UNL     1       0.930  -7.329   6.252  0.00  0.00    +0.004 A 
ENDBRANCH  25  26
ENDBRANCH  24  25
ENDBRANCH  11  24
TORSDOF 6
