REMARK  Name = ZINC26505805
REMARK  5 active torsions:
REMARK  status: ('A' for Active; 'I' for Inactive)
REMARK    1  A    between atoms: C_4  and  C_7
REMARK    2  A    between atoms: C_7  and  C_8
REMARK    3  A    between atoms: N_10  and  N_11
REMARK    4  A    between atoms: N_15  and  N_16
REMARK    5  A    between atoms: N_16  and  C_17
REMARK                            x       y       z     vdW  Elec       q    Type
REMARK                         _______ _______ _______ _____ _____    ______ ____
ROOT
ATOM      1  N   UNL     1       5.745  -1.842   2.924  0.00  0.00    -0.140 N 
ATOM      2  C   UNL     1       6.724  -1.111   3.428  0.00  0.00    +0.297 C 
ATOM      3  O   UNL     1       7.271  -0.239   2.779  0.00  0.00    -0.266 OA
ATOM      4  C   UNL     1       7.122  -1.407   4.819  0.00  0.00    +0.187 C 
ATOM      5  N   UNL     1       8.046  -0.849   5.559  0.00  0.00    -0.170 NA
ATOM      6  S   UNL     1       5.993  -2.736   5.214  0.00  0.00    -0.003 S 
ATOM      7  C   UNL     1       5.138  -2.804   3.648  0.00  0.00    +0.304 C 
ATOM      8  O   UNL     1       4.230  -3.541   3.315  0.00  0.00    -0.260 OA
ENDROOT
BRANCH   1  11
ATOM      9  C   UNL     1       4.164  -0.959   1.377  0.00  0.00    +0.234 C 
ATOM     10  O   UNL     1       3.486  -0.579   2.308  0.00  0.00    -0.274 OA
ATOM     11  N   UNL     1       5.323  -1.607   1.608  0.00  0.00    -0.224 N 
ATOM     12  H   UNL     1       5.866  -1.911   0.864  0.00  0.00    +0.174 HD
BRANCH   9  13
ATOM     13  C   UNL     1       3.711  -0.707  -0.038  0.00  0.00    +0.132 C 
BRANCH  13  17
ATOM     14  C   UNL     1      -0.017   1.378   0.010  0.00  0.00    +0.000 A 
ATOM     15  C   UNL     1       1.171   2.086   0.002  0.00  0.00    +0.000 A 
ATOM     16  C   UNL     1       2.377   1.411  -0.013  0.00  0.00    +0.004 A 
ATOM     17  C   UNL     1       2.396   0.029  -0.020  0.00  0.00    -0.039 A 
ATOM     18  C   UNL     1       1.208  -0.679  -0.012  0.00  0.00    +0.004 A 
ATOM     19  C   UNL     1       0.002  -0.004   0.002  0.00  0.00    +0.000 A 
ENDBRANCH  13  17
ENDBRANCH   9  13
ENDBRANCH   1  11
BRANCH   5  20
ATOM     20  N   UNL     1       8.255  -1.294   6.871  0.00  0.00    -0.237 N 
ATOM     21  H   UNL     1       7.715  -2.015   7.231  0.00  0.00    +0.174 HD
BRANCH  20  22
ATOM     22  C   UNL     1       9.241  -0.700   7.660  0.00  0.00    +0.048 A 
ATOM     23  C   UNL     1      10.011   0.338   7.148  0.00  0.00    +0.026 A 
ATOM     24  C   UNL     1      10.986   0.924   7.932  0.00  0.00    +0.017 A 
ATOM     25  C   UNL     1      11.195   0.479   9.225  0.00  0.00    +0.018 A 
ATOM     26  C   UNL     1      10.430  -0.553   9.738  0.00  0.00    +0.017 A 
ATOM     27  C   UNL     1       9.450  -1.139   8.962  0.00  0.00    +0.026 A 
ATOM     28 BR   UNL     1      12.531   1.285  10.295  0.00  0.00    -0.050 Br
ENDBRANCH  20  22
ENDBRANCH   5  20
TORSDOF 5
