REMARK  Name = ZINC39655611
REMARK  6 active torsions:
REMARK  status: ('A' for Active; 'I' for Inactive)
REMARK    1  A    between atoms: C_4  and  N_7
REMARK    2  A    between atoms: N_7  and  C_8
REMARK    3  A    between atoms: C_8  and  C_9
REMARK    4  A    between atoms: C_9  and  N_10
REMARK    5  A    between atoms: C_11  and  C_13
REMARK    6  A    between atoms: C_24  and  C_26
REMARK                            x       y       z     vdW  Elec       q    Type
REMARK                         _______ _______ _______ _____ _____    ______ ____
ROOT
ATOM      1  C   UNL     1       6.303  -6.240  -0.092  0.00  0.00    +0.100 C 
ATOM      2  C   UNL     1       5.536  -6.783  -1.318  0.00  0.00    +0.121 C 
ATOM      3  N   UNL     1       6.580  -7.004  -2.346  0.00  0.00    -0.296 N 
ATOM      4  C   UNL     1       7.734  -7.547  -1.589  0.00  0.00    +0.115 C 
ATOM      5  C   UNL     1       7.744  -6.746  -0.272  0.00  0.00    -0.004 C 
ATOM      6  C   UNL     1       8.709  -5.568  -0.380  0.00  0.00    -0.010 C 
ATOM      7  C   UNL     1      10.141  -6.097  -0.501  0.00  0.00    -0.082 C 
ATOM      8  N   UNL     1      10.464  -6.914   0.674  0.00  0.00    +0.379 N 
ATOM      9  C   UNL     1       9.592  -8.094   0.720  0.00  0.00    -0.082 C 
ATOM     10  C   UNL     1       8.137  -7.650   0.892  0.00  0.00    -0.010 C 
ATOM     11  C   UNL     1       6.499  -6.764  -3.670  0.00  0.00    +0.248 C 
ATOM     12  O   UNL     1       5.512  -6.223  -4.131  0.00  0.00    -0.270 OA
ATOM     13  H   UNL     1      11.427  -7.210   0.622  0.00  0.00    -0.086 HD
ATOM     14  H   UNL     1      10.329  -6.366   1.511  0.00  0.00    -0.086 HD
ENDROOT
BRANCH  11  15
ATOM     15  C   UNL     1       7.603  -7.157  -4.555  0.00  0.00    +0.052 A 
ATOM     16  C   UNL     1       8.325  -8.282  -4.317  0.00  0.00    +0.059 A 
ATOM     17  S   UNL     1       9.463  -8.350  -5.548  0.00  0.00    -0.096 S 
ATOM     18  C   UNL     1       9.039  -6.885  -6.448  0.00  0.00    +0.020 A 
ATOM     19  C   UNL     1       7.954  -6.351  -5.727  0.00  0.00    +0.001 A 
ATOM     20  C   UNL     1       7.382  -5.159  -6.210  0.00  0.00    +0.010 A 
ATOM     21  C   UNL     1       7.874  -4.562  -7.344  0.00  0.00    +0.001 A 
ATOM     22  C   UNL     1       8.942  -5.111  -8.040  0.00  0.00    +0.001 A 
ATOM     23  C   UNL     1       9.530  -6.274  -7.582  0.00  0.00    +0.015 A 
ENDBRANCH  11  15
BRANCH   1  25
ATOM     24  N   UNL     1       6.304  -4.068   1.092  0.00  0.00    -0.314 N 
ATOM     25  C   UNL     1       6.274  -4.733  -0.080  0.00  0.00    +0.218 C 
ATOM     26  O   UNL     1       6.223  -4.120  -1.125  0.00  0.00    -0.275 OA
ATOM     27  H   UNL     1       6.344  -4.559   1.927  0.00  0.00    +0.149 HD
BRANCH  24  28
ATOM     28  C   UNL     1       6.275  -2.603   1.103  0.00  0.00    +0.123 C 
BRANCH  28  29
ATOM     29  C   UNL     1       6.319  -2.104   2.549  0.00  0.00    +0.120 C 
BRANCH  29  30
ATOM     30  N   UNL     1       6.290  -0.639   2.560  0.00  0.00    -0.342 N 
ATOM     31  H   UNL     1       6.250  -0.148   1.725  0.00  0.00    +0.146 HD
BRANCH  30  35
ATOM     32  C   UNL     1       6.382   1.417   6.180  0.00  0.00    +0.000 A 
ATOM     33  C   UNL     1       6.324   2.118   4.990  0.00  0.00    +0.002 A 
ATOM     34  C   UNL     1       6.294   1.439   3.787  0.00  0.00    +0.023 A 
ATOM     35  C   UNL     1       6.321   0.051   3.775  0.00  0.00    +0.027 A 
ATOM     36  C   UNL     1       6.378  -0.651   4.972  0.00  0.00    +0.023 A 
ATOM     37  C   UNL     1       6.409   0.034   6.171  0.00  0.00    +0.002 A 
ENDBRANCH  30  35
ENDBRANCH  29  30
ENDBRANCH  28  29
ENDBRANCH  24  28
ENDBRANCH   1  25
TORSDOF 6
