REMARK  Name = ZINC02926726
REMARK  9 active torsions:
REMARK  status: ('A' for Active; 'I' for Inactive)
REMARK    1  A    between atoms: C_1  and  C_2
REMARK    2  A    between atoms: N_7  and  C_10
REMARK    3  A    between atoms: C_10  and  C_11
REMARK    4  A    between atoms: C_15  and  C_22
REMARK    5  A    between atoms: C_18  and  C_21
REMARK    6  A    between atoms: C_24  and  C_25
REMARK    7  A    between atoms: N_27  and  C_28
REMARK    8  A    between atoms: C_28  and  C_29
REMARK    9  A    between atoms: C_28  and  C_30
REMARK                            x       y       z     vdW  Elec       q    Type
REMARK                         _______ _______ _______ _____ _____    ______ ____
ROOT
ATOM      1  C   UNL     1       3.756  -1.267  -3.674  0.00  0.00    +0.046 C 
ATOM      2  C   UNL     1       4.250  -1.438  -2.260  0.00  0.00    -0.017 A 
ATOM      3  C   UNL     1       3.406  -1.154  -1.185  0.00  0.00    +0.076 A 
ATOM      4  C   UNL     1       3.961  -1.345   0.101  0.00  0.00    +0.116 A 
ATOM      5  N   UNL     1       3.265  -1.111   1.206  0.00  0.00    -0.230 NA
ATOM      6  C   UNL     1       2.030  -0.693   1.161  0.00  0.00    +0.203 A 
ATOM      7  N   UNL     1       1.390  -0.473  -0.014  0.00  0.00    -0.290 N 
ATOM      8  C   UNL     1       2.002  -0.684  -1.196  0.00  0.00    +0.263 A 
ATOM      9  O   UNL     1       1.416  -0.489  -2.246  0.00  0.00    -0.267 OA
ATOM     10  S   UNL     1       5.610  -1.903  -0.247  0.00  0.00    -0.064 S 
ATOM     11  C   UNL     1       5.523  -1.869  -2.029  0.00  0.00    +0.079 A 
ENDROOT
BRANCH  11  12
ATOM     12  C   UNL     1       6.563  -2.218  -3.003  0.00  0.00    +0.251 C 
ATOM     13  O   UNL     1       6.331  -2.137  -4.195  0.00  0.00    -0.270 OA
ATOM     14  N   UNL     1       7.774  -2.629  -2.578  0.00  0.00    -0.309 N 
ATOM     15  H   UNL     1       7.958  -2.693  -1.627  0.00  0.00    +0.149 HD
BRANCH  14  16
ATOM     16  C   UNL     1       8.812  -2.978  -3.550  0.00  0.00    +0.067 C 
ATOM     17  C   UNL     1      10.191  -2.802  -2.910  0.00  0.00    +0.027 C 
ATOM     18  C   UNL     1       8.634  -4.433  -3.986  0.00  0.00    +0.027 C 
ENDBRANCH  14  16
ENDBRANCH  11  12
BRANCH   7  19
ATOM     19  C   UNL     1       0.002  -0.004   0.002  0.00  0.00    +0.222 C 
BRANCH  19  20
ATOM     20  C   UNL     1      -0.018   1.503   0.010  0.00  0.00    +0.236 C 
ATOM     21  O   UNL     1       1.024   2.123   0.004  0.00  0.00    -0.274 OA
ATOM     22  N   UNL     1      -1.195   2.161   0.019  0.00  0.00    -0.300 N 
ATOM     23  C   UNL     1      -2.465   1.423   0.015  0.00  0.00    +0.111 C 
ATOM     24  C   UNL     1      -3.319   1.913   1.195  0.00  0.00    +0.004 C 
ATOM     25  C   UNL     1      -3.475   3.433   1.107  0.00  0.00    +0.009 C 
ATOM     26  C   UNL     1      -2.098   4.095   1.202  0.00  0.00    +0.004 C 
ATOM     27  C   UNL     1      -1.231   3.630   0.028  0.00  0.00    +0.111 C 
ATOM     28  C   UNL     1      -2.258   5.615   1.147  0.00  0.00    +0.009 C 
ATOM     29  C   UNL     1      -2.634   1.545   2.513  0.00  0.00    +0.009 C 
ENDBRANCH  19  20
ENDBRANCH   7  19
TORSDOF 4
