REMARK  Name = ZINC63994100
REMARK  11 active torsions:
REMARK  status: ('A' for Active; 'I' for Inactive)
REMARK    1  A    between atoms: C_1  and  C_2
REMARK    2  A    between atoms: N_4  and  C_5
REMARK    3  A    between atoms: C_9  and  N_31
REMARK    4  A    between atoms: N_13  and  C_20
REMARK    5  A    between atoms: C_14  and  C_16
REMARK    6  A    between atoms: C_16  and  O_18
REMARK    7  A    between atoms: O_18  and  C_19
REMARK    8  A    between atoms: C_20  and  C_21
REMARK    9  A    between atoms: C_21  and  C_22
REMARK   10  A    between atoms: N_31  and  C_32
REMARK   11  A    between atoms: C_38  and  C_40
REMARK                            x       y       z     vdW  Elec       q    Type
REMARK                         _______ _______ _______ _____ _____    ______ ____
ROOT
ATOM      1  C   UNL     1      -1.086  -2.176  -0.022  0.00  0.00    +0.138 C 
ATOM      2  C   UNL     1      -1.027  -2.705   1.392  0.00  0.00    +0.015 A 
ATOM      3  C   UNL     1      -0.078  -2.550   2.384  0.00  0.00    +0.033 A 
ATOM      4  C   UNL     1      -0.296  -3.168   3.615  0.00  0.00    +0.044 A 
ATOM      5  C   UNL     1      -1.454  -3.912   3.792  0.00  0.00    +0.107 A 
ATOM      6  N   UNL     1      -2.334  -4.037   2.821  0.00  0.00    -0.348 N 
ATOM      7  C   UNL     1      -2.165  -3.463   1.630  0.00  0.00    +0.105 A 
ATOM      8  N   UNL     1      -2.997  -3.501   0.513  0.00  0.00    -0.301 N 
ATOM      9  C   UNL     1      -2.409  -2.723  -0.584  0.00  0.00    +0.208 C 
ATOM     10  H   UNL     1      -3.133  -4.565   2.978  0.00  0.00    +0.167 HD
ENDROOT
BRANCH   1  14
ATOM     11  C   UNL     1       0.050   1.480  -0.022  0.00  0.00    +0.109 C 
ATOM     12  C   UNL     1       0.063  -0.027  -0.025  0.00  0.00    +0.210 C 
ATOM     13  O   UNL     1       1.118  -0.624  -0.033  0.00  0.00    -0.276 OA
ATOM     14  N   UNL     1      -1.099  -0.711  -0.019  0.00  0.00    -0.306 N 
ATOM     15  H   UNL     1      -1.943  -0.233  -0.013  0.00  0.00    +0.149 HD
ENDBRANCH   1  14
BRANCH   9  16
ATOM     16  C   UNL     1      -2.144  -3.609  -1.774  0.00  0.00    +0.330 C 
ATOM     17  O   UNL     1      -2.144  -4.811  -1.644  0.00  0.00    -0.249 OA
BRANCH  16  18
ATOM     18  O   UNL     1      -1.908  -3.065  -2.978  0.00  0.00    -0.467 OA
ATOM     19  C   UNL     1      -1.665  -3.965  -4.061  0.00  0.00    +0.280 C 
ENDBRANCH  16  18
ENDBRANCH   9  16
BRANCH   4  20
ATOM     20  N   UNL     1       0.635  -3.040   4.652  0.00  0.00    -0.340 N 
ATOM     21  H   UNL     1       1.442  -2.518   4.519  0.00  0.00    +0.146 HD
BRANCH  20  22
ATOM     22  C   UNL     1       0.392  -3.696   5.940  0.00  0.00    +0.073 C 
ATOM     23  C   UNL     1       0.880  -5.144   5.875  0.00  0.00    +0.041 C 
ATOM     24  C   UNL     1       0.593  -5.837   7.211  0.00  0.00    +0.109 C 
ATOM     25  N   UNL     1       1.195  -5.045   8.292  0.00  0.00    -0.302 N 
ATOM     26  C   UNL     1       0.864  -3.617   8.392  0.00  0.00    +0.109 C 
ATOM     27  C   UNL     1       1.148  -2.950   7.042  0.00  0.00    +0.041 C 
ATOM     28  C   UNL     1       2.035  -5.618   9.177  0.00  0.00    +0.212 C 
ATOM     29  O   UNL     1       2.231  -6.814   9.140  0.00  0.00    -0.276 OA
ATOM     30  C   UNL     1       2.732  -4.772  10.211  0.00  0.00    +0.109 C 
ENDBRANCH  20  22
ENDBRANCH   4  20
BRANCH   8  31
ATOM     31  C   UNL     1      -4.273  -4.216   0.442  0.00  0.00    +0.112 C 
BRANCH  31  32
ATOM     32  C   UNL     1      -5.404  -3.287   0.888  0.00  0.00    +0.052 C 
BRANCH  32  33
ATOM     33  C   UNL     1      -6.717  -4.023   0.815  0.00  0.00    -0.040 C 
ATOM     34  C   UNL     1      -7.344  -4.669   1.825  0.00  0.00    -0.001 A 
ATOM     35  C   UNL     1      -7.003  -4.873   3.238  0.00  0.00    +0.010 A 
ATOM     36  C   UNL     1      -7.849  -5.582   4.020  0.00  0.00    +0.001 A 
ATOM     37  C   UNL     1      -9.039  -6.125   3.517  0.00  0.00    +0.002 A 
ATOM     38  C   UNL     1      -9.419  -5.980   2.230  0.00  0.00    +0.026 A 
ATOM     39  C   UNL     1      -8.606  -5.253   1.318  0.00  0.00    +0.043 A 
ATOM     40  N   UNL     1      -8.754  -4.978   0.044  0.00  0.00    -0.380 N 
ATOM     41  C   UNL     1      -7.604  -4.183  -0.399  0.00  0.00    +0.144 C 
ATOM     42  H   UNL     1      -9.501  -5.251  -0.511  0.00  0.00    +0.160 HD
ENDBRANCH  32  33
ENDBRANCH  31  32
ENDBRANCH   8  31
TORSDOF 8
