REMARK  Name = ZINC14254313
REMARK  7 active torsions:
REMARK  status: ('A' for Active; 'I' for Inactive)
REMARK    1  A    between atoms: C_1  and  C_2
REMARK    2  A    between atoms: C_5  and  C_8
REMARK    3  A    between atoms: C_11  and  C_14
REMARK    4  A    between atoms: C_19  and  C_21
REMARK    5  A    between atoms: C_21  and  S_22
REMARK    6  A    between atoms: S_22  and  C_23
REMARK    7  A    between atoms: C_27  and  C_29
REMARK                            x       y       z     vdW  Elec       q    Type
REMARK                         _______ _______ _______ _____ _____    ______ ____
ROOT
ATOM      1  C   UNL     1       0.058  -4.248  -0.021  0.00  0.00    +0.069 C 
ATOM      2  N   UNL     1       0.068  -4.985  -1.077  0.00  0.00    -0.181 NA
ATOM      3  N   UNL     1       0.086  -6.354  -0.816  0.00  0.00    -0.181 N 
ATOM      4  C   UNL     1       0.088  -6.560   0.641  0.00  0.00    +0.173 C 
ATOM      5  C   UNL     1       0.076  -5.127   1.209  0.00  0.00    +0.090 C 
ATOM      6  C   UNL     1       0.098  -7.329  -1.746  0.00  0.00    +0.246 C 
ATOM      7  O   UNL     1       0.113  -8.493  -1.404  0.00  0.00    -0.273 OA
ENDROOT
BRANCH   1  12
ATOM      8  C   UNL     1      -0.018   1.503   0.010  0.00  0.00    +0.044 C 
ATOM      9  C   UNL     1       0.002  -0.004   0.002  0.00  0.00    -0.050 A 
ATOM     10  C   UNL     1       0.006  -0.686  -1.202  0.00  0.00    +0.004 A 
ATOM     11  C   UNL     1       0.024  -2.065  -1.217  0.00  0.00    +0.010 A 
ATOM     12  C   UNL     1       0.039  -2.773  -0.013  0.00  0.00    -0.002 A 
ATOM     13  C   UNL     1       0.036  -2.078   1.198  0.00  0.00    +0.010 A 
ATOM     14  C   UNL     1       0.023  -0.699   1.198  0.00  0.00    +0.004 A 
ENDBRANCH   1  12
BRANCH   4  15
ATOM     15  C   UNL     1       1.335  -7.289   1.071  0.00  0.00    +0.128 A 
ATOM     16  C   UNL     1       1.402  -8.240   2.020  0.00  0.00    +0.046 A 
ATOM     17  C   UNL     1       2.754  -8.646   2.097  0.00  0.00    +0.041 A 
ATOM     18  C   UNL     1       3.432  -7.918   1.192  0.00  0.00    +0.195 A 
ATOM     19  O   UNL     1       2.566  -7.102   0.569  0.00  0.00    -0.466 OA
ENDBRANCH   4  15
BRANCH   6  20
ATOM     20  C   UNL     1       0.095  -6.974  -3.211  0.00  0.00    +0.175 C 
BRANCH  20  21
ATOM     21  S   UNL     1       0.114  -8.494  -4.201  0.00  0.00    -0.077 S 
BRANCH  21  22
ATOM     22  C   UNL     1       0.108  -7.917  -5.866  0.00  0.00    +0.185 A 
ATOM     23  N   UNL     1       0.113  -8.691  -6.974  0.00  0.00    -0.253 N 
ATOM     24  H   UNL     1       0.120  -9.661  -7.005  0.00  0.00    +0.191 HD
ATOM     25  N   UNL     1       0.104  -7.816  -8.072  0.00  0.00    -0.151 NA
ATOM     26  C   UNL     1       0.095  -6.594  -7.588  0.00  0.00    +0.185 A 
ATOM     27  N   UNL     1       0.092  -6.659  -6.248  0.00  0.00    -0.201 NA
BRANCH  26  28
ATOM     28  C   UNL     1       0.085  -5.347  -8.391  0.00  0.00    +0.056 A 
ATOM     29  C   UNL     1       0.083  -4.107  -7.757  0.00  0.00    +0.014 A 
ATOM     30  C   UNL     1       0.074  -2.950  -8.509  0.00  0.00    +0.001 A 
ATOM     31  C   UNL     1       0.067  -3.019  -9.891  0.00  0.00    +0.003 A 
ATOM     32  C   UNL     1       0.070  -4.246 -10.528  0.00  0.00    +0.039 A 
ATOM     33  C   UNL     1       0.085  -5.412  -9.785  0.00  0.00    +0.134 A 
ATOM     34  F   UNL     1       0.093  -6.611 -10.407  0.00  0.00    -0.205 F 
ENDBRANCH  26  28
ENDBRANCH  21  22
ENDBRANCH  20  21
ENDBRANCH   6  20
TORSDOF 6
