REMARK  Name = ZINC04140387
REMARK  3 active torsions:
REMARK  status: ('A' for Active; 'I' for Inactive)
REMARK    1  A    between atoms: C_1  and  C_2
REMARK    2  A    between atoms: C_5  and  C_8
REMARK    3  A    between atoms: C_19  and  N_24
REMARK                            x       y       z     vdW  Elec       q    Type
REMARK                         _______ _______ _______ _____ _____    ______ ____
ROOT
ATOM      1  C   UNL     1      -2.490   5.220  -0.368  0.00  0.00    +0.105 C 
ATOM      2  C   UNL     1      -1.634   6.268   0.351  0.00  0.00    +0.029 C 
ATOM      3  C   UNL     1      -1.810   7.612  -0.417  0.00  0.00    +0.033 C 
ATOM      4  C   UNL     1      -0.845   7.479  -1.580  0.00  0.00    -0.030 C 
ATOM      5  C   UNL     1       0.081   6.591  -1.309  0.00  0.00    -0.023 C 
ATOM      6  C   UNL     1      -0.142   6.008   0.067  0.00  0.00    +0.049 C 
ATOM      7  C   UNL     1       0.215   4.556   0.111  0.00  0.00    -0.017 A 
ATOM      8  C   UNL     1       1.557   4.200   0.136  0.00  0.00    +0.038 A 
ATOM      9  C   UNL     1       1.929   2.872   0.185  0.00  0.00    +0.127 A 
ATOM     10  C   UNL     1       0.968   1.879   0.210  0.00  0.00    +0.034 A 
ATOM     11  C   UNL     1      -0.370   2.220   0.177  0.00  0.00    +0.025 A 
ATOM     12  C   UNL     1      -0.745   3.557   0.134  0.00  0.00    +0.032 A 
ATOM     13  N   UNL     1      -2.104   3.887   0.106  0.00  0.00    -0.336 N 
ATOM     14  H   UNL     1      -2.776   3.248   0.392  0.00  0.00    +0.147 HD
ENDROOT
BRANCH   1  19
ATOM     15  C   UNL     1      -1.611   5.578  -6.068  0.00  0.00    +0.044 C 
ATOM     16  C   UNL     1      -1.840   5.485  -4.581  0.00  0.00    -0.050 A 
ATOM     17  C   UNL     1      -1.046   4.657  -3.810  0.00  0.00    +0.004 A 
ATOM     18  C   UNL     1      -1.256   4.571  -2.447  0.00  0.00    +0.006 A 
ATOM     19  C   UNL     1      -2.260   5.314  -1.854  0.00  0.00    -0.027 A 
ATOM     20  C   UNL     1      -3.058   6.138  -2.626  0.00  0.00    +0.006 A 
ATOM     21  C   UNL     1      -2.844   6.228  -3.989  0.00  0.00    +0.004 A 
ENDBRANCH   1  19
BRANCH   9  22
ATOM     22  N   UNL     1       3.364   2.510   0.214  0.00  0.00    +0.056 N 
ATOM     23  O   UNL     1       3.696   1.339   0.258  0.00  0.00    -0.126 OA
ATOM     24  O   UNL     1       4.213   3.383   0.192  0.00  0.00    -0.126 OA
ENDBRANCH   9  22
TORSDOF 2
