REMARK  Name = ZINC35433190
REMARK  3 active torsions:
REMARK  status: ('A' for Active; 'I' for Inactive)
REMARK    1  A    between atoms: C_1  and  C_2
REMARK    2  A    between atoms: N_7  and  C_9
REMARK    3  A    between atoms: C_10  and  C_18
REMARK                            x       y       z     vdW  Elec       q    Type
REMARK                         _______ _______ _______ _____ _____    ______ ____
ROOT
ATOM      1  C   UNL     1       1.382  -2.440   2.401  0.00  0.00    +0.139 A 
ATOM      2  C   UNL     1       0.797  -3.253   3.363  0.00  0.00    +0.175 A 
ATOM      3  N   UNL     1       1.759  -3.458   4.338  0.00  0.00    -0.292 N 
ATOM      4  C   UNL     1       1.750  -4.163   5.499  0.00  0.00    +0.093 A 
ATOM      5  C   UNL     1       2.848  -4.204   6.290  0.00  0.00    +0.018 A 
ATOM      6  C   UNL     1       4.009  -3.514   5.917  0.00  0.00    +0.005 A 
ATOM      7  C   UNL     1       4.025  -2.804   4.753  0.00  0.00    +0.047 A 
ATOM      8  C   UNL     1       2.874  -2.776   3.945  0.00  0.00    +0.140 A 
ATOM      9  N   UNL     1       2.622  -2.180   2.780  0.00  0.00    -0.214 NA
ENDROOT
BRANCH   1  15
ATOM     10  C   UNL     1      -0.019   1.526   0.010  0.00  0.00    +0.009 C 
ATOM     11  C   UNL     1       0.002  -0.004   0.002  0.00  0.00    +0.002 C 
ATOM     12  C   UNL     1       0.721  -0.499  -1.257  0.00  0.00    +0.006 C 
ATOM     13  C   UNL     1       0.805  -2.027  -1.217  0.00  0.00    +0.018 C 
ATOM     14  C   UNL     1       1.518  -2.460   0.066  0.00  0.00    +0.086 C 
ATOM     15  N   UNL     1       0.768  -1.979   1.233  0.00  0.00    -0.378 NA
ATOM     16  C   UNL     1       0.744  -0.512   1.240  0.00  0.00    +0.089 C 
ATOM     17  H   UNL     1      -0.177  -2.330   1.192  0.00  0.00    +0.128 HD
ENDBRANCH   1  15
BRANCH   2  18
ATOM     18  C   UNL     1      -0.516  -3.768   3.349  0.00  0.00    +0.406 C 
ATOM     19  O   UNL     1      -0.922  -4.510   4.309  0.00  0.00    -0.239 OA
ATOM     20  O   UNL     1      -1.301  -3.494   2.377  0.00  0.00    -0.239 OA
ENDBRANCH   2  18
TORSDOF 2
