REMARK  Name = ZINC38586823
REMARK  6 active torsions:
REMARK  status: ('A' for Active; 'I' for Inactive)
REMARK    1  A    between atoms: C_1  and  C_2
REMARK    2  A    between atoms: C_2  and  C_3
REMARK    3  A    between atoms: C_2  and  C_4
REMARK    4  A    between atoms: C_2  and  C_5
REMARK    5  A    between atoms: C_7  and  C_11
REMARK    6  A    between atoms: C_15  and  C_20
REMARK                            x       y       z     vdW  Elec       q    Type
REMARK                         _______ _______ _______ _____ _____    ______ ____
ROOT
ATOM      1  C   UNL     1       1.141  -0.482  -4.551  0.00  0.00    +0.182 C 
ATOM      2  N   UNL     1       1.692  -1.423  -5.562  0.00  0.00    -0.265 N 
ATOM      3  N   UNL     1       1.799  -0.917  -6.823  0.00  0.00    -0.220 N 
ATOM      4  C   UNL     1       1.899  -1.413  -8.119  0.00  0.00    +0.185 A 
ATOM      5  N   UNL     1       2.024  -0.392  -8.929  0.00  0.00    -0.127 NA
ATOM      6  N   UNL     1       1.994   0.706  -8.259  0.00  0.00    -0.120 NA
ATOM      7  C   UNL     1       1.842   0.443  -6.997  0.00  0.00    +0.211 A 
ATOM      8  S   UNL     1       1.640   1.103  -5.354  0.00  0.00    -0.058 S 
ATOM      9  H   UNL     1       2.570  -1.812  -5.253  0.00  0.00    +0.168 HD
ENDROOT
BRANCH   4  10
ATOM     10  C   UNL     1       1.872  -2.838  -8.511  0.00  0.00    +0.059 A 
ATOM     11  C   UNL     1       1.729  -3.830  -7.540  0.00  0.00    +0.052 A 
ATOM     12  C   UNL     1       1.704  -5.160  -7.913  0.00  0.00    +0.124 A 
ATOM     13  C   UNL     1       1.820  -5.510  -9.249  0.00  0.00    +0.041 A 
ATOM     14  C   UNL     1       1.963  -4.532 -10.217  0.00  0.00    +0.042 A 
ATOM     15  C   UNL     1       1.984  -3.198  -9.857  0.00  0.00    +0.134 A 
ATOM     16  F   UNL     1       2.118  -2.244 -10.804  0.00  0.00    -0.205 F 
ATOM     17  F   UNL     1       1.566  -6.121  -6.974  0.00  0.00    -0.205 F 
ENDBRANCH   4  10
BRANCH   1  20
ATOM     18  C   UNL     1       0.707  -0.490  -1.238  0.00  0.00    +0.067 C 
ATOM     19  C   UNL     1       1.233   0.306  -2.172  0.00  0.00    +0.029 C 
ATOM     20  C   UNL     1       1.815  -0.660  -3.189  0.00  0.00    +0.185 C 
ATOM     21  N   UNL     1       1.496  -1.978  -2.615  0.00  0.00    -0.177 NA
ATOM     22  N   UNL     1       0.899  -1.790  -1.552  0.00  0.00    -0.158 NA
BRANCH  18  24
ATOM     23  C   UNL     1      -0.019   1.526   0.010  0.00  0.00    +0.017 C 
ATOM     24  C   UNL     1       0.002  -0.004   0.002  0.00  0.00    +0.006 C 
ATOM     25  C   UNL     1       0.742  -0.511   1.242  0.00  0.00    +0.017 C 
ATOM     26  C   UNL     1      -1.433  -0.534   0.013  0.00  0.00    +0.017 C 
ENDBRANCH  18  24
ENDBRANCH   1  20
TORSDOF 3
