REMARK  Name = ZINC15006362
REMARK  5 active torsions:
REMARK  status: ('A' for Active; 'I' for Inactive)
REMARK    1  A    between atoms: C_1  and  O_2
REMARK    2  A    between atoms: O_2  and  C_3
REMARK    3  A    between atoms: C_8  and  N_9
REMARK    4  A    between atoms: C_18  and  C_19
REMARK    5  A    between atoms: C_18  and  N_47
REMARK                            x       y       z     vdW  Elec       q    Type
REMARK                         _______ _______ _______ _____ _____    ______ ____
ROOT
ATOM      1  N   UNL     1      -1.316  -0.492  -0.452  0.00  0.00    -0.268 N 
ATOM      2  C   UNL     1      -2.172  -1.079  -1.524  0.00  0.00    +0.064 C 
ATOM      3  C   UNL     1      -2.542  -2.459  -0.857  0.00  0.00    +0.015 C 
ATOM      4  C   UNL     1      -3.038  -1.770   0.465  0.00  0.00    +0.022 C 
ATOM      5  C   UNL     1      -1.829  -0.866   0.747  0.00  0.00    +0.207 C 
ATOM      6  O   UNL     1      -1.411  -0.546   1.839  0.00  0.00    -0.277 OA
ATOM      7  C   UNL     1      -3.535  -0.336  -1.358  0.00  0.00    -0.054 C 
ATOM      8  N   UNL     1      -4.057  -0.857  -0.070  0.00  0.00    +0.392 N 
ATOM      9  H   UNL     1      -4.933  -1.368  -0.230  0.00  0.00    -0.080 HD
ENDROOT
BRANCH   1  15
ATOM     10  C   UNL     1      -0.300   1.698  -0.631  0.00  0.00    +0.141 A 
ATOM     11  C   UNL     1       0.822   2.487  -0.827  0.00  0.00    +0.049 A 
ATOM     12  C   UNL     1       2.054   1.897  -1.039  0.00  0.00    +0.024 A 
ATOM     13  C   UNL     1       2.171   0.518  -1.058  0.00  0.00    +0.043 A 
ATOM     14  C   UNL     1       1.055  -0.276  -0.863  0.00  0.00    +0.047 A 
ATOM     15  C   UNL     1      -0.184   0.310  -0.649  0.00  0.00    +0.080 A 
ATOM     16 CL   UNL     1       3.721  -0.217  -1.325  0.00  0.00    -0.083 Cl
BRANCH  10  18
ATOM     17  C   UNL     1      -1.541   3.702  -0.312  0.00  0.00    +0.277 C 
ATOM     18  O   UNL     1      -1.513   2.278  -0.427  0.00  0.00    -0.493 OA
ENDBRANCH  10  18
ENDBRANCH   1  15
BRANCH   8  19
ATOM     19  C   UNL     1      -4.314   0.272   0.890  0.00  0.00    -0.023 C 
BRANCH  19  20
ATOM     20  C   UNL     1      -4.902  -0.275   2.165  0.00  0.00    +0.009 A 
ATOM     21  C   UNL     1      -4.210  -0.628   3.267  0.00  0.00    +0.021 A 
ATOM     22  C   UNL     1      -5.140  -1.086   4.222  0.00  0.00    +0.020 A 
ATOM     23  C   UNL     1      -6.366  -0.996   3.670  0.00  0.00    +0.093 A 
ATOM     24  N   UNL     1      -6.230  -0.492   2.407  0.00  0.00    -0.301 N 
ATOM     25  C   UNL     1      -7.270  -0.244   1.514  0.00  0.00    +0.177 A 
ATOM     26  N   UNL     1      -7.207   0.143   0.255  0.00  0.00    -0.231 NA
ATOM     27  C   UNL     1      -8.299   0.330  -0.459  0.00  0.00    +0.121 A 
ATOM     28  C   UNL     1      -9.501   0.125   0.135  0.00  0.00    +0.068 A 
ATOM     29  S   UNL     1      -8.983  -0.359   1.775  0.00  0.00    -0.058 S 
ENDBRANCH  19  20
ENDBRANCH   8  19
TORSDOF 4
