REMARK  Name = ZINC35368921
REMARK  3 active torsions:
REMARK  status: ('A' for Active; 'I' for Inactive)
REMARK    1  A    between atoms: C_1  and  C_2
REMARK    2  A    between atoms: C_5  and  C_7
REMARK    3  A    between atoms: C_7  and  C_9
REMARK                            x       y       z     vdW  Elec       q    Type
REMARK                         _______ _______ _______ _____ _____    ______ ____
ROOT
ATOM      1  C   UNL     1       3.111  -2.998  -0.142  0.00  0.00    +0.026 A 
ATOM      2  C   UNL     1       3.629  -1.699  -0.131  0.00  0.00    +0.013 A 
ATOM      3  C   UNL     1       4.986  -1.500  -0.241  0.00  0.00    +0.024 A 
ATOM      4  C   UNL     1       5.844  -2.590  -0.362  0.00  0.00    +0.037 A 
ATOM      5  C   UNL     1       5.331  -3.884  -0.373  0.00  0.00    -0.025 A 
ATOM      6  C   UNL     1       3.975  -4.090  -0.258  0.00  0.00    +0.017 A 
ATOM      7  C   UNL     1       6.265  -5.059  -0.504  0.00  0.00    +0.046 C 
ATOM      8  C   UNL     1       7.444  -4.676  -1.399  0.00  0.00    +0.101 C 
ATOM      9  C   UNL     1       8.017  -3.357  -0.955  0.00  0.00    +0.218 C 
ATOM     10  O   UNL     1       9.212  -3.166  -1.031  0.00  0.00    -0.275 OA
ATOM     11  N   UNL     1       7.218  -2.386  -0.474  0.00  0.00    -0.285 N 
ATOM     12  H   UNL     1       7.602  -1.538  -0.202  0.00  0.00    +0.155 HD
ENDROOT
BRANCH   1  13
ATOM     13  C   UNL     1       1.655  -3.215  -0.025  0.00  0.00    +0.228 C 
ATOM     14  O   UNL     1       1.215  -4.345   0.083  0.00  0.00    -0.283 OA
BRANCH  13  19
ATOM     15  C   UNL     1      -0.025   1.500  -0.079  0.00  0.00    +0.086 C 
ATOM     16  C   UNL     1      -0.003  -0.007  -0.061  0.00  0.00    +0.103 A 
ATOM     17  C   UNL     1      -1.090  -0.810  -0.051  0.00  0.00    +0.045 A 
ATOM     18  C   UNL     1      -0.626  -2.134  -0.035  0.00  0.00    +0.053 A 
ATOM     19  C   UNL     1       0.740  -2.071  -0.037  0.00  0.00    +0.175 A 
ATOM     20  O   UNL     1       1.098  -0.770  -0.058  0.00  0.00    -0.457 OA
ENDBRANCH  13  19
ENDBRANCH   1  13
TORSDOF 2
