REMARK  Name = ZINC21993871
REMARK  5 active torsions:
REMARK  status: ('A' for Active; 'I' for Inactive)
REMARK    1  A    between atoms: C_1  and  C_2
REMARK    2  A    between atoms: C_9  and  O_21
REMARK    3  A    between atoms: C_11  and  O_13
REMARK    4  A    between atoms: O_13  and  C_14
REMARK    5  A    between atoms: O_21  and  C_22
REMARK                            x       y       z     vdW  Elec       q    Type
REMARK                         _______ _______ _______ _____ _____    ______ ____
ROOT
ATOM      1  C   UNL     1      -1.301  -2.617   0.950  0.00  0.00    +0.045 C 
ATOM      2  C   UNL     1      -0.817  -3.295  -0.306  0.00  0.00    -0.030 A 
ATOM      3  C   UNL     1      -1.082  -4.609  -0.528  0.00  0.00    +0.096 A 
ATOM      4  C   UNL     1      -0.622  -5.228  -1.707  0.00  0.00    +0.337 A 
ATOM      5  O   UNL     1      -0.863  -6.407  -1.898  0.00  0.00    -0.245 OA
ATOM      6  O   UNL     1       0.078  -4.539  -2.624  0.00  0.00    -0.422 OA
ATOM      7  C   UNL     1       0.362  -3.230  -2.442  0.00  0.00    +0.146 A 
ATOM      8  C   UNL     1      -0.078  -2.572  -1.277  0.00  0.00    +0.062 A 
ATOM      9  C   UNL     1       0.216  -1.210  -1.089  0.00  0.00    +0.134 A 
ATOM     10  C   UNL     1       0.932  -0.527  -2.052  0.00  0.00    +0.092 A 
ATOM     11  C   UNL     1       1.369  -1.185  -3.198  0.00  0.00    +0.129 A 
ATOM     12  C   UNL     1       1.083  -2.527  -3.393  0.00  0.00    +0.092 A 
ENDROOT
BRANCH   9  13
ATOM     13  O   UNL     1      -0.205  -0.570   0.031  0.00  0.00    -0.494 OA
ATOM     14  C   UNL     1       0.133   0.814   0.152  0.00  0.00    +0.277 C 
ENDBRANCH   9  13
BRANCH  11  15
ATOM     15  O   UNL     1       2.076  -0.504  -4.135  0.00  0.00    -0.481 OA
BRANCH  15  16
ATOM     16  C   UNL     1       2.596  -1.260  -5.231  0.00  0.00    +0.239 C 
ATOM     17  C   UNL     1       3.816  -0.536  -5.839  0.00  0.00    +0.053 C 
ATOM     18  C   UNL     1       3.671  -0.788  -7.362  0.00  0.00    +0.012 C 
ATOM     19  C   UNL     1       2.138  -0.709  -7.566  0.00  0.00    +0.078 C 
ATOM     20  C   UNL     1       1.556  -1.365  -6.327  0.00  0.00    +0.173 C 
ATOM     21  O   UNL     1       0.467  -1.877  -6.233  0.00  0.00    -0.293 OA
ENDBRANCH  15  16
ENDBRANCH  11  15
TORSDOF 3
