REMARK  Name = ZINC59293275
REMARK  9 active torsions:
REMARK  status: ('A' for Active; 'I' for Inactive)
REMARK    1  A    between atoms: C_1  and  C_2
REMARK    2  A    between atoms: C_2  and  O_3
REMARK    3  A    between atoms: O_3  and  C_4
REMARK    4  A    between atoms: C_4  and  C_6
REMARK    5  A    between atoms: C_7  and  N_27
REMARK    6  A    between atoms: C_9  and  C_26
REMARK    7  A    between atoms: C_10  and  C_23
REMARK    8  A    between atoms: N_18  and  C_21
REMARK    9  A    between atoms: C_23  and  C_25
REMARK                            x       y       z     vdW  Elec       q    Type
REMARK                         _______ _______ _______ _____ _____    ______ ____
ROOT
ATOM      1  C   UNL     1       1.651  -2.370  -2.322  0.00  0.00    +0.117 C 
ATOM      2  C   UNL     1       1.610  -3.699  -2.605  0.00  0.00    +0.195 C 
ATOM      3  O   UNL     1       1.997  -4.173  -3.802  0.00  0.00    -0.446 OA
ATOM      4  C   UNL     1       2.757  -3.422  -4.613  0.00  0.00    +0.112 C 
ATOM      5  C   UNL     1       2.866  -2.091  -4.453  0.00  0.00    +0.057 C 
ATOM      6  C   UNL     1       2.131  -1.385  -3.349  0.00  0.00    +0.141 C 
ATOM      7  C   UNL     1       0.973  -0.592  -3.901  0.00  0.00    -0.001 A 
ATOM      8  C   UNL     1      -0.163  -0.944  -4.594  0.00  0.00    +0.022 A 
ATOM      9  C   UNL     1      -1.069   0.031  -4.978  0.00  0.00    +0.018 A 
ATOM     10  C   UNL     1      -0.828   1.356  -4.663  0.00  0.00    +0.017 A 
ATOM     11  C   UNL     1       0.310   1.712  -3.970  0.00  0.00    +0.025 A 
ATOM     12  C   UNL     1       1.226   0.737  -3.580  0.00  0.00    +0.041 A 
ATOM     13  N   UNL     1       2.431   0.844  -2.882  0.00  0.00    -0.273 N 
ATOM     14  C   UNL     1       3.024  -0.350  -2.705  0.00  0.00    +0.240 C 
ATOM     15  O   UNL     1       4.075  -0.557  -2.137  0.00  0.00    -0.274 OA
ATOM     16  C   UNL     1       2.985   2.111  -2.399  0.00  0.00    +0.138 C 
ATOM     17 BR   UNL     1      -2.630  -0.449  -5.931  0.00  0.00    -0.050 Br
ATOM     18  C   UNL     1       3.510  -4.089  -5.735  0.00  0.00    +0.086 C 
ENDROOT
BRANCH   5  19
ATOM     19  C   UNL     1       3.675  -1.350  -5.334  0.00  0.00    +0.161 C 
ATOM     20  O   UNL     1       4.880  -1.509  -5.331  0.00  0.00    -0.293 OA
ATOM     21  C   UNL     1       3.048  -0.360  -6.281  0.00  0.00    +0.091 C 
ENDBRANCH   5  19
BRANCH   2  22
ATOM     22  N   UNL     1       1.164  -4.574  -1.651  0.00  0.00    -0.329 N 
ATOM     23  H   UNL     1       0.799  -4.237  -0.817  0.00  0.00    +0.145 HD
ATOM     24  H   UNL     1       1.214  -5.529  -1.808  0.00  0.00    +0.145 HD
ENDBRANCH   2  22
BRANCH   1  25
ATOM     25  C   UNL     1       1.236  -1.914  -1.061  0.00  0.00    +0.342 C 
ATOM     26  O   UNL     1       0.130  -1.421  -0.925  0.00  0.00    -0.245 OA
BRANCH  25  27
ATOM     27  O   UNL     1       2.063  -2.021   0.002  0.00  0.00    -0.462 OA
BRANCH  27  29
ATOM     28  C   UNL     1       2.643  -1.742   2.331  0.00  0.00    +0.048 C 
ATOM     29  C   UNL     1       1.575  -1.537   1.255  0.00  0.00    +0.229 C 
ENDBRANCH  27  29
ENDBRANCH  25  27
ENDBRANCH   1  25
TORSDOF 5
