REMARK  Name = ZINC14658064
REMARK  8 active torsions:
REMARK  status: ('A' for Active; 'I' for Inactive)
REMARK    1  A    between atoms: C_1  and  C_2
REMARK    2  A    between atoms: C_5  and  N_22
REMARK    3  A    between atoms: C_7  and  N_8
REMARK    4  A    between atoms: C_9  and  C_11
REMARK    5  A    between atoms: C_14  and  O_18
REMARK    6  A    between atoms: O_18  and  C_19
REMARK    7  A    between atoms: C_19  and  C_20
REMARK    8  A    between atoms: C_19  and  C_21
REMARK                            x       y       z     vdW  Elec       q    Type
REMARK                         _______ _______ _______ _____ _____    ______ ____
ROOT
ATOM      1  N   UNL     1      -0.233  -4.184  -0.905  0.00  0.00    -0.281 N 
ATOM      2  C   UNL     1       0.696  -3.220  -1.063  0.00  0.00    +0.248 C 
ATOM      3  O   UNL     1       1.820  -3.511  -1.423  0.00  0.00    -0.270 OA
ATOM      4  H   UNL     1      -1.146  -3.946  -0.680  0.00  0.00    +0.155 HD
ENDROOT
BRANCH   1  11
ATOM      5  C   UNL     1      -1.619  -6.131   0.639  0.00  0.00    +0.045 C 
ATOM      6  C   UNL     1      -0.530  -6.511  -0.332  0.00  0.00    -0.029 A 
ATOM      7  C   UNL     1      -0.183  -7.837  -0.496  0.00  0.00    +0.007 A 
ATOM      8  C   UNL     1       0.819  -8.186  -1.383  0.00  0.00    +0.033 A 
ATOM      9  C   UNL     1       1.473  -7.209  -2.112  0.00  0.00    +0.128 A 
ATOM     10  C   UNL     1       1.127  -5.881  -1.956  0.00  0.00    +0.056 A 
ATOM     11  C   UNL     1       0.120  -5.527  -1.066  0.00  0.00    +0.039 A 
BRANCH   9  12
ATOM     12  N   UNL     1       2.546  -7.587  -3.059  0.00  0.00    +0.056 N 
ATOM     13  O   UNL     1       3.122  -6.727  -3.701  0.00  0.00    -0.126 OA
ATOM     14  O   UNL     1       2.852  -8.758  -3.197  0.00  0.00    -0.126 OA
ENDBRANCH   9  12
ENDBRANCH   1  11
BRANCH   2  15
ATOM     15  C   UNL     1       0.348  -1.810  -0.798  0.00  0.00    +0.038 A 
ATOM     16  C   UNL     1       1.310  -0.809  -0.961  0.00  0.00    +0.017 A 
ATOM     17  C   UNL     1       0.982   0.505  -0.713  0.00  0.00    +0.047 A 
ATOM     18  C   UNL     1      -0.304   0.837  -0.301  0.00  0.00    +0.135 A 
ATOM     19  C   UNL     1      -1.262  -0.156  -0.132  0.00  0.00    +0.060 A 
ATOM     20  C   UNL     1      -0.943  -1.473  -0.384  0.00  0.00    +0.032 A 
ATOM     21 BR   UNL     1      -3.006   0.301   0.436  0.00  0.00    -0.046 Br
BRANCH  18  22
ATOM     22  O   UNL     1      -0.623   2.134  -0.058  0.00  0.00    -0.488 OA
BRANCH  22  23
ATOM     23  C   UNL     1       0.438   3.088  -0.134  0.00  0.00    +0.167 C 
ATOM     24  C   UNL     1       0.631   3.521  -1.589  0.00  0.00    +0.051 C 
ATOM     25  C   UNL     1       0.088   4.309   0.719  0.00  0.00    +0.051 C 
ENDBRANCH  22  23
ENDBRANCH  18  22
ENDBRANCH   2  15
TORSDOF 5
