REMARK  Name = ZINC09337500
REMARK  9 active torsions:
REMARK  status: ('A' for Active; 'I' for Inactive)
REMARK    1  A    between atoms: C_1  and  C_2
REMARK    2  A    between atoms: C_4  and  C_35
REMARK    3  A    between atoms: C_9  and  C_10
REMARK    4  A    between atoms: C_10  and  N_11
REMARK    5  A    between atoms: C_12  and  C_14
REMARK    6  A    between atoms: C_14  and  C_15
REMARK    7  A    between atoms: C_15  and  C_16
REMARK    8  A    between atoms: N_19  and  C_28
REMARK    9  A    between atoms: C_28  and  C_29
REMARK                            x       y       z     vdW  Elec       q    Type
REMARK                         _______ _______ _______ _____ _____    ______ ____
ROOT
ATOM      1  C   UNL     1       3.499   1.787  -0.021  0.00  0.00    +0.107 A 
ATOM      2  C   UNL     1       3.510   3.253  -0.015  0.00  0.00    +0.273 A 
ATOM      3  O   UNL     1       4.565   3.862  -0.022  0.00  0.00    -0.266 OA
ATOM      4  N   UNL     1       2.336   3.921  -0.000  0.00  0.00    -0.301 N 
ATOM      5  C   UNL     1       1.158   3.201   0.008  0.00  0.00    +0.071 A 
ATOM      6  C   UNL     1      -0.068   3.860   0.024  0.00  0.00    +0.029 A 
ATOM      7  C   UNL     1      -1.238   3.132   0.031  0.00  0.00    +0.022 A 
ATOM      8  C   UNL     1      -1.204   1.742   0.017  0.00  0.00    +0.043 A 
ATOM      9  C   UNL     1      -0.013   1.076   0.008  0.00  0.00    +0.049 A 
ATOM     10  C   UNL     1       1.193   1.794   0.000  0.00  0.00    +0.089 A 
ATOM     11  N   UNL     1       2.369   1.139  -0.014  0.00  0.00    -0.245 NA
ATOM     12 CL   UNL     1      -2.690   0.846   0.019  0.00  0.00    -0.083 Cl
ENDROOT
BRANCH   1  13
ATOM     13  C   UNL     1       4.800   1.026  -0.037  0.00  0.00    +0.070 C 
BRANCH  13  14
ATOM     14  C   UNL     1       4.513  -0.476  -0.042  0.00  0.00    +0.102 C 
BRANCH  14  16
ATOM     15  N   UNL     1       5.807  -2.585  -0.065  0.00  0.00    -0.311 N 
ATOM     16  C   UNL     1       5.814  -1.237  -0.058  0.00  0.00    +0.214 C 
ATOM     17  O   UNL     1       6.867  -0.636  -0.065  0.00  0.00    -0.276 OA
ATOM     18  H   UNL     1       4.964  -3.065  -0.060  0.00  0.00    +0.149 HD
BRANCH  15  19
ATOM     19  C   UNL     1       7.071  -3.324  -0.081  0.00  0.00    +0.145 C 
BRANCH  19  28
ATOM     20  C   UNL     1       6.976  -4.783  -2.571  0.00  0.00    +0.044 C 
ATOM     21  C   UNL     1       6.743  -5.493  -1.262  0.00  0.00    -0.039 A 
ATOM     22  C   UNL     1       6.481  -6.870  -1.240  0.00  0.00    +0.024 A 
ATOM     23  C   UNL     1       6.268  -7.499  -0.060  0.00  0.00    +0.016 A 
ATOM     24  N   UNL     1       6.309  -6.810   1.109  0.00  0.00    -0.326 N 
ATOM     25  H   UNL     1       6.154  -7.276   1.946  0.00  0.00    +0.169 HD
ATOM     26  C   UNL     1       6.562  -5.488   1.121  0.00  0.00    +0.254 A 
ATOM     27  O   UNL     1       6.596  -4.882   2.181  0.00  0.00    -0.268 OA
ATOM     28  C   UNL     1       6.788  -4.804  -0.086  0.00  0.00    +0.037 A 
ATOM     29  C   UNL     1       5.983  -8.978  -0.045  0.00  0.00    +0.063 C 
ENDBRANCH  19  28
ENDBRANCH  15  19
ENDBRANCH  14  16
ENDBRANCH  13  14
ENDBRANCH   1  13
BRANCH   4  30
ATOM     30  C   UNL     1       2.313   5.386   0.007  0.00  0.00    +0.160 C 
BRANCH  30  31
ATOM     31  C   UNL     1       2.291   5.895  -1.411  0.00  0.00    -0.028 A 
ATOM     32  C   UNL     1       3.478   6.153  -2.071  0.00  0.00    +0.005 A 
ATOM     33  C   UNL     1       3.459   6.615  -3.374  0.00  0.00    +0.000 A 
ATOM     34  C   UNL     1       2.252   6.830  -4.013  0.00  0.00    +0.000 A 
ATOM     35  C   UNL     1       1.065   6.577  -3.351  0.00  0.00    +0.000 A 
ATOM     36  C   UNL     1       1.085   6.110  -2.050  0.00  0.00    +0.005 A 
ENDBRANCH  30  31
ENDBRANCH   4  30
TORSDOF 7
