REMARK  Name = ZINC67426458
REMARK  9 active torsions:
REMARK  status: ('A' for Active; 'I' for Inactive)
REMARK    1  A    between atoms: C_1  and  C_2
REMARK    2  A    between atoms: C_2  and  C_4
REMARK    3  A    between atoms: C_2  and  N_14
REMARK    4  A    between atoms: C_4  and  O_5
REMARK    5  A    between atoms: O_5  and  C_6
REMARK    6  A    between atoms: C_15  and  C_17
REMARK    7  A    between atoms: N_19  and  C_20
REMARK    8  A    between atoms: C_25  and  C_26
REMARK    9  A    between atoms: C_26  and  C_27
REMARK                            x       y       z     vdW  Elec       q    Type
REMARK                         _______ _______ _______ _____ _____    ______ ____
ROOT
ATOM      1  N   UNL     1       0.712  -0.472   1.194  0.00  0.00    -0.302 N 
ATOM      2  C   UNL     1       2.055  -0.586   1.178  0.00  0.00    +0.300 C 
ATOM      3  O   UNL     1       2.679  -0.277   0.184  0.00  0.00    -0.265 OA
ATOM      4  H   UNL     1       0.214  -0.719   1.989  0.00  0.00    +0.150 HD
ENDROOT
BRANCH   2   5
ATOM      5  C   UNL     1       2.776  -1.091   2.385  0.00  0.00    +0.303 C 
ATOM      6  O   UNL     1       2.153  -1.400   3.379  0.00  0.00    -0.265 OA
ATOM      7  N   UNL     1       4.119  -1.205   2.369  0.00  0.00    -0.277 N 
ATOM      8  H   UNL     1       4.611  -1.035   1.550  0.00  0.00    +0.155 HD
BRANCH   7   9
ATOM      9  C   UNL     1       4.804  -1.567   3.531  0.00  0.00    +0.037 A 
ATOM     10  C   UNL     1       4.241  -1.318   4.777  0.00  0.00    +0.023 A 
ATOM     11  C   UNL     1       4.920  -1.677   5.924  0.00  0.00    +0.002 A 
ATOM     12  C   UNL     1       6.159  -2.285   5.835  0.00  0.00    +0.000 A 
ATOM     13  C   UNL     1       6.723  -2.534   4.597  0.00  0.00    +0.006 A 
ATOM     14  C   UNL     1       6.046  -2.183   3.445  0.00  0.00    -0.017 A 
BRANCH  14  15
ATOM     15  C   UNL     1       6.658  -2.461   2.096  0.00  0.00    +0.132 C 
BRANCH  15  16
ATOM     16  C   UNL     1       7.392  -1.236   1.615  0.00  0.00    +0.215 C 
ATOM     17  O   UNL     1       7.417  -0.236   2.300  0.00  0.00    -0.276 OA
ATOM     18  N   UNL     1       8.022  -1.253   0.424  0.00  0.00    -0.329 N 
ATOM     19  H   UNL     1       8.002  -2.053  -0.124  0.00  0.00    +0.145 HD
ATOM     20  H   UNL     1       8.495  -0.465   0.114  0.00  0.00    +0.145 HD
ENDBRANCH  15  16
ENDBRANCH  14  15
ENDBRANCH   7   9
ENDBRANCH   2   5
BRANCH   1  22
ATOM     21  C   UNL     1      -0.012   1.554   0.032  0.00  0.00    +0.031 C 
ATOM     22  C   UNL     1       0.005   0.024   0.011  0.00  0.00    +0.108 C 
BRANCH  22  23
ATOM     23  C   UNL     1      -1.432  -0.502   0.018  0.00  0.00    +0.251 C 
BRANCH  23  24
ATOM     24  O   UNL     1      -2.134   0.045   1.135  0.00  0.00    -0.487 OA
BRANCH  24  25
ATOM     25  C   UNL     1      -3.434  -0.325   1.289  0.00  0.00    +0.156 A 
ATOM     26  C   UNL     1      -4.018  -1.200   0.386  0.00  0.00    +0.051 A 
ATOM     27  C   UNL     1      -5.338  -1.575   0.543  0.00  0.00    +0.042 A 
ATOM     28  C   UNL     1      -6.080  -1.077   1.601  0.00  0.00    +0.126 A 
ATOM     29  C   UNL     1      -5.500  -0.203   2.504  0.00  0.00    +0.080 A 
ATOM     30  C   UNL     1      -4.176   0.169   2.354  0.00  0.00    +0.168 A 
ATOM     31  F   UNL     1      -3.608   1.018   3.238  0.00  0.00    -0.202 F 
ATOM     32  F   UNL     1      -7.371  -1.445   1.751  0.00  0.00    -0.205 F 
ENDBRANCH  24  25
ENDBRANCH  23  24
ENDBRANCH  22  23
ENDBRANCH   1  22
TORSDOF 8
