REMARK  Name = ZINC48955008
REMARK  6 active torsions:
REMARK  status: ('A' for Active; 'I' for Inactive)
REMARK    1  A    between atoms: C_1  and  C_2
REMARK    2  A    between atoms: C_5  and  N_9
REMARK    3  A    between atoms: N_12  and  C_13
REMARK    4  A    between atoms: N_12  and  C_14
REMARK    5  A    between atoms: C_14  and  C_15
REMARK    6  A    between atoms: C_19  and  C_20
REMARK                            x       y       z     vdW  Elec       q    Type
REMARK                         _______ _______ _______ _____ _____    ______ ____
ROOT
ATOM      1  N   UNL     1       0.025  -4.154  -0.048  0.00  0.00    -0.268 N 
ATOM      2  C   UNL     1      -0.059  -4.837  -1.206  0.00  0.00    +0.307 C 
ATOM      3  O   UNL     1      -0.064  -4.239  -2.265  0.00  0.00    -0.252 OA
ATOM      4  N   UNL     1      -0.136  -6.182  -1.192  0.00  0.00    -0.284 N 
ATOM      5  C   UNL     1      -0.130  -6.902   0.084  0.00  0.00    +0.134 C 
ATOM      6  H   UNL     1       0.092  -4.632   0.794  0.00  0.00    +0.156 HD
ENDROOT
BRANCH   1  11
ATOM      7  C   UNL     1      -0.014   1.520  -0.091  0.00  0.00    +0.044 C 
ATOM      8  C   UNL     1      -0.004   0.014  -0.079  0.00  0.00    -0.049 A 
ATOM      9  C   UNL     1       0.605  -0.680  -1.108  0.00  0.00    +0.005 A 
ATOM     10  C   UNL     1       0.617  -2.062  -1.101  0.00  0.00    +0.025 A 
ATOM     11  C   UNL     1       0.015  -2.754  -0.058  0.00  0.00    +0.053 A 
ATOM     12  C   UNL     1      -0.596  -2.054   0.975  0.00  0.00    +0.062 A 
ATOM     13  C   UNL     1      -0.599  -0.672   0.964  0.00  0.00    +0.025 A 
ATOM     14 CL   UNL     1      -1.349  -2.914   2.281  0.00  0.00    -0.082 Cl
ENDBRANCH   1  11
BRANCH   4  15
ATOM     15  C   UNL     1      -0.227  -6.925  -2.451  0.00  0.00    +0.147 C 
BRANCH  15  16
ATOM     16  C   UNL     1       1.158  -7.156  -2.999  0.00  0.00    +0.010 A 
ATOM     17  C   UNL     1       2.379  -6.826  -2.368  0.00  0.00    +0.046 A 
ATOM     18  C   UNL     1       3.364  -7.205  -3.203  0.00  0.00    +0.195 A 
ATOM     19  O   UNL     1       2.806  -7.745  -4.299  0.00  0.00    -0.468 OA
ATOM     20  C   UNL     1       1.469  -7.723  -4.178  0.00  0.00    +0.106 A 
ATOM     21  C   UNL     1       0.484  -8.241  -5.194  0.00  0.00    +0.086 C 
ENDBRANCH  15  16
ENDBRANCH   4  15
TORSDOF 3
