REMARK  Name = ZINC30968136
REMARK  11 active torsions:
REMARK  status: ('A' for Active; 'I' for Inactive)
REMARK    1  A    between atoms: C_1  and  C_2
REMARK    2  A    between atoms: C_2  and  O_3
REMARK    3  A    between atoms: O_3  and  C_4
REMARK    4  A    between atoms: C_6  and  C_12
REMARK    5  A    between atoms: C_9  and  O_10
REMARK    6  A    between atoms: N_13  and  N_14
REMARK    7  A    between atoms: C_15  and  C_17
REMARK    8  A    between atoms: C_20  and  O_25
REMARK    9  A    between atoms: C_21  and  O_23
REMARK   10  A    between atoms: O_23  and  C_24
REMARK   11  A    between atoms: O_25  and  C_26
REMARK                            x       y       z     vdW  Elec       q    Type
REMARK                         _______ _______ _______ _____ _____    ______ ____
ROOT
ATOM      1  C   UNL     1      -1.261  -0.760   0.041  0.00  0.00    +0.138 C 
ATOM      2  N   UNL     1      -2.394  -0.132   0.121  0.00  0.00    -0.187 NA
ENDROOT
BRANCH   1   5
ATOM      3  C   UNL     1       2.377  -0.025   0.614  0.00  0.00    +0.163 A 
ATOM      4  C   UNL     1       1.221  -0.634   0.160  0.00  0.00    +0.059 A 
ATOM      5  C   UNL     1      -0.025  -0.116   0.522  0.00  0.00    -0.001 A 
ATOM      6  C   UNL     1      -0.098   1.013   1.341  0.00  0.00    +0.027 A 
ATOM      7  C   UNL     1       1.060   1.615   1.790  0.00  0.00    +0.059 A 
ATOM      8  C   UNL     1       2.297   1.101   1.430  0.00  0.00    +0.172 A 
ATOM      9  I   UNL     1       0.949   3.308   3.019  0.00  0.00    -0.040 I 
BRANCH   8  10
ATOM     10  O   UNL     1       3.435   1.697   1.875  0.00  0.00    -0.503 OA
ATOM     11  H   UNL     1       3.374   2.587   2.519  0.00  0.00    +0.292 HD
ENDBRANCH   8  10
BRANCH   3  12
ATOM     12  O   UNL     1       3.591  -0.527   0.263  0.00  0.00    -0.489 OA
BRANCH  12  14
ATOM     13  C   UNL     1       5.043  -2.097  -0.862  0.00  0.00    +0.048 C 
ATOM     14  C   UNL     1       3.598  -1.683  -0.577  0.00  0.00    +0.226 C 
ENDBRANCH  12  14
ENDBRANCH   3  12
ENDBRANCH   1   5
BRANCH   2  15
ATOM     15  N   UNL     1      -2.420   1.268   0.129  0.00  0.00    -0.203 N 
ATOM     16  C   UNL     1      -3.579   1.920   0.346  0.00  0.00    +0.263 C 
ATOM     17  O   UNL     1      -4.604   1.292   0.535  0.00  0.00    -0.268 OA
ATOM     18  H   UNL     1      -1.493   1.836  -0.042  0.00  0.00    +0.178 HD
BRANCH  16  19
ATOM     19  C   UNL     1      -3.606   3.395   0.354  0.00  0.00    +0.042 A 
ATOM     20  C   UNL     1      -2.429   4.118   0.143  0.00  0.00    +0.017 A 
ATOM     21  C   UNL     1      -2.457   5.496   0.146  0.00  0.00    +0.050 A 
ATOM     22  C   UNL     1      -3.651   6.169   0.369  0.00  0.00    +0.162 A 
ATOM     23  C   UNL     1      -4.828   5.454   0.586  0.00  0.00    +0.162 A 
ATOM     24  C   UNL     1      -4.808   4.072   0.579  0.00  0.00    +0.062 A 
BRANCH  23  25
ATOM     25  O   UNL     1      -5.996   6.116   0.804  0.00  0.00    -0.491 OA
ATOM     26  C   UNL     1      -7.163   5.320   1.018  0.00  0.00    +0.277 C 
ENDBRANCH  23  25
BRANCH  22  27
ATOM     27  O   UNL     1      -3.672   7.527   0.376  0.00  0.00    -0.491 OA
ATOM     28  C   UNL     1      -2.431   8.196   0.147  0.00  0.00    +0.277 C 
ENDBRANCH  22  27
ENDBRANCH  16  19
ENDBRANCH   2  15
TORSDOF 8
