REMARK  Name = ZINC21783805
REMARK  9 active torsions:
REMARK  status: ('A' for Active; 'I' for Inactive)
REMARK    1  A    between atoms: C_1  and  O_2
REMARK    2  A    between atoms: O_2  and  C_3
REMARK    3  A    between atoms: C_6  and  C_13
REMARK    4  A    between atoms: C_7  and  O_11
REMARK    5  A    between atoms: C_8  and  O_9
REMARK    6  A    between atoms: O_9  and  C_10
REMARK    7  A    between atoms: O_11  and  C_12
REMARK    8  A    between atoms: N_18  and  S_21
REMARK    9  A    between atoms: S_21  and  C_24
REMARK                            x       y       z     vdW  Elec       q    Type
REMARK                         _______ _______ _______ _____ _____    ______ ____
ROOT
ATOM      1  C   UNL     1      -0.666   0.709   2.439  0.00  0.00    +0.250 C 
ATOM      2  O   UNL     1       0.142  -0.179   2.634  0.00  0.00    -0.270 OA
ATOM      3  N   UNL     1      -0.800   1.240   1.208  0.00  0.00    -0.295 N 
ATOM      4  C   UNL     1       0.093   0.830   0.115  0.00  0.00    +0.125 C 
ATOM      5  C   UNL     1      -0.759   0.338  -1.061  0.00  0.00    +0.128 C 
ATOM      6  N   UNL     1      -1.802   1.337  -1.336  0.00  0.00    -0.174 NA
ATOM      7  C   UNL     1      -2.698   1.744  -0.244  0.00  0.00    +0.128 C 
ATOM      8  C   UNL     1      -1.845   2.236   0.932  0.00  0.00    +0.125 C 
ENDROOT
BRANCH   1  12
ATOM      9  C   UNL     1      -3.069   2.140   5.640  0.00  0.00    +0.165 A 
ATOM     10  C   UNL     1      -2.557   3.028   4.700  0.00  0.00    +0.050 A 
ATOM     11  C   UNL     1      -1.774   2.569   3.666  0.00  0.00    +0.020 A 
ATOM     12  C   UNL     1      -1.499   1.202   3.549  0.00  0.00    +0.082 A 
ATOM     13  C   UNL     1      -2.015   0.305   4.495  0.00  0.00    +0.177 A 
ATOM     14  C   UNL     1      -2.799   0.780   5.538  0.00  0.00    +0.204 A 
BRANCH   9  16
ATOM     15  C   UNL     1      -4.075   4.010   6.707  0.00  0.00    +0.277 C 
ATOM     16  O   UNL     1      -3.836   2.602   6.661  0.00  0.00    -0.491 OA
ENDBRANCH   9  16
BRANCH  14  17
ATOM     17  O   UNL     1      -3.302  -0.086   6.460  0.00  0.00    -0.488 OA
ATOM     18  C   UNL     1      -2.517  -0.314   7.632  0.00  0.00    +0.277 C 
ENDBRANCH  14  17
BRANCH  13  19
ATOM     19  O   UNL     1      -1.749  -1.022   4.392  0.00  0.00    -0.491 OA
ATOM     20  C   UNL     1      -2.711  -1.825   3.706  0.00  0.00    +0.277 C 
ENDBRANCH  13  19
ENDBRANCH   1  12
BRANCH   6  21
ATOM     21  S   UNL     1      -1.963   1.992  -2.848  0.00  0.00    +0.061 S 
ATOM     22  O   UNL     1      -2.607   3.248  -2.680  0.00  0.00    -0.153 OA
ATOM     23  O   UNL     1      -0.699   1.864  -3.484  0.00  0.00    -0.153 OA
BRANCH  21  24
ATOM     24  C   UNL     1      -3.083   0.968  -3.743  0.00  0.00    +0.107 A 
ATOM     25  C   UNL     1      -2.604  -0.096  -4.485  0.00  0.00    +0.031 A 
ATOM     26  C   UNL     1      -3.482  -0.904  -5.183  0.00  0.00    +0.042 A 
ATOM     27  C   UNL     1      -4.840  -0.642  -5.149  0.00  0.00    +0.142 A 
ATOM     28  C   UNL     1      -5.319   0.428  -4.410  0.00  0.00    +0.078 A 
ATOM     29  C   UNL     1      -4.440   1.231  -3.707  0.00  0.00    +0.051 A 
ATOM     30 CL   UNL     1      -7.023   0.759  -4.365  0.00  0.00    -0.081 Cl
ATOM     31  F   UNL     1      -5.698  -1.428  -5.835  0.00  0.00    -0.204 F 
ENDBRANCH  21  24
ENDBRANCH   6  21
TORSDOF 6
