REMARK  Name = ZINC05277435
REMARK  7 active torsions:
REMARK  status: ('A' for Active; 'I' for Inactive)
REMARK    1  A    between atoms: C_1  and  O_2
REMARK    2  A    between atoms: O_2  and  C_3
REMARK    3  A    between atoms: C_5  and  N_12
REMARK    4  A    between atoms: C_6  and  O_10
REMARK    5  A    between atoms: O_10  and  C_11
REMARK    6  A    between atoms: N_12  and  S_13
REMARK    7  A    between atoms: S_13  and  C_16
REMARK                            x       y       z     vdW  Elec       q    Type
REMARK                         _______ _______ _______ _____ _____    ______ ____
ROOT
ATOM      1  S   UNL     1       1.186   7.910   0.074  0.00  0.00    +0.072 S 
ATOM      2  O   UNL     1       2.191   8.412  -0.796  0.00  0.00    -0.150 OA
ATOM      3  O   UNL     1      -0.176   8.302  -0.029  0.00  0.00    -0.150 OA
ENDROOT
BRANCH   1   4
ATOM      4  C   UNL     1       1.218   6.155  -0.078  0.00  0.00    +0.109 A 
ATOM      5  C   UNL     1       2.369   5.520  -0.507  0.00  0.00    +0.030 A 
ATOM      6  C   UNL     1       2.398   4.145  -0.628  0.00  0.00    +0.025 A 
ATOM      7  C   UNL     1       1.268   3.399  -0.318  0.00  0.00    +0.037 A 
ATOM      8  C   UNL     1       0.114   4.040   0.113  0.00  0.00    -0.024 A 
ATOM      9  C   UNL     1       0.091   5.415   0.231  0.00  0.00    +0.034 A 
ATOM     10  C   UNL     1      -1.111   3.230   0.450  0.00  0.00    +0.046 C 
ATOM     11  C   UNL     1      -1.189   2.013  -0.477  0.00  0.00    +0.101 C 
ATOM     12  C   UNL     1       0.142   1.309  -0.504  0.00  0.00    +0.218 C 
ATOM     13  O   UNL     1       0.178   0.100  -0.592  0.00  0.00    -0.275 OA
ATOM     14  N   UNL     1       1.290   2.006  -0.438  0.00  0.00    -0.285 N 
ATOM     15  H   UNL     1       2.140   1.540  -0.473  0.00  0.00    +0.155 HD
ENDBRANCH   1   4
BRANCH   1  16
ATOM     16  N   UNL     1       1.669   8.277   1.615  0.00  0.00    -0.213 N 
ATOM     17  H   UNL     1       1.070   8.754   2.210  0.00  0.00    +0.174 HD
BRANCH  16  20
ATOM     18  C   UNL     1       5.276   7.543   1.627  0.00  0.00    +0.140 A 
ATOM     19  C   UNL     1       4.016   7.913   1.183  0.00  0.00    +0.075 A 
ATOM     20  C   UNL     1       2.941   7.897   2.059  0.00  0.00    +0.093 A 
ATOM     21  C   UNL     1       3.128   7.497   3.381  0.00  0.00    +0.144 A 
ATOM     22  C   UNL     1       4.387   7.122   3.818  0.00  0.00    +0.071 A 
ATOM     23  C   UNL     1       5.460   7.144   2.944  0.00  0.00    +0.086 A 
ATOM     24 CL   UNL     1       7.037   6.673   3.495  0.00  0.00    -0.080 Cl
BRANCH  18  26
ATOM     25  C   UNL     1       6.071   7.984  -0.570  0.00  0.00    +0.277 C 
ATOM     26  O   UNL     1       6.332   7.564   0.770  0.00  0.00    -0.494 OA
ENDBRANCH  18  26
BRANCH  21  27
ATOM     27  O   UNL     1       2.074   7.475   4.241  0.00  0.00    -0.493 OA
ATOM     28  C   UNL     1       2.339   7.053   5.581  0.00  0.00    +0.277 C 
ENDBRANCH  21  27
ENDBRANCH  16  20
ENDBRANCH   1  16
TORSDOF 5
