REMARK  Name = ZINC58943419
REMARK  9 active torsions:
REMARK  status: ('A' for Active; 'I' for Inactive)
REMARK    1  A    between atoms: C_1  and  C_2
REMARK    2  A    between atoms: C_5  and  N_9
REMARK    3  A    between atoms: C_6  and  C_8
REMARK    4  A    between atoms: C_10  and  C_12
REMARK    5  A    between atoms: N_17  and  C_27
REMARK    6  A    between atoms: N_19  and  C_20
REMARK    7  A    between atoms: C_27  and  C_28
REMARK    8  A    between atoms: C_28  and  O_30
REMARK    9  A    between atoms: O_30  and  C_31
REMARK                            x       y       z     vdW  Elec       q    Type
REMARK                         _______ _______ _______ _____ _____    ______ ____
ROOT
ATOM      1  C   UNL     1      -0.134  -6.343  -1.187  0.00  0.00    +0.149 C 
ATOM      2  C   UNL     1       0.584  -6.906  -2.415  0.00  0.00    +0.120 C 
ATOM      3  C   UNL     1       0.351  -8.367  -2.591  0.00  0.00    +0.223 C 
ATOM      4  O   UNL     1       1.233  -8.975  -3.159  0.00  0.00    -0.275 OA
ATOM      5  N   UNL     1      -0.690  -9.090  -2.207  0.00  0.00    -0.240 N 
ATOM      6  C   UNL     1      -1.725  -8.611  -1.425  0.00  0.00    +0.164 C 
ATOM      7  N   UNL     1      -2.556  -9.425  -0.818  0.00  0.00    -0.226 NA
ATOM      8  S   UNL     1      -1.882  -6.852  -1.275  0.00  0.00    -0.077 S 
ENDROOT
BRANCH   7   9
ATOM      9  C   UNL     1      -3.571  -8.919  -0.050  0.00  0.00    +0.067 A 
ATOM     10  C   UNL     1      -3.322  -7.875   0.843  0.00  0.00    +0.028 A 
ATOM     11  C   UNL     1      -4.350  -7.370   1.612  0.00  0.00    +0.002 A 
ATOM     12  C   UNL     1      -5.625  -7.897   1.502  0.00  0.00    +0.000 A 
ATOM     13  C   UNL     1      -5.878  -8.932   0.619  0.00  0.00    +0.002 A 
ATOM     14  C   UNL     1      -4.861  -9.442  -0.161  0.00  0.00    +0.028 A 
ENDBRANCH   7   9
BRANCH   1  16
ATOM     15  N   UNL     1       0.059  -4.170  -0.021  0.00  0.00    -0.284 N 
ATOM     16  C   UNL     1      -0.040  -4.839  -1.187  0.00  0.00    +0.231 C 
ATOM     17  O   UNL     1      -0.054  -4.230  -2.236  0.00  0.00    -0.274 OA
ATOM     18  H   UNL     1       0.135  -4.658   0.814  0.00  0.00    +0.155 HD
BRANCH  15  23
ATOM     19  C   UNL     1       0.025   1.503   0.005  0.00  0.00    +0.044 C 
ATOM     20  C   UNL     1       0.034  -0.004  -0.002  0.00  0.00    -0.050 A 
ATOM     21  C   UNL     1       0.632  -0.685  -1.046  0.00  0.00    +0.005 A 
ATOM     22  C   UNL     1       0.641  -2.066  -1.055  0.00  0.00    +0.024 A 
ATOM     23  C   UNL     1       0.051  -2.771  -0.014  0.00  0.00    +0.036 A 
ATOM     24  C   UNL     1      -0.548  -2.083   1.033  0.00  0.00    -0.029 A 
ATOM     25  C   UNL     1      -0.550  -0.702   1.039  0.00  0.00    +0.008 A 
ATOM     26  C   UNL     1      -1.190  -2.843   2.165  0.00  0.00    +0.045 C 
ENDBRANCH  15  23
ENDBRANCH   1  16
BRANCH   5  27
ATOM     27  C   UNL     1      -0.749 -10.489  -2.640  0.00  0.00    +0.236 C 
BRANCH  27  28
ATOM     28  C   UNL     1      -0.066 -11.360  -1.617  0.00  0.00    +0.325 C 
ATOM     29  O   UNL     1       0.421 -10.864  -0.629  0.00  0.00    -0.249 OA
BRANCH  28  30
ATOM     30  O   UNL     1       0.002 -12.688  -1.805  0.00  0.00    -0.467 OA
ATOM     31  C   UNL     1       0.664 -13.452  -0.795  0.00  0.00    +0.280 C 
ENDBRANCH  28  30
ENDBRANCH  27  28
ENDBRANCH   5  27
TORSDOF 6
