REMARK  Name = ZINC09056905
REMARK  6 active torsions:
REMARK  status: ('A' for Active; 'I' for Inactive)
REMARK    1  A    between atoms: C_6  and  C_7
REMARK    2  A    between atoms: C_10  and  C_19
REMARK    3  A    between atoms: C_13  and  C_15
REMARK    4  A    between atoms: C_15  and  C_16
REMARK    5  A    between atoms: C_16  and  C_17
REMARK    6  A    between atoms: C_22  and  O_25
REMARK                            x       y       z     vdW  Elec       q    Type
REMARK                         _______ _______ _______ _____ _____    ______ ____
ROOT
ATOM      1  C   UNL     1       1.503  -0.355  -0.014  0.00  0.00    +0.137 C 
ATOM      2  C   UNL     1       0.002  -0.004   0.002  0.00  0.00    +0.087 C 
ATOM      3  C   UNL     1      -0.018   1.508   0.010  0.00  0.00    +0.069 C 
ATOM      4  N   UNL     1       1.190   1.955   0.001  0.00  0.00    -0.181 NA
ATOM      5  N   UNL     1       2.165   0.959  -0.013  0.00  0.00    -0.185 N 
ATOM      6  C   UNL     1       3.497   1.167  -0.025  0.00  0.00    +0.236 C 
ATOM      7  O   UNL     1       4.257   0.222  -0.038  0.00  0.00    -0.274 OA
ENDROOT
BRANCH   1  13
ATOM      8  C   UNL     1       2.100  -0.481   2.413  0.00  0.00    +0.006 A 
ATOM      9  C   UNL     1       2.438  -1.200   3.545  0.00  0.00    +0.015 A 
ATOM     10  C   UNL     1       2.566  -2.575   3.477  0.00  0.00    +0.018 A 
ATOM     11  C   UNL     1       2.349  -3.232   2.279  0.00  0.00    +0.015 A 
ATOM     12  C   UNL     1       2.005  -2.513   1.150  0.00  0.00    +0.006 A 
ATOM     13  C   UNL     1       1.878  -1.138   1.218  0.00  0.00    -0.025 A 
ATOM     14 BR   UNL     1       3.037  -3.558   5.023  0.00  0.00    -0.050 Br
ENDBRANCH   1  13
BRANCH   3  15
ATOM     15  C   UNL     1      -1.234   2.342   0.021  0.00  0.00    -0.002 A 
ATOM     16  C   UNL     1      -2.496   1.742   0.018  0.00  0.00    +0.013 A 
ATOM     17  C   UNL     1      -3.629   2.526   0.033  0.00  0.00    +0.046 A 
ATOM     18  C   UNL     1      -3.519   3.910   0.040  0.00  0.00    +0.117 A 
ATOM     19  C   UNL     1      -2.266   4.511   0.038  0.00  0.00    +0.046 A 
ATOM     20  C   UNL     1      -1.127   3.735   0.028  0.00  0.00    +0.013 A 
BRANCH  18  21
ATOM     21  O   UNL     1      -4.639   4.679   0.050  0.00  0.00    -0.507 OA
ATOM     22  H   UNL     1      -4.967   4.906  -0.831  0.00  0.00    +0.292 HD
ENDBRANCH  18  21
ENDBRANCH   3  15
BRANCH   6  23
ATOM     23  C   UNL     1       4.040   2.572  -0.023  0.00  0.00    +0.109 C 
BRANCH  23  24
ATOM     24  C   UNL     1       5.570   2.527  -0.038  0.00  0.00    +0.134 C 
BRANCH  24  25
ATOM     25  C   UNL     1       6.114   3.932  -0.036  0.00  0.00    +0.356 C 
ATOM     26  O   UNL     1       5.356   4.873  -0.023  0.00  0.00    -0.246 OA
ATOM     27  O   UNL     1       7.440   4.139  -0.048  0.00  0.00    -0.246 OA
ENDBRANCH  24  25
ENDBRANCH  23  24
ENDBRANCH   6  23
TORSDOF 6
