REMARK  Name = ZINC63302920
REMARK  6 active torsions:
REMARK  status: ('A' for Active; 'I' for Inactive)
REMARK    1  A    between atoms: C_1  and  C_2
REMARK    2  A    between atoms: C_2  and  C_26
REMARK    3  A    between atoms: C_9  and  N_15
REMARK    4  A    between atoms: C_11  and  C_13
REMARK    5  A    between atoms: N_15  and  C_16
REMARK    6  A    between atoms: C_16  and  C_17
REMARK                            x       y       z     vdW  Elec       q    Type
REMARK                         _______ _______ _______ _____ _____    ______ ____
ROOT
ATOM      1  C   UNL     1      -0.019   1.526   0.010  0.00  0.00    +0.041 C 
ATOM      2  C   UNL     1       0.002  -0.004   0.002  0.00  0.00    +0.068 C 
ATOM      3  C   UNL     1      -1.434  -0.532   0.005  0.00  0.00    +0.067 C 
ATOM      4  C   UNL     1      -2.053  -0.236   1.370  0.00  0.00    -0.036 C 
ATOM      5  C   UNL     1      -1.268   0.042   2.407  0.00  0.00    +0.013 C 
ATOM      6  C   UNL     1       0.232   0.120   2.381  0.00  0.00    +0.202 C 
ATOM      7  O   UNL     1       0.694  -0.477   1.161  0.00  0.00    -0.369 OA
ATOM      8  S   UNL     1      -2.320   0.283   3.816  0.00  0.00    -0.107 S 
ATOM      9  C   UNL     1      -3.882  -0.384   3.102  0.00  0.00    +0.138 C 
ATOM     10  C   UNL     1      -3.540  -0.228   1.599  0.00  0.00    +0.146 C 
ATOM     11  C   UNL     1       0.721  -0.496  -1.256  0.00  0.00    +0.041 C 
ENDROOT
BRANCH  10  12
ATOM     12  C   UNL     1      -4.096   1.044   1.108  0.00  0.00    +0.073 C 
ATOM     13  N   UNL     1      -4.524   2.025   0.729  0.00  0.00    -0.196 NA
ENDBRANCH  10  12
BRANCH   9  14
ATOM     14  N   UNL     1      -5.041   0.436   3.480  0.00  0.00    -0.299 NA
ATOM     15  H   UNL     1      -4.749   1.345   3.808  0.00  0.00    +0.123 HD
BRANCH  14  16
ATOM     16  C   UNL     1      -5.863  -0.248   4.487  0.00  0.00    +0.115 C 
BRANCH  16  17
ATOM     17  C   UNL     1      -7.040   0.622   4.849  0.00  0.00    -0.028 C 
ATOM     18  C   UNL     1      -8.285   0.565   4.325  0.00  0.00    +0.000 A 
ATOM     19  C   UNL     1      -8.894  -0.291   3.300  0.00  0.00    +0.010 A 
ATOM     20  C   UNL     1     -10.195  -0.106   2.979  0.00  0.00    +0.001 A 
ATOM     21  C   UNL     1     -10.974   0.880   3.599  0.00  0.00    +0.002 A 
ATOM     22  C   UNL     1     -10.486   1.704   4.551  0.00  0.00    +0.026 A 
ATOM     23  C   UNL     1      -9.130   1.598   4.966  0.00  0.00    +0.043 A 
ATOM     24  N   UNL     1      -8.433   2.268   5.852  0.00  0.00    -0.380 N 
ATOM     25  C   UNL     1      -7.068   1.731   5.877  0.00  0.00    +0.146 C 
ATOM     26  H   UNL     1      -8.766   2.995   6.401  0.00  0.00    +0.160 HD
ENDBRANCH  16  17
ENDBRANCH  14  16
ENDBRANCH   9  14
TORSDOF 4
