REMARK  Name = ZINC09336094
REMARK  3 active torsions:
REMARK  status: ('A' for Active; 'I' for Inactive)
REMARK    1  A    between atoms: N_6  and  C_7
REMARK    2  A    between atoms: C_7  and  C_8
REMARK    3  A    between atoms: N_10  and  C_11
REMARK                            x       y       z     vdW  Elec       q    Type
REMARK                         _______ _______ _______ _____ _____    ______ ____
ROOT
ATOM      1  C   UNL     1      -0.718   1.572   1.248  0.00  0.00    +0.231 C 
ATOM      2  O   UNL     1      -1.714   2.256   1.150  0.00  0.00    -0.274 OA
ATOM      3  N   UNL     1      -0.242   1.246   2.466  0.00  0.00    -0.308 N 
ATOM      4  H   UNL     1       0.555   0.699   2.544  0.00  0.00    +0.149 HD
ENDROOT
BRANCH   3   5
ATOM      5  C   UNL     1      -0.927   1.718   3.671  0.00  0.00    +0.035 C 
ATOM      6  C   UNL     1      -0.948   3.248   3.679  0.00  0.00    +0.029 C 
ATOM      7  C   UNL     1      -1.664   3.742   4.938  0.00  0.00    -0.008 C 
ATOM      8  C   UNL     1      -0.924   3.235   6.178  0.00  0.00    +0.007 C 
ATOM      9  C   UNL     1      -0.903   1.705   6.169  0.00  0.00    -0.008 C 
ATOM     10  C   UNL     1      -0.187   1.212   4.911  0.00  0.00    +0.029 C 
ATOM     11  C   UNL     1      -2.339   1.175   6.180  0.00  0.00    +0.007 C 
ATOM     12  C   UNL     1      -3.079   1.682   4.941  0.00  0.00    -0.008 C 
ATOM     13  C   UNL     1      -3.100   3.212   4.949  0.00  0.00    +0.007 C 
ATOM     14  C   UNL     1      -2.363   1.189   3.682  0.00  0.00    +0.029 C 
ENDBRANCH   3   5
BRANCH   1  15
ATOM     15  C   UNL     1      -0.013   1.086   0.008  0.00  0.00    +0.204 C 
BRANCH  15  21
ATOM     16  C   UNL     1      -1.774   0.769  -1.758  0.00  0.00    +0.120 C 
ATOM     17  C   UNL     1      -2.423   1.419  -2.998  0.00  0.00    +0.098 C 
ATOM     18  S   UNL     1      -1.458   2.973  -3.117  0.00  0.00    -0.066 S 
ATOM     19  C   UNL     1      -0.381   2.751  -1.716  0.00  0.00    +0.275 C 
ATOM     20  O   UNL     1       0.485   3.512  -1.328  0.00  0.00    -0.263 OA
ATOM     21  N   UNL     1      -0.721   1.571  -1.179  0.00  0.00    -0.283 N 
ENDBRANCH  15  21
ENDBRANCH   1  15
TORSDOF 3
