REMARK  Name = ZINC37606897
REMARK  5 active torsions:
REMARK  status: ('A' for Active; 'I' for Inactive)
REMARK    1  A    between atoms: C_1  and  C_2
REMARK    2  A    between atoms: C_2  and  C_3
REMARK    3  A    between atoms: C_3  and  C_5
REMARK    4  A    between atoms: C_3  and  N_6
REMARK    5  A    between atoms: N_10  and  C_13
REMARK                            x       y       z     vdW  Elec       q    Type
REMARK                         _______ _______ _______ _____ _____    ______ ____
ROOT
ATOM      1  N   UNL     1       2.129  -0.103  -1.218  0.00  0.00    -0.273 N 
ATOM      2  C   UNL     1       2.822   0.781  -2.170  0.00  0.00    +0.206 C 
ATOM      3  C   UNL     1       4.231   0.864  -1.619  0.00  0.00    +0.245 C 
ATOM      4  O   UNL     1       5.162   1.489  -2.080  0.00  0.00    -0.273 OA
ATOM      5  N   UNL     1       4.234   0.100  -0.508  0.00  0.00    -0.193 N 
ATOM      6  C   UNL     1       3.033  -0.445  -0.282  0.00  0.00    +0.316 C 
ATOM      7  O   UNL     1       2.787  -1.169   0.662  0.00  0.00    -0.252 OA
ENDROOT
BRANCH   5   8
ATOM      8  C   UNL     1       5.355  -0.096   0.310  0.00  0.00    +0.046 A 
ATOM      9  C   UNL     1       5.233  -0.803   1.499  0.00  0.00    +0.025 A 
ATOM     10  C   UNL     1       6.339  -0.995   2.304  0.00  0.00    +0.022 A 
ATOM     11  C   UNL     1       7.568  -0.483   1.926  0.00  0.00    +0.041 A 
ATOM     12  C   UNL     1       7.692   0.222   0.742  0.00  0.00    +0.022 A 
ATOM     13  C   UNL     1       6.590   0.411  -0.069  0.00  0.00    +0.025 A 
ATOM     14 CL   UNL     1       8.956  -0.725   2.940  0.00  0.00    -0.084 Cl
ENDBRANCH   5   8
BRANCH   1  15
ATOM     15  C   UNL     1       0.727  -0.524  -1.275  0.00  0.00    +0.075 C 
ATOM     16  C   UNL     1       0.656  -2.050  -1.370  0.00  0.00    +0.028 C 
BRANCH  15  18
ATOM     17  C   UNL     1      -0.035   1.472   0.020  0.00  0.00    +0.006 C 
ATOM     18  C   UNL     1       0.002  -0.057  -0.011  0.00  0.00    +0.019 C 
ENDBRANCH  15  18
ENDBRANCH   1  15
TORSDOF 3
