REMARK  Name = ZINC39561858
REMARK  9 active torsions:
REMARK  status: ('A' for Active; 'I' for Inactive)
REMARK    1  A    between atoms: C_1  and  C_2
REMARK    2  A    between atoms: C_11  and  O_15
REMARK    3  A    between atoms: O_15  and  C_16
REMARK    4  A    between atoms: C_16  and  C_17
REMARK    5  A    between atoms: C_17  and  O_19
REMARK    6  A    between atoms: O_19  and  C_20
REMARK    7  A    between atoms: C_20  and  C_21
REMARK    8  A    between atoms: C_20  and  C_22
REMARK    9  A    between atoms: C_20  and  C_23
REMARK                            x       y       z     vdW  Elec       q    Type
REMARK                         _______ _______ _______ _____ _____    ______ ____
ROOT
ATOM      1  C   UNL     1      -0.019   1.526   0.010  0.00  0.00    +0.008 C 
ATOM      2  C   UNL     1       0.002  -0.004   0.002  0.00  0.00    -0.009 C 
ATOM      3  C   UNL     1      -1.433  -0.538   0.021  0.00  0.00    +0.008 C 
ATOM      4  C   UNL     1      -1.430  -2.045  -0.236  0.00  0.00    +0.037 C 
ATOM      5  C   UNL     1      -0.471  -2.712   0.747  0.00  0.00    -0.023 A 
ATOM      6  C   UNL     1       0.475  -1.986   1.384  0.00  0.00    -0.004 A 
ATOM      7  S   UNL     1       1.345  -3.146   2.409  0.00  0.00    -0.073 S 
ATOM      8  C   UNL     1       0.442  -4.600   1.986  0.00  0.00    +0.116 A 
ATOM      9  C   UNL     1      -0.517  -4.133   1.051  0.00  0.00    +0.073 A 
ATOM     10  C   UNL     1      -1.415  -5.097   0.515  0.00  0.00    +0.227 A 
ATOM     11  N   UNL     1      -1.257  -6.343   0.952  0.00  0.00    -0.201 NA
ATOM     12  C   UNL     1      -0.340  -6.706   1.827  0.00  0.00    +0.226 A 
ATOM     13  N   UNL     1       0.529  -5.859   2.365  0.00  0.00    -0.228 NA
ATOM     14  C   UNL     1       0.737  -0.516   1.249  0.00  0.00    +0.046 C 
ENDROOT
BRANCH  10  15
ATOM     15  O   UNL     1      -2.372  -4.767  -0.385  0.00  0.00    -0.464 OA
BRANCH  15  16
ATOM     16  C   UNL     1      -3.215  -5.822  -0.853  0.00  0.00    +0.351 C 
BRANCH  16  17
ATOM     17  C   UNL     1      -4.210  -5.269  -1.840  0.00  0.00    +0.346 C 
ATOM     18  O   UNL     1      -4.199  -4.093  -2.115  0.00  0.00    -0.247 OA
BRANCH  17  19
ATOM     19  O   UNL     1      -5.110  -6.084  -2.413  0.00  0.00    -0.457 OA
BRANCH  19  20
ATOM     20  C   UNL     1      -6.023  -5.493  -3.340  0.00  0.00    +0.105 C 
ATOM     21  C   UNL     1      -5.242  -4.864  -4.495  0.00  0.00    +0.055 C 
ATOM     22  C   UNL     1      -6.964  -6.569  -3.885  0.00  0.00    +0.055 C 
ATOM     23  C   UNL     1      -6.842  -4.412  -2.629  0.00  0.00    +0.055 C 
ENDBRANCH  19  20
ENDBRANCH  17  19
ENDBRANCH  16  17
ENDBRANCH  15  16
ENDBRANCH  10  15
TORSDOF 5
