REMARK  Name = ZINC11975639
REMARK  9 active torsions:
REMARK  status: ('A' for Active; 'I' for Inactive)
REMARK    1  A    between atoms: C_1  and  N_60
REMARK    2  A    between atoms: C_5  and  C_8
REMARK    3  A    between atoms: N_10  and  C_11
REMARK    4  A    between atoms: C_11  and  C_12
REMARK    5  A    between atoms: C_17  and  C_23
REMARK    6  A    between atoms: C_25  and  O_31
REMARK    7  A    between atoms: C_28  and  O_29
REMARK    8  A    between atoms: O_29  and  C_30
REMARK    9  A    between atoms: O_31  and  C_32
REMARK                            x       y       z     vdW  Elec       q    Type
REMARK                         _______ _______ _______ _____ _____    ______ ____
ROOT
ATOM      1  C   UNL     1       0.943   3.594   0.012  0.00  0.00    +0.195 C 
ATOM      2  C   UNL     1       2.252   4.415  -0.059  0.00  0.00    +0.085 C 
ATOM      3  C   UNL     1       1.834   5.591  -0.926  0.00  0.00    -0.000 A 
ATOM      4  C   UNL     1       2.411   6.818  -1.152  0.00  0.00    +0.016 A 
ATOM      5  C   UNL     1       1.787   7.736  -1.997  0.00  0.00    -0.012 A 
ATOM      6  C   UNL     1       0.579   7.397  -2.605  0.00  0.00    +0.032 A 
ATOM      7  C   UNL     1       0.009   6.164  -2.377  0.00  0.00    +0.083 A 
ATOM      8  C   UNL     1       0.634   5.243  -1.536  0.00  0.00    +0.143 A 
ATOM      9  O   UNL     1       0.252   3.983  -1.186  0.00  0.00    -0.485 OA
ATOM     10 CL   UNL     1      -1.495   5.754  -3.140  0.00  0.00    -0.080 Cl
ENDROOT
BRANCH   5  11
ATOM     11  C   UNL     1       2.403   9.062  -2.245  0.00  0.00    +0.027 A 
ATOM     12  C   UNL     1       2.822   9.850  -1.175  0.00  0.00    +0.057 A 
ATOM     13  C   UNL     1       3.397  11.087  -1.413  0.00  0.00    +0.121 A 
ATOM     14  C   UNL     1       3.556  11.542  -2.715  0.00  0.00    +0.049 A 
ATOM     15  C   UNL     1       3.143  10.765  -3.780  0.00  0.00    +0.050 A 
ATOM     16  C   UNL     1       2.571   9.523  -3.554  0.00  0.00    +0.128 A 
BRANCH  16  17
ATOM     17  O   UNL     1       2.170   8.757  -4.603  0.00  0.00    -0.494 OA
ATOM     18  C   UNL     1       2.373   9.292  -5.912  0.00  0.00    +0.277 C 
ENDBRANCH  16  17
BRANCH  13  19
ATOM     19  O   UNL     1       3.805  11.857  -0.370  0.00  0.00    -0.495 OA
ATOM     20  C   UNL     1       4.390  13.121  -0.687  0.00  0.00    +0.277 C 
ENDBRANCH  13  19
ENDBRANCH   5  11
BRANCH   1  21
ATOM     21  C   UNL     1       1.242   2.093   0.001  0.00  0.00    +0.149 C 
BRANCH  21  24
ATOM     22  C   UNL     1       0.002  -0.004   0.002  0.00  0.00    +0.214 C 
ATOM     23  O   UNL     1       1.060  -0.596  -0.011  0.00  0.00    -0.276 OA
ATOM     24  N   UNL     1      -0.016   1.344   0.009  0.00  0.00    -0.312 N 
ATOM     25  H   UNL     1      -0.863   1.817   0.016  0.00  0.00    +0.149 HD
BRANCH  22  30
ATOM     26  C   UNL     1      -4.235  -0.759  -2.339  0.00  0.00    -0.096 C 
ATOM     27  C   UNL     1      -3.101  -2.625  -1.293  0.00  0.00    -0.079 C 
ATOM     28  C   UNL     1      -2.313  -3.052  -0.053  0.00  0.00    -0.018 C 
ATOM     29  C   UNL     1      -0.993  -2.277  -0.001  0.00  0.00    +0.009 C 
ATOM     30  C   UNL     1      -1.293  -0.775   0.010  0.00  0.00    +0.058 C 
ATOM     31  C   UNL     1      -2.110  -0.414  -1.232  0.00  0.00    -0.067 C 
ATOM     32  N   UNL     1      -3.378  -1.175  -1.210  0.00  0.00    +0.378 N 
ATOM     33  H   UNL     1      -3.868  -0.979  -0.329  0.00  0.00    -0.082 HD
ENDBRANCH  22  30
ENDBRANCH  21  24
ENDBRANCH   1  21
TORSDOF 6
