REMARK  Name = ZINC04921994
REMARK  6 active torsions:
REMARK  status: ('A' for Active; 'I' for Inactive)
REMARK    1  A    between atoms: C_1  and  O_2
REMARK    2  A    between atoms: O_2  and  C_3
REMARK    3  A    between atoms: C_5  and  N_11
REMARK    4  A    between atoms: C_7  and  O_9
REMARK    5  A    between atoms: O_9  and  C_10
REMARK    6  A    between atoms: C_12  and  C_14
REMARK                            x       y       z     vdW  Elec       q    Type
REMARK                         _______ _______ _______ _____ _____    ______ ____
ROOT
ATOM      1  C   UNL     1       1.202   2.102  -0.161  0.00  0.00    +0.099 A 
ATOM      2  C   UNL     1       0.016   1.412   0.023  0.00  0.00    +0.030 A 
ATOM      3  C   UNL     1       0.051  -0.005   0.013  0.00  0.00    +0.019 A 
ATOM      4  C   UNL     1      -1.127  -0.741   0.180  0.00  0.00    +0.017 A 
ATOM      5  C   UNL     1      -1.097  -2.110   0.196  0.00  0.00    -0.025 A 
ATOM      6  C   UNL     1       0.118  -2.789   0.058  0.00  0.00    +0.040 A 
ATOM      7  C   UNL     1       1.290  -2.075  -0.157  0.00  0.00    +0.017 A 
ATOM      8  C   UNL     1       1.267  -0.681  -0.173  0.00  0.00    +0.142 A 
ATOM      9  O   UNL     1       2.423  -0.011  -0.369  0.00  0.00    -0.437 OA
ATOM     10  C   UNL     1       2.441   1.334  -0.360  0.00  0.00    +0.226 A 
ATOM     11  N   UNL     1       3.572   1.966  -0.531  0.00  0.00    -0.266 NA
ATOM     12  C   UNL     1       2.621  -2.728  -0.406  0.00  0.00    +0.042 C 
ATOM     13  C   UNL     1       2.527  -4.247  -0.398  0.00  0.00    +0.024 C 
ATOM     14  C   UNL     1       1.446  -4.680   0.593  0.00  0.00    +0.105 C 
ATOM     15  N   UNL     1       0.149  -4.176   0.124  0.00  0.00    -0.329 N 
ATOM     16  C   UNL     1      -0.927  -4.713   0.968  0.00  0.00    +0.105 C 
ATOM     17  C   UNL     1      -2.271  -4.325   0.353  0.00  0.00    +0.024 C 
ATOM     18  C   UNL     1      -2.416  -2.812   0.371  0.00  0.00    +0.038 C 
ATOM     19  H   UNL     1       4.392   1.466  -0.663  0.00  0.00    +0.190 HD
ENDROOT
BRANCH   1  21
ATOM     20  N   UNL     1       0.079   4.261   0.027  0.00  0.00    -0.281 N 
ATOM     21  C   UNL     1       1.222   3.571  -0.157  0.00  0.00    +0.253 C 
ATOM     22  O   UNL     1       2.272   4.165  -0.320  0.00  0.00    -0.270 OA
ATOM     23  H   UNL     1      -0.768   3.791   0.080  0.00  0.00    +0.155 HD
BRANCH  20  26
ATOM     24  C   UNL     1      -0.905   7.798  -0.230  0.00  0.00    +0.125 A 
ATOM     25  C   UNL     1      -0.940   6.417  -0.344  0.00  0.00    +0.069 A 
ATOM     26  C   UNL     1       0.114   5.654   0.141  0.00  0.00    +0.041 A 
ATOM     27  C   UNL     1       1.199   6.275   0.746  0.00  0.00    +0.069 A 
ATOM     28  C   UNL     1       1.235   7.657   0.853  0.00  0.00    +0.125 A 
ATOM     29  C   UNL     1       0.182   8.418   0.368  0.00  0.00    +0.091 A 
BRANCH  24  31
ATOM     30  C   UNL     1      -1.834   9.963  -0.554  0.00  0.00    +0.277 C 
ATOM     31  O   UNL     1      -1.936   8.545  -0.705  0.00  0.00    -0.495 OA
ENDBRANCH  24  31
BRANCH  28  32
ATOM     32  O   UNL     1       2.300   8.265   1.439  0.00  0.00    -0.495 OA
ATOM     33  C   UNL     1       2.268   9.691   1.522  0.00  0.00    +0.277 C 
ENDBRANCH  28  32
ENDBRANCH  20  26
ENDBRANCH   1  21
TORSDOF 4
