REMARK  Name = ZINC49634261
REMARK  7 active torsions:
REMARK  status: ('A' for Active; 'I' for Inactive)
REMARK    1  A    between atoms: C_2  and  C_19
REMARK    2  A    between atoms: N_6  and  C_7
REMARK    3  A    between atoms: C_7  and  C_9
REMARK    4  A    between atoms: C_9  and  C_10
REMARK    5  A    between atoms: C_10  and  S_11
REMARK    6  A    between atoms: S_11  and  C_14
REMARK    7  A    between atoms: C_19  and  N_20
REMARK                            x       y       z     vdW  Elec       q    Type
REMARK                         _______ _______ _______ _____ _____    ______ ____
ROOT
ATOM      1  C   UNL     1      -0.022   1.779   0.012  0.00  0.00    +0.067 A 
ATOM      2  C   UNL     1       1.283   2.074   0.001  0.00  0.00    +0.008 A 
ATOM      3  N   UNL     1       2.157   1.033  -0.013  0.00  0.00    -0.341 N 
ATOM      4  C   UNL     1       1.667  -0.236  -0.015  0.00  0.00    +0.163 A 
ATOM      5  S   UNL     1       0.002  -0.004   0.002  0.00  0.00    -0.061 S 
ATOM      6  N   UNL     1       2.344  -1.386  -0.028  0.00  0.00    -0.157 NA
ATOM      7  H   UNL     1       3.114   1.192  -0.022  0.00  0.00    +0.167 HD
ENDROOT
BRANCH   6   8
ATOM      8  C   UNL     1       1.691  -2.541  -0.028  0.00  0.00    +0.240 C 
ATOM      9  O   UNL     1       0.474  -2.551  -0.016  0.00  0.00    -0.274 OA
BRANCH   8  10
ATOM     10  C   UNL     1       2.455  -3.840  -0.043  0.00  0.00    +0.120 C 
BRANCH  10  11
ATOM     11  C   UNL     1       1.470  -5.011  -0.039  0.00  0.00    +0.175 C 
BRANCH  11  12
ATOM     12  S   UNL     1       2.390  -6.574  -0.057  0.00  0.00    -0.028 S 
ATOM     13  O   UNL     1       3.091  -6.669  -1.290  0.00  0.00    -0.174 OA
ATOM     14  O   UNL     1       3.115  -6.683   1.160  0.00  0.00    -0.174 OA
BRANCH  12  15
ATOM     15  C   UNL     1       1.069  -7.817  -0.051  0.00  0.00    +0.130 C 
ATOM     16  C   UNL     1       0.168  -7.623   1.186  0.00  0.00    +0.026 C 
ATOM     17  C   UNL     1      -0.198  -9.065   1.619  0.00  0.00    +0.002 C 
ATOM     18  C   UNL     1       1.117  -9.842   1.363  0.00  0.00    +0.002 C 
ATOM     19  C   UNL     1       1.673  -9.228   0.061  0.00  0.00    +0.026 C 
ENDBRANCH  12  15
ENDBRANCH  11  12
ENDBRANCH  10  11
ENDBRANCH   8  10
ENDBRANCH   6   8
BRANCH   2  20
ATOM     20  C   UNL     1       1.764   3.502   0.004  0.00  0.00    -0.024 C 
BRANCH  20  21
ATOM     21  N   UNL     1       2.487   3.773   1.253  0.00  0.00    +0.383 N 
ATOM     22  C   UNL     1       1.562   3.578   2.387  0.00  0.00    -0.078 C 
ATOM     23  C   UNL     1       2.379   3.256   3.614  0.00  0.00    -0.019 C 
ATOM     24  C   UNL     1       2.644   4.515   4.460  0.00  0.00    -0.002 C 
ATOM     25  C   UNL     1       2.971   5.738   3.580  0.00  0.00    -0.002 C 
ATOM     26  C   UNL     1       3.881   5.391   2.429  0.00  0.00    -0.019 C 
ATOM     27  C   UNL     1       3.022   5.061   1.190  0.00  0.00    -0.078 C 
ATOM     28  H   UNL     1       3.244   3.111   1.338  0.00  0.00    -0.081 HD
ENDBRANCH  20  21
ENDBRANCH   2  20
TORSDOF 7
