REMARK  Name = ZINC22678791
REMARK  7 active torsions:
REMARK  status: ('A' for Active; 'I' for Inactive)
REMARK    1  A    between atoms: C_1  and  N_2
REMARK    2  A    between atoms: N_2  and  C_3
REMARK    3  A    between atoms: C_3  and  C_4
REMARK    4  A    between atoms: C_11  and  C_13
REMARK    5  A    between atoms: C_18  and  N_19
REMARK    6  A    between atoms: N_19  and  S_20
REMARK    7  A    between atoms: S_20  and  C_23
REMARK                            x       y       z     vdW  Elec       q    Type
REMARK                         _______ _______ _______ _____ _____    ______ ____
ROOT
ATOM      1  C   UNL     1      -2.066   1.570   1.977  0.00  0.00    +0.059 A 
ATOM      2  C   UNL     1      -2.860   2.111   0.963  0.00  0.00    +0.015 A 
ATOM      3  C   UNL     1      -2.887   3.474   0.765  0.00  0.00    +0.001 A 
ATOM      4  C   UNL     1      -2.130   4.314   1.567  0.00  0.00    +0.002 A 
ATOM      5  C   UNL     1      -1.345   3.795   2.576  0.00  0.00    +0.025 A 
ATOM      6  C   UNL     1      -1.300   2.423   2.788  0.00  0.00    +0.060 A 
ENDROOT
BRANCH   1   9
ATOM      7  C   UNL     1      -4.468   0.120   2.250  0.00  0.00    +0.132 C 
ATOM      8  N   UNL     1      -3.184  -0.583   2.278  0.00  0.00    -0.296 N 
ATOM      9  C   UNL     1      -2.032   0.112   2.195  0.00  0.00    +0.248 C 
ATOM     10  O   UNL     1      -0.966  -0.463   2.299  0.00  0.00    -0.270 OA
BRANCH   8  11
ATOM     11  C   UNL     1      -3.151  -2.043   2.396  0.00  0.00    +0.142 C 
BRANCH  11  12
ATOM     12  C   UNL     1      -3.107  -2.429   3.852  0.00  0.00    -0.029 A 
ATOM     13  C   UNL     1      -1.889  -2.586   4.489  0.00  0.00    +0.005 A 
ATOM     14  C   UNL     1      -1.849  -2.935   5.826  0.00  0.00    +0.002 A 
ATOM     15  C   UNL     1      -3.024  -3.137   6.524  0.00  0.00    +0.020 A 
ATOM     16  C   UNL     1      -4.242  -2.984   5.886  0.00  0.00    +0.041 A 
ATOM     17  C   UNL     1      -4.283  -2.630   4.550  0.00  0.00    +0.025 A 
ATOM     18 CL   UNL     1      -5.719  -3.238   6.763  0.00  0.00    -0.084 Cl
ENDBRANCH  11  12
ENDBRANCH   8  11
ENDBRANCH   1   9
BRANCH   6  19
ATOM     19  N   UNL     1      -0.507   1.898   3.800  0.00  0.00    -0.216 N 
ATOM     20  H   UNL     1      -0.050   0.905   3.680  0.00  0.00    +0.174 HD
BRANCH  19  21
ATOM     21  S   UNL     1      -0.250   2.767   5.185  0.00  0.00    +0.072 S 
ATOM     22  O   UNL     1       0.469   1.919   6.069  0.00  0.00    -0.150 OA
ATOM     23  O   UNL     1       0.240   4.039   4.782  0.00  0.00    -0.150 OA
BRANCH  21  24
ATOM     24  C   UNL     1      -1.825   3.047   5.925  0.00  0.00    +0.111 A 
ATOM     25  C   UNL     1      -2.548   4.181   5.598  0.00  0.00    +0.031 A 
ATOM     26  C   UNL     1      -3.786   4.405   6.168  0.00  0.00    +0.030 A 
ATOM     27  C   UNL     1      -4.300   3.497   7.081  0.00  0.00    +0.067 A 
ATOM     28  C   UNL     1      -3.568   2.356   7.415  0.00  0.00    +0.069 A 
ATOM     29  C   UNL     1      -2.329   2.136   6.833  0.00  0.00    +0.056 A 
ATOM     30  N   UNL     1      -4.329   1.646   8.340  0.00  0.00    -0.306 N 
ATOM     31  H   UNL     1      -3.951   0.699   8.752  0.00  0.00    +0.170 HD
ATOM     32  C   UNL     1      -5.472   2.323   8.559  0.00  0.00    +0.325 A 
ATOM     33  O   UNL     1      -6.359   1.975   9.315  0.00  0.00    -0.247 OA
ATOM     34  N   UNL     1      -5.484   3.445   7.814  0.00  0.00    -0.306 N 
ATOM     35  H   UNL     1      -6.229   4.248   7.714  0.00  0.00    +0.170 HD
ENDBRANCH  21  24
ENDBRANCH  19  21
ENDBRANCH   6  19
TORSDOF 6
