REMARK  Name = ZINC55540384
REMARK  4 active torsions:
REMARK  status: ('A' for Active; 'I' for Inactive)
REMARK    1  A    between atoms: C_1  and  C_2
REMARK    2  A    between atoms: N_11  and  C_15
REMARK    3  A    between atoms: C_15  and  C_16
REMARK    4  A    between atoms: C_22  and  C_24
REMARK                            x       y       z     vdW  Elec       q    Type
REMARK                         _______ _______ _______ _____ _____    ______ ____
ROOT
ATOM      1  C   UNL     1       3.436   1.482   2.825  0.00  0.00    +0.213 C 
ENDROOT
BRANCH   1  11
ATOM      2  C   UNL     1      -0.019   1.526   0.010  0.00  0.00    +0.010 C 
ATOM      3  C   UNL     1       0.002  -0.004   0.002  0.00  0.00    +0.018 C 
ATOM      4  C   UNL     1      -1.434  -0.534   0.012  0.00  0.00    +0.006 C 
ATOM      5  C   UNL     1      -1.412  -2.064   0.024  0.00  0.00    +0.000 C 
ATOM      6  C   UNL     1      -0.687  -2.556   1.279  0.00  0.00    +0.003 C 
ATOM      7  C   UNL     1       0.752  -2.033   1.273  0.00  0.00    +0.035 C 
ATOM      8  C   UNL     1       0.740  -0.509   1.237  0.00  0.00    +0.115 C 
ATOM      9  C   UNL     1       2.151   0.030   1.266  0.00  0.00    +0.247 C 
ATOM     10  O   UNL     1       3.026  -0.158   0.448  0.00  0.00    -0.273 OA
ATOM     11  N   UNL     1       2.233   0.767   2.394  0.00  0.00    -0.215 N 
ATOM     12  C   UNL     1       1.077   0.763   3.069  0.00  0.00    +0.310 C 
ATOM     13  O   UNL     1       0.904   1.356   4.116  0.00  0.00    -0.252 OA
ATOM     14  N   UNL     1       0.127   0.030   2.458  0.00  0.00    -0.285 N 
ATOM     15  H   UNL     1      -0.782  -0.114   2.764  0.00  0.00    +0.151 HD
ENDBRANCH   1  11
BRANCH   1  16
ATOM     16  C   UNL     1       3.425   2.876   2.253  0.00  0.00    +0.234 C 
ATOM     17  O   UNL     1       2.503   3.237   1.554  0.00  0.00    -0.274 OA
ATOM     18  N   UNL     1       4.441   3.721   2.519  0.00  0.00    -0.293 N 
ATOM     19  C   UNL     1       5.622   3.413   3.345  0.00  0.00    +0.108 C 
ATOM     20  C   UNL     1       6.718   4.390   2.851  0.00  0.00    +0.021 C 
ATOM     21  C   UNL     1       5.887   5.670   2.565  0.00  0.00    +0.029 C 
ATOM     22  C   UNL     1       4.556   5.102   2.028  0.00  0.00    +0.106 C 
BRANCH  22  23
ATOM     23  C   UNL     1       3.405   5.928   2.544  0.00  0.00    -0.027 A 
ATOM     24  C   UNL     1       2.964   5.762   3.843  0.00  0.00    +0.008 A 
ATOM     25  C   UNL     1       1.909   6.518   4.317  0.00  0.00    +0.038 A 
ATOM     26  C   UNL     1       1.294   7.442   3.490  0.00  0.00    +0.123 A 
ATOM     27  C   UNL     1       1.737   7.608   2.189  0.00  0.00    +0.038 A 
ATOM     28  C   UNL     1       2.795   6.854   1.718  0.00  0.00    +0.008 A 
ATOM     29  F   UNL     1       0.262   8.182   3.952  0.00  0.00    -0.205 F 
ENDBRANCH  22  23
ENDBRANCH   1  16
TORSDOF 3
