REMARK  Name = ZINC09364264
REMARK  5 active torsions:
REMARK  status: ('A' for Active; 'I' for Inactive)
REMARK    1  A    between atoms: C_1  and  C_2
REMARK    2  A    between atoms: C_9  and  C_11
REMARK    3  A    between atoms: C_11  and  N_12
REMARK    4  A    between atoms: C_15  and  C_27
REMARK    5  A    between atoms: N_17  and  C_20
REMARK                            x       y       z     vdW  Elec       q    Type
REMARK                         _______ _______ _______ _____ _____    ______ ____
ROOT
ATOM      1  N   UNL     1       1.069  -2.183  -0.020  0.00  0.00    -0.215 N 
ATOM      2  C   UNL     1       0.957  -2.937   1.092  0.00  0.00    +0.244 C 
ATOM      3  O   UNL     1       1.039  -2.561   2.242  0.00  0.00    -0.273 OA
ATOM      4  C   UNL     1       0.705  -4.350   0.606  0.00  0.00    +0.166 C 
ATOM      5  N   UNL     1       0.712  -4.218  -0.861  0.00  0.00    -0.243 N 
ATOM      6  C   UNL     1       0.932  -2.918  -1.129  0.00  0.00    +0.316 C 
ATOM      7  O   UNL     1       0.998  -2.463  -2.254  0.00  0.00    -0.252 OA
ATOM      8  C   UNL     1      -0.653  -4.861   1.094  0.00  0.00    +0.038 C 
ENDROOT
BRANCH   5   9
ATOM      9  C   UNL     1       0.527  -5.246  -1.794  0.00  0.00    +0.039 A 
ATOM     10  C   UNL     1       0.315  -6.548  -1.362  0.00  0.00    +0.026 A 
ATOM     11  C   UNL     1       0.128  -7.559  -2.284  0.00  0.00    +0.040 A 
ATOM     12  C   UNL     1       0.163  -7.277  -3.639  0.00  0.00    +0.124 A 
ATOM     13  C   UNL     1       0.379  -5.979  -4.073  0.00  0.00    +0.040 A 
ATOM     14  C   UNL     1       0.561  -4.965  -3.154  0.00  0.00    +0.026 A 
ATOM     15  F   UNL     1      -0.015  -8.268  -4.540  0.00  0.00    -0.205 F 
ENDBRANCH   5   9
BRANCH   1  16
ATOM     16  C   UNL     1       1.317  -0.740  -0.015  0.00  0.00    +0.213 C 
BRANCH  16  24
ATOM     17  C   UNL     1      -2.561   3.937  -1.059  0.00  0.00    +0.009 C 
ATOM     18  C   UNL     1      -1.301   3.072  -1.137  0.00  0.00    +0.003 C 
ATOM     19  C   UNL     1      -0.062   3.966  -1.048  0.00  0.00    +0.006 C 
ATOM     20  C   UNL     1       1.199   3.107  -1.161  0.00  0.00    +0.019 C 
ATOM     21  C   UNL     1       1.238   2.109   0.002  0.00  0.00    +0.108 C 
ATOM     22  N   UNL     1      -0.016   1.344   0.009  0.00  0.00    -0.300 N 
ATOM     23  C   UNL     1      -1.290   2.075   0.019  0.00  0.00    +0.111 C 
ATOM     24  C   UNL     1       0.002  -0.004   0.002  0.00  0.00    +0.234 C 
ATOM     25  O   UNL     1      -1.040  -0.625   0.009  0.00  0.00    -0.274 OA
ENDBRANCH  16  24
ENDBRANCH   1  16
TORSDOF 3
