REMARK  Name = ZINC11865314
REMARK  4 active torsions:
REMARK  status: ('A' for Active; 'I' for Inactive)
REMARK    1  A    between atoms: C_1  and  C_2
REMARK    2  A    between atoms: C_4  and  O_23
REMARK    3  A    between atoms: C_11  and  C_12
REMARK    4  A    between atoms: N_14  and  C_21
REMARK                            x       y       z     vdW  Elec       q    Type
REMARK                         _______ _______ _______ _____ _____    ______ ____
ROOT
ATOM      1  C   UNL     1      -0.126   5.366   0.030  0.00  0.00    +0.045 C 
ATOM      2  C   UNL     1      -0.088   3.859   0.023  0.00  0.00    -0.033 A 
ATOM      3  C   UNL     1      -1.253   3.145   0.030  0.00  0.00    +0.049 A 
ATOM      4  C   UNL     1      -1.221   1.753   0.017  0.00  0.00    +0.121 A 
ATOM      5  C   UNL     1      -0.013   1.076   0.008  0.00  0.00    +0.092 A 
ATOM      6  C   UNL     1       1.179   1.787   0.000  0.00  0.00    +0.143 A 
ATOM      7  C   UNL     1       1.136   3.191   0.008  0.00  0.00    +0.071 A 
ATOM      8  C   UNL     1       2.539   3.643  -0.002  0.00  0.00    +0.232 C 
ATOM      9  O   UNL     1       2.947   4.792  -0.000  0.00  0.00    -0.283 OA
ATOM     10  C   UNL     1       3.313   2.452  -0.015  0.00  0.00    +0.176 C 
ATOM     11  C   UNL     1       4.674   2.387  -0.027  0.00  0.00    +0.060 C 
ATOM     12  O   UNL     1       2.470   1.392  -0.013  0.00  0.00    -0.451 OA
ENDROOT
BRANCH  11  13
ATOM     13  C   UNL     1       5.343   1.088  -0.039  0.00  0.00    +0.004 A 
ATOM     14  C   UNL     1       4.742  -0.152  -0.035  0.00  0.00    +0.094 A 
ATOM     15  N   UNL     1       5.695  -1.117  -0.054  0.00  0.00    -0.349 N 
ATOM     16  C   UNL     1       6.955  -0.553  -0.061  0.00  0.00    +0.049 A 
ATOM     17  C   UNL     1       6.799   0.842  -0.053  0.00  0.00    +0.007 A 
ATOM     18  C   UNL     1       7.917   1.671  -0.058  0.00  0.00    +0.010 A 
ATOM     19  C   UNL     1       9.178   1.115  -0.072  0.00  0.00    +0.001 A 
ATOM     20  C   UNL     1       9.335  -0.263  -0.081  0.00  0.00    +0.002 A 
ATOM     21  C   UNL     1       8.236  -1.095  -0.076  0.00  0.00    +0.026 A 
ATOM     22  C   UNL     1       5.425  -2.557  -0.058  0.00  0.00    +0.149 C 
ENDBRANCH  11  13
BRANCH   4  23
ATOM     23  O   UNL     1      -2.385   1.054   0.019  0.00  0.00    -0.507 OA
ATOM     24  H   UNL     1      -2.718   0.847   0.903  0.00  0.00    +0.292 HD
ENDBRANCH   4  23
TORSDOF 2
