REMARK  Name = ZINC36863825
REMARK  5 active torsions:
REMARK  status: ('A' for Active; 'I' for Inactive)
REMARK    1  A    between atoms: C_1  and  C_2
REMARK    2  A    between atoms: C_2  and  C_3
REMARK    3  A    between atoms: C_3  and  N_4
REMARK    4  A    between atoms: C_6  and  N_23
REMARK    5  A    between atoms: C_8  and  C_9
REMARK                            x       y       z     vdW  Elec       q    Type
REMARK                         _______ _______ _______ _____ _____    ______ ____
ROOT
ATOM      1  C   UNL     1      -1.051  -2.368   2.832  0.00  0.00    +0.263 C 
ATOM      2  O   UNL     1      -0.933  -3.259   3.653  0.00  0.00    -0.268 OA
ATOM      3  N   UNL     1      -0.900  -1.082   3.206  0.00  0.00    -0.293 N 
ATOM      4  C   UNL     1      -1.020   0.009   2.227  0.00  0.00    +0.108 C 
ATOM      5  C   UNL     1       0.232   0.887   2.298  0.00  0.00    +0.019 C 
ATOM      6  C   UNL     1       0.457   1.350   3.741  0.00  0.00    +0.007 C 
ATOM      7  C   UNL     1       0.657   0.128   4.635  0.00  0.00    +0.010 C 
ATOM      8  C   UNL     1      -0.616  -0.732   4.602  0.00  0.00    +0.079 C 
ATOM      9  C   UNL     1      -0.392  -1.992   5.437  0.00  0.00    +0.023 C 
ATOM     10  C   UNL     1      -0.105  -1.587   6.886  0.00  0.00    +0.002 C 
ATOM     11  C   UNL     1       1.139  -0.699   6.940  0.00  0.00    +0.000 C 
ATOM     12  C   UNL     1       0.926   0.552   6.078  0.00  0.00    +0.005 C 
ENDROOT
BRANCH   1  17
ATOM     13  N   UNL     1      -1.062  -3.873   0.792  0.00  0.00    -0.341 N 
ATOM     14  C   UNL     1      -1.513  -3.796  -0.488  0.00  0.00    +0.109 A 
ATOM     15  C   UNL     1      -2.090  -2.581  -0.676  0.00  0.00    +0.043 A 
ATOM     16  C   UNL     1      -1.997  -1.872   0.529  0.00  0.00    +0.055 A 
ATOM     17  C   UNL     1      -1.359  -2.694   1.436  0.00  0.00    +0.106 A 
BRANCH  15  18
ATOM     18  N   UNL     1      -2.675  -2.116  -1.869  0.00  0.00    -0.357 N 
ATOM     19  H   UNL     1      -2.691  -2.684  -2.655  0.00  0.00    +0.142 HD
ATOM     20  H   UNL     1      -3.064  -1.228  -1.904  0.00  0.00    +0.142 HD
ENDBRANCH  15  18
BRANCH  13  21
ATOM     21  C   UNL     1      -0.379  -5.023   1.390  0.00  0.00    +0.122 C 
BRANCH  21  23
ATOM     22  C   UNL     1      -0.678  -7.048   2.824  0.00  0.00    +0.005 C 
ATOM     23  C   UNL     1      -1.403  -5.915   2.095  0.00  0.00    +0.018 C 
ENDBRANCH  21  23
ENDBRANCH  13  21
ENDBRANCH   1  17
TORSDOF 4
