REMARK  Name = ZINC06547447
REMARK  3 active torsions:
REMARK  status: ('A' for Active; 'I' for Inactive)
REMARK    1  A    between atoms: C_1  and  C_2
REMARK    2  A    between atoms: N_8  and  C_9
REMARK    3  A    between atoms: C_14  and  C_16
REMARK                            x       y       z     vdW  Elec       q    Type
REMARK                         _______ _______ _______ _____ _____    ______ ____
ROOT
ATOM      1  C   UNL     1      -0.030  -4.026   2.372  0.00  0.00    +0.148 C 
ATOM      2  C   UNL     1      -0.120  -4.708   3.592  0.00  0.00    +0.170 C 
ATOM      3  C   UNL     1      -0.142  -4.134   4.883  0.00  0.00    +0.366 C 
ATOM      4  O   UNL     1      -0.086  -2.946   5.157  0.00  0.00    -0.243 OA
ATOM      5  O   UNL     1      -0.237  -5.162   5.751  0.00  0.00    -0.402 OA
ATOM      6  C   UNL     1      -0.274  -6.311   5.046  0.00  0.00    +0.235 C 
ATOM      7  N   UNL     1      -0.210  -6.056   3.767  0.00  0.00    -0.204 NA
ENDROOT
BRANCH   1  15
ATOM      8  C   UNL     1      -0.053   1.502   0.011  0.00  0.00    +0.063 C 
ATOM      9  C   UNL     1      -0.016  -0.004   0.002  0.00  0.00    +0.014 A 
ATOM     10  C   UNL     1      -0.000  -0.668  -1.180  0.00  0.00    +0.021 A 
ATOM     11  C   UNL     1       0.034  -2.067  -1.199  0.00  0.00    +0.005 A 
ATOM     12  C   UNL     1       0.051  -2.755  -0.017  0.00  0.00    +0.046 A 
ATOM     13  C   UNL     1       0.034  -2.045   1.190  0.00  0.00    +0.131 A 
ATOM     14  N   UNL     1       0.006  -0.681   1.176  0.00  0.00    -0.344 N 
ATOM     15  N   UNL     1       0.051  -2.705   2.358  0.00  0.00    -0.236 NA
ATOM     16  H   UNL     1      -0.002  -0.192   2.014  0.00  0.00    +0.167 HD
ENDBRANCH   1  15
BRANCH   6  17
ATOM     17  C   UNL     1      -0.375  -7.661   5.635  0.00  0.00    +0.072 A 
ATOM     18  C   UNL     1      -0.448  -7.819   7.021  0.00  0.00    +0.016 A 
ATOM     19  C   UNL     1      -0.542  -9.082   7.564  0.00  0.00    +0.001 A 
ATOM     20  C   UNL     1      -0.564 -10.195   6.741  0.00  0.00    +0.003 A 
ATOM     21  C   UNL     1      -0.492 -10.049   5.368  0.00  0.00    +0.039 A 
ATOM     22  C   UNL     1      -0.404  -8.788   4.808  0.00  0.00    +0.136 A 
ATOM     23  F   UNL     1      -0.339  -8.646   3.466  0.00  0.00    -0.205 F 
ENDBRANCH   6  17
TORSDOF 2
