REMARK  Name = ZINC67266750
REMARK  4 active torsions:
REMARK  status: ('A' for Active; 'I' for Inactive)
REMARK    1  A    between atoms: C_1  and  C_2
REMARK    2  A    between atoms: C_2  and  C_4
REMARK    3  A    between atoms: C_2  and  N_10
REMARK    4  A    between atoms: C_11  and  C_13
REMARK                            x       y       z     vdW  Elec       q    Type
REMARK                         _______ _______ _______ _____ _____    ______ ____
ROOT
ATOM      1  C   UNL     1       0.780  -1.133   3.576  0.00  0.00    +0.075 C 
ATOM      2  C   UNL     1       1.347  -2.526   3.297  0.00  0.00    +0.015 C 
ATOM      3  C   UNL     1       2.098  -3.027   4.534  0.00  0.00    +0.036 C 
ATOM      4  C   UNL     1       1.147  -3.076   5.724  0.00  0.00    +0.112 C 
ATOM      5  C   UNL     1       0.553  -1.699   5.999  0.00  0.00    +0.036 C 
ATOM      6  C   UNL     1      -0.191  -1.204   4.756  0.00  0.00    +0.015 C 
ATOM      7  C   UNL     1       0.048  -4.086   5.481  0.00  0.00    +0.244 C 
ATOM      8  O   UNL     1      -0.779  -4.071   4.595  0.00  0.00    -0.273 OA
ATOM      9  N   UNL     1       0.183  -5.007   6.457  0.00  0.00    -0.238 N 
ATOM     10  C   UNL     1       1.204  -4.717   7.272  0.00  0.00    +0.307 C 
ATOM     11  O   UNL     1       1.523  -5.399   8.226  0.00  0.00    -0.252 OA
ATOM     12  N   UNL     1       1.840  -3.584   6.915  0.00  0.00    -0.285 N 
ATOM     13  H   UNL     1      -0.391  -5.783   6.557  0.00  0.00    +0.159 HD
ATOM     14  H   UNL     1       2.604  -3.183   7.358  0.00  0.00    +0.151 HD
ENDROOT
BRANCH   1  16
ATOM     15  N   UNL     1       0.711  -0.489   1.189  0.00  0.00    -0.308 N 
ATOM     16  C   UNL     1       0.051  -0.633   2.355  0.00  0.00    +0.217 C 
ATOM     17  O   UNL     1      -1.129  -0.361   2.423  0.00  0.00    -0.275 OA
ATOM     18  H   UNL     1       1.654  -0.707   1.135  0.00  0.00    +0.149 HD
BRANCH  15  20
ATOM     19  C   UNL     1      -0.019   1.526   0.010  0.00  0.00    +0.033 C 
ATOM     20  C   UNL     1       0.002  -0.004   0.002  0.00  0.00    +0.107 C 
BRANCH  20  21
ATOM     21  C   UNL     1       0.707  -0.490  -1.238  0.00  0.00    +0.011 A 
ATOM     22  C   UNL     1       0.176  -0.943  -2.400  0.00  0.00    +0.014 A 
ATOM     23  C   UNL     1       1.026  -1.341  -3.415  0.00  0.00    +0.028 A 
ATOM     24  C   UNL     1       2.366  -1.267  -3.218  0.00  0.00    +0.078 A 
ATOM     25  S   UNL     1       2.459  -0.612  -1.560  0.00  0.00    -0.080 S 
ATOM     26 CL   UNL     1       3.656  -1.693  -4.299  0.00  0.00    -0.076 Cl
ENDBRANCH  20  21
ENDBRANCH  15  20
ENDBRANCH   1  16
TORSDOF 3
