REMARK  Name = ZINC12846696
REMARK  6 active torsions:
REMARK  status: ('A' for Active; 'I' for Inactive)
REMARK    1  A    between atoms: C_1  and  S_2
REMARK    2  A    between atoms: S_2  and  N_5
REMARK    3  A    between atoms: N_5  and  C_6
REMARK    4  A    between atoms: C_9  and  N_13
REMARK    5  A    between atoms: N_13  and  S_14
REMARK    6  A    between atoms: S_14  and  C_17
REMARK                            x       y       z     vdW  Elec       q    Type
REMARK                         _______ _______ _______ _____ _____    ______ ____
ROOT
ATOM      1  C   UNL     1      -1.875   0.954   1.901  0.00  0.00    +0.066 A 
ATOM      2  C   UNL     1      -2.296  -0.338   1.616  0.00  0.00    +0.028 A 
ATOM      3  C   UNL     1      -3.606  -0.706   1.854  0.00  0.00    +0.026 A 
ATOM      4  C   UNL     1      -4.502   0.216   2.379  0.00  0.00    +0.050 A 
ATOM      5  C   UNL     1      -4.082   1.508   2.664  0.00  0.00    +0.046 A 
ATOM      6  C   UNL     1      -2.770   1.875   2.430  0.00  0.00    +0.065 A 
ATOM      7 CL   UNL     1      -2.242   3.489   2.793  0.00  0.00    -0.082 Cl
ENDROOT
BRANCH   1   8
ATOM      8  N   UNL     1      -0.547   1.327   1.659  0.00  0.00    -0.219 N 
ATOM      9  H   UNL     1      -0.124   2.001   2.214  0.00  0.00    +0.173 HD
BRANCH   8  11
ATOM     10  C   UNL     1      -0.635   1.012  -1.074  0.00  0.00    +0.218 C 
ATOM     11  S   UNL     1       0.302   0.616   0.428  0.00  0.00    +0.040 S 
ATOM     12  O   UNL     1       0.231  -0.778   0.696  0.00  0.00    -0.155 OA
ATOM     13  O   UNL     1       1.554   1.288   0.415  0.00  0.00    -0.155 OA
ENDBRANCH   8  11
ENDBRANCH   1   8
BRANCH   4  14
ATOM     14  N   UNL     1      -5.830  -0.158   2.620  0.00  0.00    -0.216 N 
ATOM     15  H   UNL     1      -6.322  -0.657   1.950  0.00  0.00    +0.174 HD
BRANCH  14  16
ATOM     16  S   UNL     1      -6.558   0.253   4.049  0.00  0.00    +0.072 S 
ATOM     17  O   UNL     1      -6.341   1.645   4.231  0.00  0.00    -0.150 OA
ATOM     18  O   UNL     1      -7.859  -0.318   4.020  0.00  0.00    -0.150 OA
BRANCH  16  19
ATOM     19  C   UNL     1      -5.678  -0.567   5.337  0.00  0.00    +0.109 A 
ATOM     20  C   UNL     1      -5.995  -1.870   5.670  0.00  0.00    +0.030 A 
ATOM     21  C   UNL     1      -5.301  -2.515   6.676  0.00  0.00    +0.022 A 
ATOM     22  C   UNL     1      -4.296  -1.853   7.358  0.00  0.00    +0.041 A 
ATOM     23  C   UNL     1      -3.983  -0.546   7.028  0.00  0.00    +0.022 A 
ATOM     24  C   UNL     1      -4.674   0.096   6.018  0.00  0.00    +0.030 A 
ATOM     25 CL   UNL     1      -3.428  -2.660   8.626  0.00  0.00    -0.084 Cl
ENDBRANCH  16  19
ENDBRANCH  14  16
ENDBRANCH   4  14
TORSDOF 5
