REMARK  Name = ZINC01366251
REMARK  7 active torsions:
REMARK  status: ('A' for Active; 'I' for Inactive)
REMARK    1  A    between atoms: C_1  and  C_2
REMARK    2  A    between atoms: C_8  and  C_10
REMARK    3  A    between atoms: C_10  and  S_11
REMARK    4  A    between atoms: S_11  and  C_12
REMARK    5  A    between atoms: C_18  and  C_24
REMARK    6  A    between atoms: C_24  and  C_25
REMARK    7  A    between atoms: C_24  and  C_26
REMARK                            x       y       z     vdW  Elec       q    Type
REMARK                         _______ _______ _______ _____ _____    ______ ____
ROOT
ATOM      1  C   UNL     1      -4.503   8.366   1.341  0.00  0.00    +0.212 A 
ATOM      2  N   UNL     1      -3.184   8.501   1.329  0.00  0.00    -0.201 NA
ATOM      3  C   UNL     1      -2.419   7.413   1.315  0.00  0.00    +0.162 A 
ATOM      4  C   UNL     1      -3.049   6.152   1.314  0.00  0.00    +0.137 A 
ATOM      5  C   UNL     1      -1.970   5.149   1.298  0.00  0.00    +0.029 A 
ATOM      6  C   UNL     1      -1.953   3.756   1.290  0.00  0.00    +0.016 A 
ATOM      7  C   UNL     1      -0.749   3.086   1.275  0.00  0.00    -0.044 A 
ATOM      8  C   UNL     1       0.443   3.793   1.273  0.00  0.00    +0.006 A 
ATOM      9  C   UNL     1       0.441   5.172   1.275  0.00  0.00    +0.026 A 
ATOM     10  C   UNL     1      -0.764   5.867   1.291  0.00  0.00    +0.050 A 
ATOM     11  N   UNL     1      -1.060   7.220   1.302  0.00  0.00    -0.338 N 
ATOM     12  H   UNL     1      -0.400   7.931   1.299  0.00  0.00    +0.167 HD
ATOM     13  N   UNL     1      -4.372   6.084   1.327  0.00  0.00    -0.143 NA
ATOM     14  N   UNL     1      -5.074   7.165   1.340  0.00  0.00    -0.122 NA
ENDROOT
BRANCH   7  15
ATOM     15  C   UNL     1      -0.729   1.579   1.267  0.00  0.00    +0.013 C 
ATOM     16  C   UNL     1      -0.013   1.086   0.008  0.00  0.00    +0.012 C 
ATOM     17  C   UNL     1       0.011   1.072   2.506  0.00  0.00    +0.012 C 
ENDBRANCH   7  15
BRANCH   1  18
ATOM     18  S   UNL     1      -5.519   9.805   1.359  0.00  0.00    -0.075 S 
BRANCH  18  19
ATOM     19  C   UNL     1      -7.157   9.035   1.371  0.00  0.00    +0.173 C 
BRANCH  19  27
ATOM     20  C   UNL     1     -13.013   8.831   3.641  0.00  0.00    +0.007 C 
ATOM     21  C   UNL     1     -12.042   9.095   2.489  0.00  0.00    -0.011 C 
ATOM     22  C   UNL     1     -11.509  10.526   2.589  0.00  0.00    +0.022 C 
ATOM     23  C   UNL     1     -10.564  10.798   1.414  0.00  0.00    +0.108 C 
ATOM     24  N   UNL     1      -9.520   9.765   1.398  0.00  0.00    -0.301 N 
ATOM     25  C   UNL     1      -9.924   8.352   1.387  0.00  0.00    +0.108 C 
ATOM     26  C   UNL     1     -10.876   8.108   2.568  0.00  0.00    +0.022 C 
ATOM     27  C   UNL     1      -8.216  10.106   1.387  0.00  0.00    +0.226 C 
ATOM     28  O   UNL     1      -7.895  11.276   1.391  0.00  0.00    -0.275 OA
ENDBRANCH  19  27
ENDBRANCH  18  19
ENDBRANCH   1  18
TORSDOF 4
