REMARK  Name = ZINC15678607
REMARK  8 active torsions:
REMARK  status: ('A' for Active; 'I' for Inactive)
REMARK    1  A    between atoms: C_1  and  C_2
REMARK    2  A    between atoms: C_5  and  N_9
REMARK    3  A    between atoms: C_6  and  C_8
REMARK    4  A    between atoms: C_10  and  C_12
REMARK    5  A    between atoms: C_12  and  N_13
REMARK    6  A    between atoms: N_13  and  C_14
REMARK    7  A    between atoms: N_13  and  S_15
REMARK    8  A    between atoms: S_15  and  C_18
REMARK                            x       y       z     vdW  Elec       q    Type
REMARK                         _______ _______ _______ _____ _____    ______ ____
ROOT
ATOM      1  N   UNL     1      -3.134   0.559   1.588  0.00  0.00    -0.171 NA
ATOM      2  C   UNL     1      -3.985   1.520   2.293  0.00  0.00    +0.132 C 
ENDROOT
BRANCH   1   3
ATOM      3  S   UNL     1      -2.713   0.827   0.009  0.00  0.00    +0.061 S 
ATOM      4  O   UNL     1      -3.711   1.679  -0.538  0.00  0.00    -0.153 OA
ATOM      5  O   UNL     1      -2.405  -0.442  -0.551  0.00  0.00    -0.153 OA
BRANCH   3   6
ATOM      6  C   UNL     1      -1.213   1.751   0.019  0.00  0.00    +0.106 A 
ATOM      7  C   UNL     1       0.005   1.085   0.017  0.00  0.00    +0.030 A 
ATOM      8  C   UNL     1       1.191   1.787   0.019  0.00  0.00    +0.028 A 
ATOM      9  C   UNL     1       1.169   3.178   0.029  0.00  0.00    +0.049 A 
ATOM     10  C   UNL     1      -0.068   3.850   0.037  0.00  0.00    +0.000 A 
ATOM     11  C   UNL     1      -1.259   3.116   0.035  0.00  0.00    +0.038 A 
ATOM     12  C   UNL     1      -0.080   5.314   0.047  0.00  0.00    +0.015 A 
ATOM     13  C   UNL     1       1.106   5.972   0.049  0.00  0.00    +0.071 A 
ATOM     14  C   UNL     1       2.319   5.250   0.041  0.00  0.00    +0.249 A 
ATOM     15  O   UNL     1       3.373   5.861   0.043  0.00  0.00    -0.268 OA
ATOM     16  N   UNL     1       2.340   3.906   0.031  0.00  0.00    -0.322 N 
ATOM     17  H   UNL     1       3.192   3.442   0.026  0.00  0.00    +0.169 HD
ENDBRANCH   3   6
ENDBRANCH   1   3
BRANCH   1  18
ATOM     18  C   UNL     1      -2.655  -0.640   2.280  0.00  0.00    +0.205 C 
BRANCH  18  20
ATOM     19  N   UNL     1      -0.777  -1.266   3.764  0.00  0.00    -0.284 N 
ATOM     20  C   UNL     1      -1.400  -0.310   3.046  0.00  0.00    +0.233 C 
ATOM     21  O   UNL     1      -0.950   0.816   3.017  0.00  0.00    -0.274 OA
ATOM     22  H   UNL     1      -1.179  -2.145   3.853  0.00  0.00    +0.155 HD
BRANCH  19  27
ATOM     23  C   UNL     1       4.192  -0.153   6.265  0.00  0.00    +0.044 C 
ATOM     24  C   UNL     1       2.872  -0.449   5.601  0.00  0.00    -0.050 A 
ATOM     25  C   UNL     1       2.480   0.277   4.490  0.00  0.00    +0.005 A 
ATOM     26  C   UNL     1       1.271   0.009   3.880  0.00  0.00    +0.024 A 
ATOM     27  C   UNL     1       0.448  -0.992   4.381  0.00  0.00    +0.036 A 
ATOM     28  C   UNL     1       0.842  -1.715   5.499  0.00  0.00    -0.029 A 
ATOM     29  C   UNL     1       2.055  -1.445   6.102  0.00  0.00    +0.008 A 
ATOM     30  C   UNL     1      -0.051  -2.797   6.050  0.00  0.00    +0.045 C 
ENDBRANCH  19  27
ENDBRANCH  18  20
ENDBRANCH   1  18
TORSDOF 5
