REMARK  Name = ZINC05760080
REMARK  3 active torsions:
REMARK  status: ('A' for Active; 'I' for Inactive)
REMARK    1  A    between atoms: C_1  and  C_2
REMARK    2  A    between atoms: N_6  and  C_18
REMARK    3  A    between atoms: C_21  and  O_24
REMARK                            x       y       z     vdW  Elec       q    Type
REMARK                         _______ _______ _______ _____ _____    ______ ____
ROOT
ATOM      1  C   UNL     1       0.972   0.992   0.271  0.00  0.00    +0.029 C 
ATOM      2  C   UNL     1      -0.248   1.572   0.990  0.00  0.00    +0.132 C 
ATOM      3  C   UNL     1      -0.177   3.091   1.056  0.00  0.00    +0.234 C 
ATOM      4  O   UNL     1      -0.429   3.776   0.087  0.00  0.00    -0.274 OA
ATOM      5  N   UNL     1       0.173   3.638   2.220  0.00  0.00    -0.243 N 
ATOM      6  C   UNL     1       0.452   2.763   3.354  0.00  0.00    +0.193 C 
ATOM      7  S   UNL     1      -0.224   1.154   2.789  0.00  0.00    -0.108 S 
ATOM      8  C   UNL     1       1.910   2.650   3.675  0.00  0.00    +0.017 A 
ATOM      9  C   UNL     1       3.023   2.292   2.949  0.00  0.00    +0.009 A 
ATOM     10  C   UNL     1       4.270   2.287   3.547  0.00  0.00    +0.000 A 
ATOM     11  C   UNL     1       4.396   2.642   4.878  0.00  0.00    +0.002 A 
ATOM     12  C   UNL     1       3.284   3.000   5.611  0.00  0.00    +0.024 A 
ATOM     13  C   UNL     1       2.025   3.008   5.017  0.00  0.00    +0.040 A 
ATOM     14  N   UNL     1       0.770   3.328   5.542  0.00  0.00    -0.282 N 
ATOM     15  C   UNL     1      -0.211   3.207   4.623  0.00  0.00    +0.256 C 
ATOM     16  O   UNL     1      -1.394   3.415   4.791  0.00  0.00    -0.272 OA
ATOM     17  H   UNL     1       0.621   3.605   6.459  0.00  0.00    +0.155 HD
ENDROOT
BRANCH   5  18
ATOM     18  C   UNL     1       0.271   5.030   2.352  0.00  0.00    +0.039 A 
ATOM     19  C   UNL     1      -0.861   5.782   2.639  0.00  0.00    +0.027 A 
ATOM     20  C   UNL     1      -0.763   7.152   2.774  0.00  0.00    +0.047 A 
ATOM     21  C   UNL     1       0.464   7.780   2.612  0.00  0.00    +0.117 A 
ATOM     22  C   UNL     1       1.594   7.030   2.321  0.00  0.00    +0.047 A 
ATOM     23  C   UNL     1       1.498   5.658   2.191  0.00  0.00    +0.027 A 
BRANCH  21  24
ATOM     24  O   UNL     1       0.558   9.130   2.739  0.00  0.00    -0.507 OA
ATOM     25  H   UNL     1       0.424   9.613   1.912  0.00  0.00    +0.292 HD
ENDBRANCH  21  24
ENDBRANCH   5  18
TORSDOF 2
