REMARK  Name = ZINC67410175
REMARK  6 active torsions:
REMARK  status: ('A' for Active; 'I' for Inactive)
REMARK    1  A    between atoms: C_1  and  C_2
REMARK    2  A    between atoms: C_2  and  C_3
REMARK    3  A    between atoms: C_2  and  C_4
REMARK    4  A    between atoms: C_2  and  C_5
REMARK    5  A    between atoms: N_16  and  C_17
REMARK    6  A    between atoms: C_17  and  C_18
REMARK                            x       y       z     vdW  Elec       q    Type
REMARK                         _______ _______ _______ _____ _____    ______ ____
ROOT
ATOM      1  C   UNL     1       0.433  -0.429  -1.237  0.00  0.00    +0.221 C 
ATOM      2  O   UNL     1       1.058   0.282  -1.995  0.00  0.00    -0.275 OA
ATOM      3  N   UNL     1       0.108  -1.685  -1.604  0.00  0.00    -0.299 N 
ATOM      4  C   UNL     1       0.444  -2.193  -2.888  0.00  0.00    +0.109 C 
ATOM      5  C   UNL     1      -0.572  -1.826  -4.019  0.00  0.00    +0.038 C 
ATOM      6  C   UNL     1      -2.005  -1.892  -3.397  0.00  0.00    +0.111 C 
ATOM      7  N   UNL     1      -2.197  -2.948  -2.465  0.00  0.00    -0.284 N 
ATOM      8  C   UNL     1      -2.034  -2.616  -1.026  0.00  0.00    +0.128 C 
ATOM      9  C   UNL     1      -0.611  -2.600  -0.681  0.00  0.00    +0.126 C 
ATOM     10  C   UNL     1      -2.513  -4.194  -2.868  0.00  0.00    +0.302 C 
ATOM     11  O   UNL     1      -2.640  -4.436  -4.053  0.00  0.00    -0.253 OA
ATOM     12  N   UNL     1      -2.689  -5.173  -1.958  0.00  0.00    -0.299 N 
ATOM     13  H   UNL     1      -2.588  -4.980  -1.013  0.00  0.00    +0.150 HD
ENDROOT
BRANCH   1  15
ATOM     14  C   UNL     1       0.308   1.592   0.195  0.00  0.00    +0.020 C 
ATOM     15  C   UNL     1       0.020   0.092   0.116  0.00  0.00    +0.039 C 
ATOM     16  C   UNL     1       0.808  -0.637   1.206  0.00  0.00    +0.020 C 
ATOM     17  C   UNL     1      -1.477  -0.151   0.320  0.00  0.00    +0.020 C 
ENDBRANCH   1  15
BRANCH  12  18
ATOM     18  C   UNL     1      -3.033  -6.527  -2.397  0.00  0.00    +0.109 C 
BRANCH  18  19
ATOM     19  C   UNL     1      -3.175  -7.438  -1.175  0.00  0.00    +0.010 C 
ATOM     20  C   UNL     1      -3.422  -8.881  -1.634  0.00  0.00    +0.009 C 
ATOM     21  C   UNL     1      -3.381  -9.793  -0.406  0.00  0.00    +0.027 C 
ATOM     22  C   UNL     1      -4.256  -9.238   0.679  0.00  0.00    -0.031 C 
ATOM     23  C   UNL     1      -4.682  -8.016   0.714  0.00  0.00    -0.031 C 
ATOM     24  C   UNL     1      -4.366  -6.984  -0.330  0.00  0.00    +0.032 C 
ENDBRANCH  18  19
ENDBRANCH  12  18
TORSDOF 3
