REMARK  Name = ZINC63829982
REMARK  6 active torsions:
REMARK  status: ('A' for Active; 'I' for Inactive)
REMARK    1  A    between atoms: C_1  and  N_2
REMARK    2  A    between atoms: N_2  and  C_3
REMARK    3  A    between atoms: C_14  and  C_16
REMARK    4  A    between atoms: C_16  and  S_17
REMARK    5  A    between atoms: S_17  and  C_18
REMARK    6  A    between atoms: C_21  and  C_23
REMARK                            x       y       z     vdW  Elec       q    Type
REMARK                         _______ _______ _______ _____ _____    ______ ____
ROOT
ATOM      1  S   UNL     1      -0.020  -1.082  -3.855  0.00  0.00    -0.056 S 
ENDROOT
BRANCH   1   2
ATOM      2  C   UNL     1      -0.047  -0.052  -5.284  0.00  0.00    +0.278 A 
ATOM      3  N   UNL     1      -0.060   1.272  -5.294  0.00  0.00    -0.101 NA
ATOM      4  N   UNL     1      -0.079   1.689  -6.511  0.00  0.00    -0.107 NA
ATOM      5  C   UNL     1      -0.080   0.649  -7.329  0.00  0.00    +0.248 A 
ATOM      6  O   UNL     1      -0.054  -0.468  -6.563  0.00  0.00    -0.411 OA
BRANCH   5   7
ATOM      7  C   UNL     1      -0.098   0.694  -8.731  0.00  0.00    +0.044 C 
ATOM      8  C   UNL     1      -0.112   1.832  -9.537  0.00  0.00    +0.008 A 
ATOM      9  C   UNL     1      -0.114   3.212  -9.240  0.00  0.00    +0.010 A 
ATOM     10  C   UNL     1      -0.130   4.119 -10.251  0.00  0.00    +0.001 A 
ATOM     11  C   UNL     1      -0.146   3.722 -11.589  0.00  0.00    +0.002 A 
ATOM     12  C   UNL     1      -0.145   2.414 -11.948  0.00  0.00    +0.026 A 
ATOM     13  C   UNL     1      -0.128   1.408 -10.947  0.00  0.00    +0.043 A 
ATOM     14  N   UNL     1      -0.124   0.093 -11.033  0.00  0.00    -0.380 N 
ATOM     15  C   UNL     1      -0.099  -0.480  -9.684  0.00  0.00    +0.154 C 
ATOM     16  H   UNL     1      -0.132  -0.416 -11.859  0.00  0.00    +0.160 HD
ENDBRANCH   5   7
ENDBRANCH   1   2
BRANCH   1  17
ATOM     17  C   UNL     1      -0.023   0.089  -2.470  0.00  0.00    +0.174 C 
BRANCH  17  20
ATOM     18  C   UNL     1      -0.018   1.461   0.010  0.00  0.00    +0.132 C 
ATOM     19  N   UNL     1       0.002  -0.004   0.002  0.00  0.00    -0.297 N 
ATOM     20  C   UNL     1       0.000  -0.672  -1.169  0.00  0.00    +0.226 C 
ATOM     21  O   UNL     1       0.017  -1.884  -1.175  0.00  0.00    -0.275 OA
BRANCH  19  22
ATOM     22  C   UNL     1       0.024  -0.743   1.267  0.00  0.00    +0.106 C 
ATOM     23  C   UNL     1       1.282  -0.368   2.047  0.00  0.00    +0.027 C 
ATOM     24  C   UNL     1       1.180  -0.978   3.451  0.00  0.00    +0.007 C 
ATOM     25  C   UNL     1       0.091  -0.234   4.221  0.00  0.00    +0.035 C 
ATOM     26  C   UNL     1      -1.181  -0.177   3.417  0.00  0.00    -0.042 A 
ATOM     27  C   UNL     1      -1.211  -0.407   2.060  0.00  0.00    -0.024 A 
ATOM     28  C   UNL     1      -2.418  -0.332   1.377  0.00  0.00    +0.006 A 
ATOM     29  C   UNL     1      -3.586  -0.033   2.048  0.00  0.00    +0.000 A 
ATOM     30  C   UNL     1      -3.556   0.194   3.411  0.00  0.00    +0.000 A 
ATOM     31  C   UNL     1      -2.359   0.121   4.090  0.00  0.00    +0.004 A 
ENDBRANCH  19  22
ENDBRANCH  17  20
ENDBRANCH   1  17
TORSDOF 5
