REMARK  Name = ZINC34724658
REMARK  7 active torsions:
REMARK  status: ('A' for Active; 'I' for Inactive)
REMARK    1  A    between atoms: C_1  and  C_2
REMARK    2  A    between atoms: C_5  and  C_19
REMARK    3  A    between atoms: C_6  and  C_8
REMARK    4  A    between atoms: C_14  and  C_16
REMARK    5  A    between atoms: C_16  and  C_17
REMARK    6  A    between atoms: C_16  and  C_18
REMARK    7  A    between atoms: N_24  and  C_27
REMARK                            x       y       z     vdW  Elec       q    Type
REMARK                         _______ _______ _______ _____ _____    ______ ____
ROOT
ATOM      1  C   UNL     1      -0.709   2.338   0.240  0.00  0.00    +0.065 C 
ATOM      2  C   UNL     1      -0.529   0.852   0.060  0.00  0.00    +0.039 A 
ATOM      3  C   UNL     1      -0.411   0.330  -1.215  0.00  0.00    +0.024 A 
ATOM      4  C   UNL     1      -0.246  -1.034  -1.376  0.00  0.00    +0.016 A 
ATOM      5  C   UNL     1      -0.204  -1.837  -0.230  0.00  0.00    +0.058 A 
ATOM      6  C   UNL     1      -0.330  -1.233   1.021  0.00  0.00    +0.057 A 
ATOM      7  N   UNL     1      -0.480   0.071   1.123  0.00  0.00    -0.256 NA
ENDROOT
BRANCH   5   8
ATOM      8  C   UNL     1      -0.030  -3.301  -0.344  0.00  0.00    +0.248 C 
ATOM      9  O   UNL     1      -0.804  -4.051   0.218  0.00  0.00    -0.270 OA
ATOM     10  N   UNL     1       0.988  -3.804  -1.071  0.00  0.00    -0.301 N 
ATOM     11  C   UNL     1       2.003  -2.920  -1.664  0.00  0.00    +0.089 C 
ATOM     12  C   UNL     1       3.390  -3.453  -1.290  0.00  0.00    -0.059 C 
ATOM     13  N   UNL     1       3.499  -4.859  -1.696  0.00  0.00    +0.384 N 
ATOM     14  C   UNL     1       2.543  -5.675  -0.936  0.00  0.00    -0.059 C 
ATOM     15  C   UNL     1       1.118  -5.253  -1.289  0.00  0.00    +0.089 C 
ATOM     16  H   UNL     1       3.298  -4.939  -2.682  0.00  0.00    -0.081 HD
BRANCH  13  17
ATOM     17  C   UNL     1       4.863  -5.338  -1.438  0.00  0.00    -0.068 C 
ATOM     18  C   UNL     1       5.873  -4.544  -2.292  0.00  0.00    -0.015 C 
ATOM     19  C   UNL     1       6.933  -5.596  -2.703  0.00  0.00    -0.002 C 
ATOM     20  C   UNL     1       6.078  -6.862  -2.955  0.00  0.00    -0.002 C 
ATOM     21  C   UNL     1       4.994  -6.812  -1.859  0.00  0.00    -0.015 C 
ENDBRANCH  13  17
ENDBRANCH   5   8
BRANCH   6  22
ATOM     22  C   UNL     1      -0.287  -2.079   2.267  0.00  0.00    +0.041 C 
ATOM     23  C   UNL     1      -1.649  -2.029   2.964  0.00  0.00    +0.029 C 
ATOM     24  C   UNL     1      -1.613  -2.918   4.211  0.00  0.00    +0.108 C 
ATOM     25  N   UNL     1      -0.486  -2.501   5.057  0.00  0.00    -0.301 N 
ATOM     26  C   UNL     1       0.855  -2.427   4.461  0.00  0.00    +0.108 C 
ATOM     27  C   UNL     1       0.791  -1.543   3.211  0.00  0.00    +0.029 C 
ATOM     28  C   UNL     1      -0.679  -2.191   6.354  0.00  0.00    +0.218 C 
ATOM     29  O   UNL     1      -1.768  -2.355   6.861  0.00  0.00    -0.275 OA
BRANCH  28  30
ATOM     30  C   UNL     1       0.460  -1.643   7.176  0.00  0.00    +0.069 C 
ATOM     31  C   UNL     1      -0.089  -1.048   8.474  0.00  0.00    +0.017 C 
ATOM     32  C   UNL     1       1.441  -2.770   7.505  0.00  0.00    +0.017 C 
ENDBRANCH  28  30
ENDBRANCH   6  22
TORSDOF 4
