REMARK  Name = ZINC39134178
REMARK  5 active torsions:
REMARK  status: ('A' for Active; 'I' for Inactive)
REMARK    1  A    between atoms: C_4  and  C_7
REMARK    2  A    between atoms: C_7  and  O_8
REMARK    3  A    between atoms: O_8  and  C_9
REMARK    4  A    between atoms: C_13  and  C_19
REMARK    5  A    between atoms: C_20  and  C_25
REMARK                            x       y       z     vdW  Elec       q    Type
REMARK                         _______ _______ _______ _____ _____    ______ ____
ROOT
ATOM      1  C   UNL     1       5.353  -2.467   1.273  0.00  0.00    +0.190 C 
ATOM      2  C   UNL     1       5.724  -2.469   2.565  0.00  0.00    +0.052 C 
ATOM      3  C   UNL     1       7.158  -2.791   2.888  0.00  0.00    +0.100 C 
ATOM      4  C   UNL     1       7.338  -3.648   4.111  0.00  0.00    +0.011 C 
ATOM      5  C   UNL     1       8.017  -4.743   3.668  0.00  0.00    +0.117 C 
ATOM      6  N   UNL     1       8.204  -4.721   2.347  0.00  0.00    -0.257 NA
ATOM      7  C   UNL     1       7.647  -3.692   1.762  0.00  0.00    +0.069 C 
ATOM      8  C   UNL     1       7.310  -3.421   0.421  0.00  0.00    +0.110 C 
ATOM      9  N   UNL     1       6.169  -2.782   0.244  0.00  0.00    -0.331 N 
ATOM     10  H   UNL     1       5.911  -2.526  -0.655  0.00  0.00    +0.168 HD
ENDROOT
BRANCH   4  11
ATOM     11  C   UNL     1       6.883  -3.368   5.478  0.00  0.00    +0.091 A 
ATOM     12  C   UNL     1       6.163  -4.211   6.280  0.00  0.00    +0.051 A 
ATOM     13  N   UNL     1       5.958  -3.553   7.456  0.00  0.00    -0.347 N 
ATOM     14  H   UNL     1       5.478  -3.893   8.226  0.00  0.00    +0.167 HD
ATOM     15  C   UNL     1       6.550  -2.335   7.353  0.00  0.00    +0.197 A 
ATOM     16  N   UNL     1       7.104  -2.227   6.180  0.00  0.00    -0.236 NA
BRANCH  12  17
ATOM     17  C   UNL     1       5.687  -5.597   5.930  0.00  0.00    +0.068 C 
ATOM     18  C   UNL     1       6.329  -6.605   6.881  0.00  0.00    +0.015 C 
ATOM     19  C   UNL     1       5.671  -7.971   6.655  0.00  0.00    +0.006 C 
ATOM     20  C   UNL     1       4.237  -7.908   7.176  0.00  0.00    +0.035 C 
ATOM     21  C   UNL     1       3.519  -6.712   6.606  0.00  0.00    -0.044 A 
ATOM     22  C   UNL     1       4.186  -5.649   6.039  0.00  0.00    -0.035 A 
ATOM     23  C   UNL     1       3.463  -4.574   5.538  0.00  0.00    +0.004 A 
ATOM     24  C   UNL     1       2.085  -4.564   5.603  0.00  0.00    +0.000 A 
ATOM     25  C   UNL     1       1.417  -5.633   6.171  0.00  0.00    +0.000 A 
ATOM     26  C   UNL     1       2.132  -6.701   6.668  0.00  0.00    +0.004 A 
ENDBRANCH  12  17
ENDBRANCH   4  11
BRANCH   1  27
ATOM     27  O   UNL     1       4.069  -2.132   0.983  0.00  0.00    -0.473 OA
BRANCH  27  28
ATOM     28  C   UNL     1       3.691  -2.142  -0.395  0.00  0.00    +0.266 C 
BRANCH  28  32
ATOM     29  C   UNL     1      -0.416  -1.022  -0.755  0.00  0.00    +0.000 A 
ATOM     30  C   UNL     1       0.570  -0.054  -0.792  0.00  0.00    +0.000 A 
ATOM     31  C   UNL     1       1.899  -0.416  -0.675  0.00  0.00    +0.007 A 
ATOM     32  C   UNL     1       2.242  -1.747  -0.521  0.00  0.00    -0.010 A 
ATOM     33  C   UNL     1       1.256  -2.715  -0.483  0.00  0.00    +0.007 A 
ATOM     34  C   UNL     1      -0.073  -2.353  -0.602  0.00  0.00    +0.000 A 
ENDBRANCH  28  32
ENDBRANCH  27  28
ENDBRANCH   1  27
TORSDOF 5
