REMARK  Name = ZINC64428152
REMARK  4 active torsions:
REMARK  status: ('A' for Active; 'I' for Inactive)
REMARK    1  A    between atoms: C_9  and  C_12
REMARK    2  A    between atoms: C_13  and  C_14
REMARK    3  A    between atoms: N_16  and  N_17
REMARK    4  A    between atoms: N_20  and  C_21
REMARK                            x       y       z     vdW  Elec       q    Type
REMARK                         _______ _______ _______ _____ _____    ______ ____
ROOT
ATOM      1  C   UNL     1       6.080  -0.517   0.276  0.00  0.00    +0.012 C 
ATOM      2  C   UNL     1       7.177   0.213   0.604  0.00  0.00    +0.069 C 
ENDROOT
BRANCH   1  11
ATOM      3  C   UNL     1      -0.017   1.382   0.010  0.00  0.00    +0.023 A 
ATOM      4  C   UNL     1       1.164   2.103   0.002  0.00  0.00    +0.048 A 
ATOM      5  C   UNL     1       2.376   1.439  -0.013  0.00  0.00    +0.128 A 
ATOM      6  C   UNL     1       2.399   0.033  -0.020  0.00  0.00    +0.018 A 
ATOM      7  C   UNL     1       1.204  -0.685  -0.013  0.00  0.00    +0.031 A 
ATOM      8  C   UNL     1       0.002  -0.004   0.002  0.00  0.00    +0.042 A 
ATOM      9 CL   UNL     1      -1.492  -0.888   0.011  0.00  0.00    -0.084 Cl
ATOM     10  C   UNL     1       3.702  -0.648  -0.035  0.00  0.00    +0.018 C 
ATOM     11  C   UNL     1       4.803   0.081   0.293  0.00  0.00    -0.010 C 
ATOM     12  C   UNL     1       4.651   1.531   0.674  0.00  0.00    +0.264 C 
ATOM     13  O   UNL     1       3.551   2.117  -0.021  0.00  0.00    -0.487 OA
ENDBRANCH   1  11
BRANCH   2  14
ATOM     14  C   UNL     1       8.459  -0.387   0.587  0.00  0.00    +0.253 C 
ATOM     15  O   UNL     1       8.578  -1.559   0.278  0.00  0.00    -0.269 OA
ATOM     16  N   UNL     1       9.547   0.338   0.912  0.00  0.00    -0.230 N 
ATOM     17  H   UNL     1       9.452   1.272   1.158  0.00  0.00    +0.173 HD
BRANCH  16  18
ATOM     18  N   UNL     1      10.815  -0.256   0.895  0.00  0.00    -0.218 N 
ATOM     19  C   UNL     1      11.904   0.469   1.220  0.00  0.00    +0.316 C 
ATOM     20  O   UNL     1      13.005  -0.047   1.206  0.00  0.00    -0.251 OA
ATOM     21  N   UNL     1      11.772   1.766   1.562  0.00  0.00    -0.295 N 
ATOM     22  H   UNL     1      10.910  -1.190   0.649  0.00  0.00    +0.174 HD
ATOM     23  H   UNL     1      10.894   2.178   1.574  0.00  0.00    +0.151 HD
BRANCH  21  24
ATOM     24  C   UNL     1      12.955   2.554   1.916  0.00  0.00    +0.075 C 
ATOM     25  C   UNL     1      12.853   3.474   3.134  0.00  0.00    +0.024 C 
ATOM     26  C   UNL     1      12.877   4.070   1.725  0.00  0.00    +0.024 C 
ENDBRANCH  21  24
ENDBRANCH  16  18
ENDBRANCH   2  14
TORSDOF 4
