REMARK  Name = ZINC32787238
REMARK  6 active torsions:
REMARK  status: ('A' for Active; 'I' for Inactive)
REMARK    1  A    between atoms: C_1  and  C_2
REMARK    2  A    between atoms: C_2  and  C_3
REMARK    3  A    between atoms: C_3  and  N_4
REMARK    4  A    between atoms: N_4  and  C_5
REMARK    5  A    between atoms: C_5  and  C_6
REMARK    6  A    between atoms: C_18  and  C_20
REMARK                            x       y       z     vdW  Elec       q    Type
REMARK                         _______ _______ _______ _____ _____    ______ ____
ROOT
ATOM      1  N   UNL     1       2.264   8.106   0.122  0.00  0.00    -0.290 N 
ATOM      2  C   UNL     1       1.102   7.429   0.023  0.00  0.00    +0.251 C 
ATOM      3  O   UNL     1       0.052   8.035  -0.071  0.00  0.00    -0.270 OA
ENDROOT
BRANCH   2   4
ATOM      4  C   UNL     1       1.105   5.956   0.028  0.00  0.00    +0.084 A 
ATOM      5  C   UNL     1       1.716   5.261   1.089  0.00  0.00    +0.017 A 
ATOM      6  C   UNL     1       1.731   3.906   1.117  0.00  0.00    +0.009 A 
ATOM      7  C   UNL     1       1.133   3.169   0.076  0.00  0.00    -0.014 A 
ATOM      8  C   UNL     1       1.140   1.764   0.088  0.00  0.00    +0.008 A 
ATOM      9  C   UNL     1       0.554   1.077  -0.931  0.00  0.00    +0.001 A 
ATOM     10  C   UNL     1      -0.051   1.747  -1.992  0.00  0.00    +0.001 A 
ATOM     11  C   UNL     1      -0.082   3.108  -2.034  0.00  0.00    +0.012 A 
ATOM     12  C   UNL     1       0.513   3.849  -1.000  0.00  0.00    +0.030 A 
ATOM     13  C   UNL     1       0.504   5.259  -1.017  0.00  0.00    +0.199 A 
ATOM     14  O   UNL     1      -0.083   5.928  -2.038  0.00  0.00    -0.286 OA
ENDBRANCH   2   4
BRANCH   1  15
ATOM     15  C   UNL     1       3.537   7.381   0.112  0.00  0.00    +0.108 C 
BRANCH  15  17
ATOM     16  C   UNL     1       5.426   6.596  -1.322  0.00  0.00    +0.005 C 
ATOM     17  C   UNL     1       4.096   7.353  -1.311  0.00  0.00    +0.016 C 
ENDBRANCH  15  17
ENDBRANCH   1  15
BRANCH   1  18
ATOM     18  C   UNL     1       2.253   9.566   0.240  0.00  0.00    +0.182 C 
BRANCH  18  19
ATOM     19  C   UNL     1       2.196   9.952   1.696  0.00  0.00    +0.128 A 
ATOM     20  N   UNL     1       2.184  11.273   2.013  0.00  0.00    -0.309 N 
ATOM     21  C   UNL     1       2.132  11.672   3.305  0.00  0.00    +0.259 A 
ATOM     22  O   UNL     1       2.120  12.852   3.602  0.00  0.00    -0.267 OA
ATOM     23  C   UNL     1       2.102  10.624   4.336  0.00  0.00    +0.065 A 
ATOM     24  C   UNL     1       2.059  10.928   5.695  0.00  0.00    +0.017 A 
ATOM     25  C   UNL     1       2.033   9.916   6.614  0.00  0.00    +0.021 A 
ATOM     26  C   UNL     1       2.048   8.587   6.207  0.00  0.00    +0.043 A 
ATOM     27  C   UNL     1       2.089   8.260   4.868  0.00  0.00    +0.048 A 
ATOM     28  C   UNL     1       2.112   9.277   3.912  0.00  0.00    +0.080 A 
ATOM     29  N   UNL     1       2.160   9.005   2.584  0.00  0.00    -0.232 NA
ATOM     30 CL   UNL     1       2.012   7.325   7.398  0.00  0.00    -0.083 Cl
ATOM     31  H   UNL     1       2.216  12.030   1.215  0.00  0.00    +0.170 HD
ENDBRANCH  18  19
ENDBRANCH   1  18
TORSDOF 5
