REMARK  Name = ZINC46496033
REMARK  2 active torsions:
REMARK  status: ('A' for Active; 'I' for Inactive)
REMARK    1  A    between atoms: C_2  and  C_9
REMARK    2  A    between atoms: C_5  and  N_6
REMARK                            x       y       z     vdW  Elec       q    Type
REMARK                         _______ _______ _______ _____ _____    ______ ____
ROOT
ATOM      1  C   UNL     1       1.404   3.454   0.007  0.00  0.00    +0.248 C 
ATOM      2  O   UNL     1       0.410   4.153  -0.050  0.00  0.00    -0.270 OA
ATOM      3  N   UNL     1       2.623   4.023   0.100  0.00  0.00    -0.290 N 
ATOM      4  C   UNL     1       3.852   3.210   0.081  0.00  0.00    +0.136 C 
ATOM      5  C   UNL     1       4.733   3.618   1.266  0.00  0.00    +0.179 C 
ATOM      6  O   UNL     1       4.901   5.040   1.280  0.00  0.00    -0.373 OA
ATOM      7  C   UNL     1       3.678   5.756   1.435  0.00  0.00    +0.139 C 
ATOM      8  C   UNL     1       2.780   5.478   0.218  0.00  0.00    +0.105 C 
ATOM      9  C   UNL     1       1.429   6.157   0.432  0.00  0.00    +0.025 C 
ATOM     10  C   UNL     1       1.647   7.669   0.548  0.00  0.00    +0.002 C 
ATOM     11  C   UNL     1       2.576   7.974   1.723  0.00  0.00    +0.003 C 
ATOM     12  C   UNL     1       3.921   7.261   1.522  0.00  0.00    +0.033 C 
ENDROOT
BRANCH   1  14
ATOM     13  C   UNL     1       0.274   1.300   0.749  0.00  0.00    +0.053 A 
ATOM     14  C   UNL     1       1.277   1.988  -0.026  0.00  0.00    +0.046 A 
ATOM     15  C   UNL     1       2.109   1.210  -0.799  0.00  0.00    +0.060 A 
ATOM     16  S   UNL     1       1.588  -0.359  -0.512  0.00  0.00    -0.072 S 
ATOM     17  C   UNL     1       0.261  -0.043   0.631  0.00  0.00    +0.164 A 
BRANCH  17  18
ATOM     18  N   UNL     1      -0.637  -1.017   1.291  0.00  0.00    +0.063 N 
ATOM     19  O   UNL     1      -1.496  -0.630   2.049  0.00  0.00    -0.126 OA
ATOM     20  O   UNL     1      -0.511  -2.200   1.073  0.00  0.00    -0.126 OA
ENDBRANCH  17  18
ENDBRANCH   1  14
TORSDOF 2
