REMARK  Name = ZINC39550481
REMARK  5 active torsions:
REMARK  status: ('A' for Active; 'I' for Inactive)
REMARK    1  A    between atoms: C_4  and  C_7
REMARK    2  A    between atoms: C_9  and  C_22
REMARK    3  A    between atoms: C_12  and  C_13
REMARK    4  A    between atoms: C_16  and  N_19
REMARK    5  A    between atoms: C_27  and  O_28
REMARK                            x       y       z     vdW  Elec       q    Type
REMARK                         _______ _______ _______ _____ _____    ______ ____
ROOT
ATOM      1  C   UNL     1       3.699  -0.718  -0.260  0.00  0.00    +0.094 C 
ATOM      2  N   UNL     1       4.866  -0.147  -0.292  0.00  0.00    -0.250 NA
ATOM      3  C   UNL     1       5.867  -1.182  -0.001  0.00  0.00    +0.256 C 
ATOM      4  N   UNL     1       5.121  -2.430   0.204  0.00  0.00    -0.250 NA
ATOM      5  C   UNL     1       3.860  -2.156   0.058  0.00  0.00    +0.094 C 
ENDROOT
BRANCH   1   9
ATOM      6  C   UNL     1      -0.008   1.244  -0.944  0.00  0.00    +0.000 A 
ATOM      7  C   UNL     1       0.172  -0.058  -1.376  0.00  0.00    +0.001 A 
ATOM      8  C   UNL     1       1.373  -0.700  -1.157  0.00  0.00    +0.010 A 
ATOM      9  C   UNL     1       2.408  -0.034  -0.499  0.00  0.00    +0.002 A 
ATOM     10  C   UNL     1       2.220   1.279  -0.067  0.00  0.00    +0.010 A 
ATOM     11  C   UNL     1       1.014   1.911  -0.291  0.00  0.00    +0.001 A 
ENDBRANCH   1   9
BRANCH   5  12
ATOM     12  C   UNL     1       2.753  -3.131   0.185  0.00  0.00    +0.002 A 
ATOM     13  C   UNL     1       2.928  -4.448  -0.242  0.00  0.00    +0.012 A 
ATOM     14  C   UNL     1       1.893  -5.353  -0.121  0.00  0.00    +0.033 A 
ATOM     15  C   UNL     1       0.683  -4.956   0.422  0.00  0.00    +0.126 A 
ATOM     16  C   UNL     1       0.504  -3.651   0.846  0.00  0.00    +0.033 A 
ATOM     17  C   UNL     1       1.533  -2.739   0.736  0.00  0.00    +0.012 A 
BRANCH  15  18
ATOM     18  N   UNL     1      -0.423  -5.931   0.549  0.00  0.00    +0.056 N 
ATOM     19  O   UNL     1      -0.269  -7.072   0.179  0.00  0.00    -0.126 OA
ATOM     20  O   UNL     1      -1.480  -5.587   1.023  0.00  0.00    -0.126 OA
ENDBRANCH  15  18
ENDBRANCH   5  12
BRANCH   3  21
ATOM     21  C   UNL     1       6.814  -1.328  -1.164  0.00  0.00    +0.040 A 
ATOM     22  C   UNL     1       7.295  -2.575  -1.512  0.00  0.00    +0.011 A 
ATOM     23  C   UNL     1       8.164  -2.710  -2.578  0.00  0.00    +0.001 A 
ATOM     24  C   UNL     1       8.554  -1.597  -3.300  0.00  0.00    +0.004 A 
ATOM     25  C   UNL     1       8.075  -0.347  -2.957  0.00  0.00    +0.046 A 
ATOM     26  C   UNL     1       7.199  -0.210  -1.890  0.00  0.00    +0.124 A 
BRANCH  26  27
ATOM     27  O   UNL     1       6.722   1.017  -1.554  0.00  0.00    -0.506 OA
ATOM     28  H   UNL     1       7.270   1.490  -0.912  0.00  0.00    +0.292 HD
ENDBRANCH  26  27
ENDBRANCH   3  21
TORSDOF 5
