REMARK  Name = ZINC49383168
REMARK  4 active torsions:
REMARK  status: ('A' for Active; 'I' for Inactive)
REMARK    1  A    between atoms: C_1  and  C_2
REMARK    2  A    between atoms: C_13  and  C_15
REMARK    3  A    between atoms: C_15  and  N_16
REMARK    4  A    between atoms: N_19  and  C_22
REMARK                            x       y       z     vdW  Elec       q    Type
REMARK                         _______ _______ _______ _____ _____    ______ ____
ROOT
ATOM      1  C   UNL     1       2.138  -0.237   3.251  0.00  0.00    +0.205 C 
ENDROOT
BRANCH   1  13
ATOM      2  C   UNL     1       2.002  -2.301   2.244  0.00  0.00    +0.028 C 
ATOM      3  C   UNL     1       0.726  -1.964   1.468  0.00  0.00    +0.079 C 
ATOM      4  C   UNL     1       0.805  -2.558   0.056  0.00  0.00    +0.027 C 
ATOM      5  C   UNL     1      -0.507  -2.270  -0.675  0.00  0.00    +0.039 C 
ATOM      6  C   UNL     1      -0.846  -0.805  -0.592  0.00  0.00    -0.023 A 
ATOM      7  C   UNL     1      -1.723  -0.267  -1.519  0.00  0.00    +0.043 A 
ATOM      8  C   UNL     1      -2.056   1.075  -1.468  0.00  0.00    +0.124 A 
ATOM      9  C   UNL     1      -1.514   1.888  -0.486  0.00  0.00    +0.040 A 
ATOM     10  C   UNL     1      -0.640   1.357   0.441  0.00  0.00    +0.026 A 
ATOM     11  C   UNL     1      -0.302   0.010   0.389  0.00  0.00    +0.040 A 
ATOM     12  N   UNL     1       0.594  -0.506   1.337  0.00  0.00    -0.267 N 
ATOM     13  C   UNL     1       1.323   0.321   2.112  0.00  0.00    +0.237 C 
ATOM     14  O   UNL     1       1.324   1.514   1.893  0.00  0.00    -0.274 OA
ATOM     15  F   UNL     1      -2.911   1.593  -2.376  0.00  0.00    -0.205 F 
ENDBRANCH   1  13
BRANCH   1  16
ATOM     16  N   UNL     1       2.707   0.865   4.030  0.00  0.00    -0.275 N 
ATOM     17  C   UNL     1       4.009   1.502   3.780  0.00  0.00    +0.129 C 
ATOM     18  C   UNL     1       4.108   2.582   4.874  0.00  0.00    +0.134 C 
ATOM     19  N   UNL     1       2.851   2.440   5.625  0.00  0.00    -0.254 N 
ATOM     20  C   UNL     1       2.122   1.457   5.080  0.00  0.00    +0.310 C 
ATOM     21  O   UNL     1       1.030   1.129   5.502  0.00  0.00    -0.252 OA
BRANCH  19  22
ATOM     22  C   UNL     1       2.474   3.213   6.730  0.00  0.00    +0.041 A 
ATOM     23  C   UNL     1       1.211   3.060   7.286  0.00  0.00    +0.026 A 
ATOM     24  C   UNL     1       0.839   3.823   8.376  0.00  0.00    +0.043 A 
ATOM     25  C   UNL     1       1.725   4.740   8.915  0.00  0.00    +0.159 A 
ATOM     26  C   UNL     1       2.987   4.895   8.362  0.00  0.00    +0.160 A 
ATOM     27  C   UNL     1       3.364   4.128   7.274  0.00  0.00    +0.064 A 
ATOM     28  F   UNL     1       3.850   5.790   8.889  0.00  0.00    -0.202 F 
ATOM     29  F   UNL     1       1.360   5.485   9.981  0.00  0.00    -0.202 F 
ENDBRANCH  19  22
ENDBRANCH   1  16
TORSDOF 3
