REMARK  Name = ZINC35518521
REMARK  6 active torsions:
REMARK  status: ('A' for Active; 'I' for Inactive)
REMARK    1  A    between atoms: C_1  and  O_2
REMARK    2  A    between atoms: O_2  and  C_3
REMARK    3  A    between atoms: C_6  and  C_9
REMARK    4  A    between atoms: C_9  and  C_10
REMARK    5  A    between atoms: C_10  and  N_11
REMARK    6  A    between atoms: N_27  and  C_28
REMARK                            x       y       z     vdW  Elec       q    Type
REMARK                         _______ _______ _______ _____ _____    ______ ____
ROOT
ATOM      1  N   UNL     1      -6.739  -3.548  -1.396  0.00  0.00    -0.298 N 
ATOM      2  C   UNL     1      -6.776  -4.905  -1.391  0.00  0.00    +0.203 A 
ATOM      3  N   UNL     1      -7.911  -5.551  -1.383  0.00  0.00    -0.230 NA
ATOM      4  C   UNL     1      -9.069  -4.897  -1.379  0.00  0.00    +0.116 A 
ATOM      5  C   UNL     1      -9.132  -3.495  -1.383  0.00  0.00    +0.076 A 
ATOM      6  C   UNL     1      -7.869  -2.817  -1.387  0.00  0.00    +0.262 A 
ATOM      7  O   UNL     1      -7.819  -1.599  -1.386  0.00  0.00    -0.267 OA
ATOM      8  C   UNL     1     -10.475  -2.913  -1.378  0.00  0.00    -0.020 A 
ATOM      9  C   UNL     1     -11.512  -3.776  -1.372  0.00  0.00    +0.013 A 
ATOM     10  S   UNL     1     -10.775  -5.387  -1.368  0.00  0.00    -0.072 S 
ATOM     11  C   UNL     1     -12.972  -3.432  -1.374  0.00  0.00    +0.152 C 
ATOM     12  N   UNL     1     -13.078  -1.977  -1.149  0.00  0.00    -0.280 N 
ATOM     13  C   UNL     1     -12.125  -1.111  -1.860  0.00  0.00    +0.114 C 
ATOM     14  C   UNL     1     -10.706  -1.404  -1.374  0.00  0.00    +0.056 C 
ATOM     15  C   UNL     1     -14.011  -1.462  -0.325  0.00  0.00    +0.303 C 
ATOM     16  O   UNL     1     -14.077  -0.260  -0.157  0.00  0.00    -0.253 OA
ATOM     17  N   UNL     1     -14.871  -2.280   0.314  0.00  0.00    -0.296 N 
ATOM     18  H   UNL     1     -14.818  -3.239   0.180  0.00  0.00    +0.151 HD
ENDROOT
BRANCH  17  19
ATOM     19  C   UNL     1     -15.885  -1.720   1.211  0.00  0.00    +0.074 C 
ATOM     20  C   UNL     1     -15.279  -1.513   2.600  0.00  0.00    +0.022 C 
ATOM     21  C   UNL     1     -16.339  -0.929   3.537  0.00  0.00    +0.002 C 
ATOM     22  C   UNL     1     -17.521  -1.894   3.635  0.00  0.00    +0.000 C 
ATOM     23  C   UNL     1     -18.127  -2.102   2.246  0.00  0.00    +0.002 C 
ATOM     24  C   UNL     1     -17.068  -2.686   1.309  0.00  0.00    +0.022 C 
ENDBRANCH  17  19
BRANCH   1  25
ATOM     25  C   UNL     1      -5.443  -2.865  -1.405  0.00  0.00    +0.131 C 
BRANCH  25  26
ATOM     26  C   UNL     1      -4.981  -2.629   0.035  0.00  0.00    +0.057 C 
BRANCH  26  30
ATOM     27  C   UNL     1      -1.200  -0.637   0.010  0.00  0.00    +0.120 A 
ATOM     28  C   UNL     1      -2.375   0.101   0.019  0.00  0.00    +0.046 A 
ATOM     29  C   UNL     1      -3.596  -0.545   0.027  0.00  0.00    +0.007 A 
ATOM     30  C   UNL     1      -3.648  -1.927   0.026  0.00  0.00    -0.045 A 
ATOM     31  C   UNL     1      -2.479  -2.665   0.017  0.00  0.00    +0.007 A 
ATOM     32  C   UNL     1      -1.255  -2.024   0.003  0.00  0.00    +0.046 A 
BRANCH  27  34
ATOM     33  C   UNL     1      -0.017   1.425   0.010  0.00  0.00    +0.277 C 
ATOM     34  O   UNL     1       0.002  -0.004   0.002  0.00  0.00    -0.495 OA
ENDBRANCH  27  34
ENDBRANCH  26  30
ENDBRANCH  25  26
ENDBRANCH   1  25
TORSDOF 5
