REMARK  Name = ZINC05041228
REMARK  5 active torsions:
REMARK  status: ('A' for Active; 'I' for Inactive)
REMARK    1  A    between atoms: C_3  and  N_25
REMARK    2  A    between atoms: C_6  and  C_7
REMARK    3  A    between atoms: C_7  and  C_9
REMARK    4  A    between atoms: C_9  and  C_23
REMARK    5  A    between atoms: C_14  and  C_19
REMARK                            x       y       z     vdW  Elec       q    Type
REMARK                         _______ _______ _______ _____ _____    ______ ____
ROOT
ATOM      1  C   UNL     1      -1.248  -2.174  -0.104  0.00  0.00    +0.127 C 
ATOM      2  C   UNL     1      -2.455  -2.887  -0.202  0.00  0.00    +0.092 C 
ATOM      3  N   UNL     1      -2.621  -4.230  -0.311  0.00  0.00    -0.307 N 
ATOM      4  C   UNL     1      -3.894  -4.760  -0.397  0.00  0.00    +0.046 A 
ATOM      5  C   UNL     1      -4.289  -6.100  -0.514  0.00  0.00    +0.036 A 
ATOM      6  C   UNL     1      -5.622  -6.433  -0.587  0.00  0.00    +0.057 A 
ATOM      7  C   UNL     1      -6.607  -5.461  -0.547  0.00  0.00    +0.013 A 
ATOM      8  C   UNL     1      -6.244  -4.131  -0.431  0.00  0.00    +0.017 A 
ATOM      9  C   UNL     1      -4.912  -3.796  -0.358  0.00  0.00    +0.035 A 
ATOM     10  S   UNL     1      -4.019  -2.272  -0.202  0.00  0.00    -0.071 S 
ATOM     11  H   UNL     1      -1.849  -4.816  -0.330  0.00  0.00    +0.153 HD
ENDROOT
BRANCH   6  12
ATOM     12  C   UNL     1      -6.016  -7.882  -0.713  0.00  0.00    +0.417 C 
ATOM     13  F   UNL     1      -6.184  -8.432   0.562  0.00  0.00    -0.166 F 
ATOM     14  F   UNL     1      -7.216  -7.978  -1.425  0.00  0.00    -0.166 F 
ATOM     15  F   UNL     1      -5.013  -8.581  -1.394  0.00  0.00    -0.166 F 
ENDBRANCH   6  12
BRANCH   1  16
ATOM     16  C   UNL     1      -1.267  -0.764   0.011  0.00  0.00    +0.206 C 
ATOM     17  O   UNL     1      -2.328  -0.178   0.139  0.00  0.00    -0.286 OA
BRANCH  16  23
ATOM     18  C   UNL     1       1.079  -0.471  -0.775  0.00  0.00    +0.014 A 
ATOM     19  C   UNL     1       2.259   0.245  -0.805  0.00  0.00    +0.033 A 
ATOM     20  C   UNL     1       2.372   1.425  -0.092  0.00  0.00    +0.126 A 
ATOM     21  C   UNL     1       1.306   1.896   0.653  0.00  0.00    +0.033 A 
ATOM     22  C   UNL     1       0.122   1.190   0.691  0.00  0.00    +0.014 A 
ATOM     23  C   UNL     1       0.000  -0.002  -0.025  0.00  0.00    +0.023 A 
BRANCH  20  24
ATOM     24  N   UNL     1       3.640   2.188  -0.128  0.00  0.00    +0.056 N 
ATOM     25  O   UNL     1       4.574   1.779  -0.779  0.00  0.00    -0.126 OA
ATOM     26  O   UNL     1       3.743   3.220   0.493  0.00  0.00    -0.126 OA
ENDBRANCH  20  24
ENDBRANCH  16  23
ENDBRANCH   1  16
BRANCH   1  27
ATOM     27  C   UNL     1       0.001  -2.874  -0.120  0.00  0.00    +0.105 C 
ATOM     28  N   UNL     1       0.992  -3.429  -0.133  0.00  0.00    -0.191 NA
ENDBRANCH   1  27
TORSDOF 5
