REMARK  Name = ZINC21013230
REMARK  4 active torsions:
REMARK  status: ('A' for Active; 'I' for Inactive)
REMARK    1  A    between atoms: C_1  and  C_2
REMARK    2  A    between atoms: N_7  and  S_9
REMARK    3  A    between atoms: S_9  and  N_12
REMARK    4  A    between atoms: N_12  and  C_13
REMARK                            x       y       z     vdW  Elec       q    Type
REMARK                         _______ _______ _______ _____ _____    ______ ____
ROOT
ATOM      1  N   UNL     1       3.632  -0.615  -0.038  0.00  0.00    -0.205 N 
ATOM      2  H   UNL     1       3.745  -1.517  -0.659  0.00  0.00    +0.175 HD
ENDROOT
BRANCH   1   3
ATOM      3  C   UNL     1       2.365  -0.050   0.150  0.00  0.00    +0.070 A 
ATOM      4  C   UNL     1       2.231   1.325   0.239  0.00  0.00    +0.026 A 
ATOM      5  C   UNL     1       0.980   1.884   0.426  0.00  0.00    +0.002 A 
ATOM      6  C   UNL     1      -0.130   1.070   0.525  0.00  0.00    +0.005 A 
ATOM      7  C   UNL     1      -0.005  -0.310   0.440  0.00  0.00    -0.025 A 
ATOM      8  C   UNL     1       1.239  -0.878   0.249  0.00  0.00    +0.053 A 
ATOM      9  N   UNL     1       1.437  -2.257   0.142  0.00  0.00    -0.342 N 
ATOM     10  C   UNL     1       0.336  -3.041   0.705  0.00  0.00    +0.102 C 
ATOM     11  C   UNL     1      -0.978  -2.566   0.072  0.00  0.00    +0.023 C 
ATOM     12  C   UNL     1      -1.254  -1.145   0.570  0.00  0.00    +0.038 C 
ATOM     13  H   UNL     1       2.303  -2.768  -0.304  0.00  0.00    +0.146 HD
ENDBRANCH   1   3
BRANCH   1  14
ATOM     14  S   UNL     1       4.960   0.073   0.672  0.00  0.00    +0.112 S 
ATOM     15  O   UNL     1       6.055  -0.796   0.414  0.00  0.00    -0.138 OA
ATOM     16  O   UNL     1       4.965   1.440   0.286  0.00  0.00    -0.138 OA
BRANCH  14  22
ATOM     17  C   UNL     1       2.243   1.756   4.615  0.00  0.00    +0.009 C 
ATOM     18  C   UNL     1       2.865   0.622   3.798  0.00  0.00    +0.002 C 
ATOM     19  C   UNL     1       3.365  -0.473   4.743  0.00  0.00    +0.006 C 
ATOM     20  C   UNL     1       3.959  -1.622   3.926  0.00  0.00    +0.017 C 
ATOM     21  C   UNL     1       5.150  -1.104   3.114  0.00  0.00    +0.111 C 
ATOM     22  N   UNL     1       4.710   0.044   2.309  0.00  0.00    -0.164 NA
ATOM     23  C   UNL     1       4.049   1.169   2.985  0.00  0.00    +0.114 C 
ENDBRANCH  14  22
ENDBRANCH   1  14
TORSDOF 3
