REMARK  Name = ZINC39364120
REMARK  9 active torsions:
REMARK  status: ('A' for Active; 'I' for Inactive)
REMARK    1  A    between atoms: C_1  and  N_2
REMARK    2  A    between atoms: C_6  and  C_7
REMARK    3  A    between atoms: C_10  and  C_12
REMARK    4  A    between atoms: N_14  and  C_15
REMARK    5  A    between atoms: N_14  and  C_16
REMARK    6  A    between atoms: C_16  and  C_17
REMARK    7  A    between atoms: N_20  and  C_23
REMARK    8  A    between atoms: C_23  and  C_24
REMARK    9  A    between atoms: C_24  and  C_25
REMARK                            x       y       z     vdW  Elec       q    Type
REMARK                         _______ _______ _______ _____ _____    ______ ____
ROOT
ATOM      1  C   UNL     1      -0.411   2.483   7.827  0.00  0.00    +0.111 C 
ENDROOT
BRANCH   1   2
ATOM      2  C   UNL     1      -1.925   2.709   7.811  0.00  0.00    +0.003 C 
ATOM      3  C   UNL     1      -2.335   3.325   6.470  0.00  0.00    -0.014 C 
ATOM      4  C   UNL     1      -3.836   3.622   6.490  0.00  0.00    -0.078 C 
ATOM      5  N   UNL     1      -4.138   4.562   7.575  0.00  0.00    +0.380 N 
ATOM      6  C   UNL     1      -3.814   3.951   8.870  0.00  0.00    -0.078 C 
ATOM      7  C   UNL     1      -2.312   3.667   8.941  0.00  0.00    -0.014 C 
ATOM      8  H   UNL     1      -3.591   5.401   7.454  0.00  0.00    -0.082 HD
BRANCH   5   9
ATOM      9  C   UNL     1      -5.567   4.904   7.542  0.00  0.00    -0.074 C 
BRANCH   9  10
ATOM     10  C   UNL     1      -5.859   5.978   8.592  0.00  0.00    +0.016 C 
BRANCH  10  11
ATOM     11  C   UNL     1      -7.324   6.329   8.557  0.00  0.00    -0.049 A 
ATOM     12  C   UNL     1      -7.773   7.339   7.727  0.00  0.00    +0.006 A 
ATOM     13  C   UNL     1      -9.117   7.662   7.694  0.00  0.00    +0.038 A 
ATOM     14  C   UNL     1     -10.013   6.972   8.493  0.00  0.00    +0.123 A 
ATOM     15  C   UNL     1      -9.562   5.961   9.325  0.00  0.00    +0.038 A 
ATOM     16  C   UNL     1      -8.219   5.637   9.352  0.00  0.00    +0.006 A 
ATOM     17  F   UNL     1     -11.326   7.287   8.462  0.00  0.00    -0.205 F 
ENDBRANCH  10  11
ENDBRANCH   9  10
ENDBRANCH   5   9
ENDBRANCH   1   2
BRANCH   1  20
ATOM     18  C   UNL     1       0.241   1.856   5.565  0.00  0.00    +0.263 C 
ATOM     19  O   UNL     1       0.281   3.038   5.279  0.00  0.00    -0.269 OA
ATOM     20  N   UNL     1      -0.057   1.476   6.824  0.00  0.00    -0.299 N 
ATOM     21  C   UNL     1      -0.026   0.058   7.188  0.00  0.00    +0.132 C 
BRANCH  18  25
ATOM     22  C   UNL     1       0.967  -0.346   2.563  0.00  0.00    +0.093 C 
ATOM     23  N   UNL     1       0.872  -1.099   3.643  0.00  0.00    -0.151 NA
ATOM     24  N   UNL     1       0.628  -0.448   4.712  0.00  0.00    -0.148 NA
ATOM     25  C   UNL     1       0.516   0.846   4.543  0.00  0.00    +0.131 C 
ATOM     26  C   UNL     1       0.740   1.073   3.057  0.00  0.00    +0.122 C 
BRANCH  22  32
ATOM     27  C   UNL     1       1.178   1.504   0.124  0.00  0.00    +0.149 C 
ATOM     28  N   UNL     1       1.326   0.047   0.133  0.00  0.00    -0.349 N 
ATOM     29  C   UNL     1       1.589  -0.728  -0.947  0.00  0.00    +0.086 A 
ATOM     30  C   UNL     1       1.656  -2.026  -0.554  0.00  0.00    +0.020 A 
ATOM     31  C   UNL     1       1.428  -2.073   0.820  0.00  0.00    +0.029 A 
ATOM     32  C   UNL     1       1.227  -0.765   1.244  0.00  0.00    +0.065 A 
ENDBRANCH  22  32
ENDBRANCH  18  25
ENDBRANCH   1  20
TORSDOF 7
