REMARK  Name = ZINC34756191
REMARK  9 active torsions:
REMARK  status: ('A' for Active; 'I' for Inactive)
REMARK    1  A    between atoms: C_1  and  C_2
REMARK    2  A    between atoms: C_2  and  C_3
REMARK    3  A    between atoms: C_2  and  C_4
REMARK    4  A    between atoms: C_4  and  S_5
REMARK    5  A    between atoms: S_5  and  C_6
REMARK    6  A    between atoms: N_22  and  C_25
REMARK    7  A    between atoms: C_25  and  C_26
REMARK    8  A    between atoms: N_28  and  C_29
REMARK    9  A    between atoms: N_28  and  C_30
REMARK                            x       y       z     vdW  Elec       q    Type
REMARK                         _______ _______ _______ _____ _____    ______ ____
ROOT
ATOM      1  C   UNL     1       3.141  -0.640  -2.690  0.00  0.00    +0.191 A 
ATOM      2  N   UNL     1       4.427  -0.444  -2.957  0.00  0.00    -0.206 NA
ATOM      3  C   UNL     1       4.988  -0.885  -4.070  0.00  0.00    +0.134 A 
ATOM      4  C   UNL     1       4.195  -1.593  -5.016  0.00  0.00    +0.051 A 
ATOM      5  C   UNL     1       4.598  -2.165  -6.303  0.00  0.00    -0.025 A 
ATOM      6  C   UNL     1       3.644  -2.793  -7.019  0.00  0.00    -0.004 A 
ATOM      7  S   UNL     1       2.171  -2.666  -6.040  0.00  0.00    -0.073 S 
ATOM      8  C   UNL     1       2.841  -1.764  -4.667  0.00  0.00    +0.115 A 
ATOM      9  N   UNL     1       2.355  -1.298  -3.532  0.00  0.00    -0.215 NA
ATOM     10  C   UNL     1       3.799  -3.455  -8.354  0.00  0.00    +0.043 C 
ATOM     11  C   UNL     1       5.126  -2.994  -8.973  0.00  0.00    +0.005 C 
ATOM     12  C   UNL     1       6.229  -3.119  -7.917  0.00  0.00    +0.005 C 
ATOM     13  C   UNL     1       6.027  -2.064  -6.828  0.00  0.00    +0.037 C 
ATOM     14  N   UNL     1       6.331  -0.660  -4.312  0.00  0.00    -0.318 N 
ATOM     15  C   UNL     1       6.772   0.488  -5.119  0.00  0.00    +0.088 C 
ATOM     16  C   UNL     1       7.862   1.236  -4.344  0.00  0.00    -0.059 C 
ATOM     17  N   UNL     1       8.935   0.300  -3.983  0.00  0.00    +0.387 N 
ATOM     18  C   UNL     1       8.420  -0.718  -3.059  0.00  0.00    -0.059 C 
ATOM     19  C   UNL     1       7.359  -1.560  -3.766  0.00  0.00    +0.088 C 
ATOM     20  H   UNL     1       9.282  -0.149  -4.817  0.00  0.00    -0.081 HD
ENDROOT
BRANCH   1  21
ATOM     21  S   UNL     1       2.467  -0.021  -1.184  0.00  0.00    -0.086 S 
BRANCH  21  22
ATOM     22  C   UNL     1       0.724  -0.520  -1.245  0.00  0.00    +0.080 C 
BRANCH  22  24
ATOM     23  C   UNL     1      -0.006   1.491   0.046  0.00  0.00    +0.008 C 
ATOM     24  C   UNL     1       0.011  -0.039   0.021  0.00  0.00    -0.007 C 
ATOM     25  C   UNL     1      -1.425  -0.566   0.028  0.00  0.00    +0.008 C 
ENDBRANCH  22  24
ENDBRANCH  21  22
ENDBRANCH   1  21
BRANCH  17  26
ATOM     26  C   UNL     1      10.028   1.038  -3.337  0.00  0.00    +0.019 C 
BRANCH  26  27
ATOM     27  C   UNL     1      11.181   0.102  -3.078  0.00  0.00    +0.199 C 
ATOM     28  O   UNL     1      11.099  -1.064  -3.399  0.00  0.00    -0.278 OA
ATOM     29  N   UNL     1      12.302   0.562  -2.488  0.00  0.00    -0.309 N 
ATOM     30  C   UNL     1      13.422  -0.348  -2.235  0.00  0.00    +0.131 C 
ATOM     31  C   UNL     1      12.401   1.971  -2.100  0.00  0.00    +0.131 C 
ENDBRANCH  26  27
ENDBRANCH  17  26
TORSDOF 5
