REMARK  Name = ZINC00574446
REMARK  5 active torsions:
REMARK  status: ('A' for Active; 'I' for Inactive)
REMARK    1  A    between atoms: C_1  and  C_2
REMARK    2  A    between atoms: C_7  and  N_15
REMARK    3  A    between atoms: C_8  and  C_13
REMARK    4  A    between atoms: C_17  and  C_24
REMARK    5  A    between atoms: C_20  and  C_23
REMARK                            x       y       z     vdW  Elec       q    Type
REMARK                         _______ _______ _______ _____ _____    ______ ____
ROOT
ATOM      1  C   UNL     1       1.467  -0.541  -1.355  0.00  0.00    +0.045 C 
ATOM      2  C   UNL     1       0.199   0.269  -1.271  0.00  0.00    -0.034 A 
ATOM      3  C   UNL     1      -0.677   0.314  -2.364  0.00  0.00    +0.008 A 
ATOM      4  C   UNL     1      -1.822   1.050  -2.279  0.00  0.00    +0.047 A 
ATOM      5  C   UNL     1      -2.108   1.753  -1.095  0.00  0.00    +0.142 A 
ATOM      6  N   UNL     1      -3.230   2.470  -1.022  0.00  0.00    -0.214 NA
ATOM      7  C   UNL     1      -3.558   3.140   0.073  0.00  0.00    +0.139 A 
ATOM      8  C   UNL     1      -2.691   3.112   1.193  0.00  0.00    +0.119 A 
ATOM      9  C   UNL     1      -1.499   2.352   1.101  0.00  0.00    +0.270 A 
ATOM     10  O   UNL     1      -0.724   2.300   2.039  0.00  0.00    -0.266 OA
ATOM     11  N   UNL     1      -1.237   1.686  -0.044  0.00  0.00    -0.267 N 
ATOM     12  C   UNL     1      -0.092   0.952  -0.141  0.00  0.00    +0.099 A 
ENDROOT
BRANCH   7  13
ATOM     13  N   UNL     1      -4.726   3.865   0.118  0.00  0.00    -0.314 N 
ATOM     14  C   UNL     1      -5.609   3.510  -1.000  0.00  0.00    +0.109 C 
ATOM     15  C   UNL     1      -6.953   4.224  -0.837  0.00  0.00    +0.004 C 
ATOM     16  C   UNL     1      -6.720   5.737  -0.806  0.00  0.00    +0.009 C 
ATOM     17  C   UNL     1      -5.758   6.075   0.337  0.00  0.00    +0.004 C 
ATOM     18  C   UNL     1      -4.450   5.307   0.140  0.00  0.00    +0.109 C 
ATOM     19  C   UNL     1      -6.390   5.674   1.671  0.00  0.00    +0.009 C 
ATOM     20  C   UNL     1      -7.865   3.872  -2.013  0.00  0.00    +0.009 C 
ENDBRANCH   7  13
BRANCH   8  21
ATOM     21  C   UNL     1      -3.006   3.823   2.369  0.00  0.00    +0.267 C 
ATOM     22  O   UNL     1      -2.298   3.719   3.350  0.00  0.00    -0.295 OA
ENDBRANCH   8  21
TORSDOF 2
