REMARK  Name = ZINC04976189
REMARK  7 active torsions:
REMARK  status: ('A' for Active; 'I' for Inactive)
REMARK    1  A    between atoms: C_1  and  C_2
REMARK    2  A    between atoms: C_2  and  C_3
REMARK    3  A    between atoms: C_2  and  C_4
REMARK    4  A    between atoms: C_4  and  C_6
REMARK    5  A    between atoms: C_4  and  S_12
REMARK    6  A    between atoms: S_12  and  C_13
REMARK    7  A    between atoms: N_23  and  C_24
REMARK                            x       y       z     vdW  Elec       q    Type
REMARK                         _______ _______ _______ _____ _____    ______ ____
ROOT
ATOM      1  C   UNL     1       2.982   4.154  -1.202  0.00  0.00    +0.178 A 
ATOM      2  N   UNL     1       4.211   4.595  -1.309  0.00  0.00    -0.223 NA
ATOM      3  C   UNL     1       4.990   4.787  -0.225  0.00  0.00    +0.079 A 
ATOM      4  C   UNL     1       6.302   5.257  -0.340  0.00  0.00    +0.028 A 
ATOM      5  C   UNL     1       7.056   5.436   0.785  0.00  0.00    +0.002 A 
ATOM      6  C   UNL     1       6.540   5.159   2.045  0.00  0.00    +0.001 A 
ATOM      7  C   UNL     1       5.260   4.698   2.189  0.00  0.00    +0.015 A 
ATOM      8  C   UNL     1       4.468   4.506   1.058  0.00  0.00    +0.065 A 
ATOM      9  C   UNL     1       3.085   4.018   1.153  0.00  0.00    +0.267 A 
ATOM     10  O   UNL     1       2.578   3.763   2.230  0.00  0.00    -0.267 OA
ATOM     11  N   UNL     1       2.398   3.858  -0.002  0.00  0.00    -0.253 N 
ENDROOT
BRANCH  11  12
ATOM     12  C   UNL     1       1.077   3.391   0.034  0.00  0.00    +0.087 A 
ATOM     13  C   UNL     1       0.819   2.029  -0.035  0.00  0.00    +0.029 A 
ATOM     14  C   UNL     1      -0.484   1.571   0.000  0.00  0.00    +0.002 A 
ATOM     15  C   UNL     1      -1.532   2.469   0.098  0.00  0.00    +0.003 A 
ATOM     16  C   UNL     1      -1.280   3.826   0.172  0.00  0.00    +0.040 A 
ATOM     17  C   UNL     1       0.022   4.291   0.137  0.00  0.00    +0.147 A 
ATOM     18  F   UNL     1       0.269   5.618   0.204  0.00  0.00    -0.203 F 
ENDBRANCH  11  12
BRANCH   1  19
ATOM     19  S   UNL     1       2.038   3.934  -2.673  0.00  0.00    -0.074 S 
BRANCH  19  20
ATOM     20  C   UNL     1       3.195   4.605  -3.893  0.00  0.00    +0.143 C 
BRANCH  20  21
ATOM     21  C   UNL     1       3.337   6.091  -3.687  0.00  0.00    +0.234 C 
ATOM     22  O   UNL     1       2.485   6.702  -3.078  0.00  0.00    -0.274 OA
ATOM     23  N   UNL     1       4.410   6.740  -4.179  0.00  0.00    -0.239 N 
ATOM     24  C   UNL     1       4.537   8.069  -3.995  0.00  0.00    +0.303 C 
ATOM     25  O   UNL     1       3.683   8.682  -3.384  0.00  0.00    -0.253 OA
ATOM     26  N   UNL     1       5.610   8.719  -4.487  0.00  0.00    -0.313 N 
ATOM     27  H   UNL     1       5.091   6.251  -4.667  0.00  0.00    +0.159 HD
ATOM     28  H   UNL     1       6.291   8.229  -4.975  0.00  0.00    +0.146 HD
ATOM     29  H   UNL     1       5.701   9.675  -4.355  0.00  0.00    +0.146 HD
ENDBRANCH  20  21
BRANCH  20  31
ATOM     30  C   UNL     1       3.625   4.931  -6.332  0.00  0.00    +0.009 C 
ATOM     31  C   UNL     1       2.664   4.334  -5.302  0.00  0.00    +0.005 C 
ATOM     32  C   UNL     1       2.552   2.824  -5.523  0.00  0.00    +0.009 C 
ENDBRANCH  20  31
ENDBRANCH  19  20
ENDBRANCH   1  19
TORSDOF 5
