REMARK  Name = ZINC41645082
REMARK  5 active torsions:
REMARK  status: ('A' for Active; 'I' for Inactive)
REMARK    1  A    between atoms: C_1  and  C_2
REMARK    2  A    between atoms: C_11  and  C_12
REMARK    3  A    between atoms: N_20  and  C_23
REMARK    4  A    between atoms: C_23  and  C_25
REMARK    5  A    between atoms: C_23  and  C_26
REMARK                            x       y       z     vdW  Elec       q    Type
REMARK                         _______ _______ _______ _____ _____    ______ ____
ROOT
ATOM      1  C   UNL     1      -0.075   1.509   0.016  0.00  0.00    +0.045 C 
ATOM      2  C   UNL     1      -0.065   0.002   0.006  0.00  0.00    -0.033 A 
ATOM      3  C   UNL     1      -0.086  -0.674  -1.180  0.00  0.00    +0.050 A 
ATOM      4  C   UNL     1      -0.076  -2.069  -1.196  0.00  0.00    +0.131 A 
ATOM      5  C   UNL     1      -0.043  -2.782  -0.010  0.00  0.00    +0.051 A 
ATOM      6  C   UNL     1      -0.024  -2.109   1.206  0.00  0.00    +0.148 A 
ATOM      7  C   UNL     1      -0.029  -0.705   1.208  0.00  0.00    +0.071 A 
ATOM      8  C   UNL     1       0.005  -0.290   2.622  0.00  0.00    +0.232 C 
ATOM      9  O   UNL     1       0.008   0.844   3.067  0.00  0.00    -0.283 OA
ATOM     10  C   UNL     1       0.033  -1.554   3.376  0.00  0.00    +0.176 C 
ATOM     11  C   UNL     1       0.069  -1.682   4.725  0.00  0.00    +0.059 C 
ATOM     12  O   UNL     1       0.005  -2.566   2.477  0.00  0.00    -0.451 OA
ATOM     13  C   UNL     1      -0.024  -4.290  -0.014  0.00  0.00    +0.130 C 
ATOM     14  N   UNL     1      -0.458  -4.784  -1.329  0.00  0.00    -0.259 NA
ATOM     15  C   UNL     1       0.277  -4.091  -2.399  0.00  0.00    +0.319 C 
ATOM     16  O   UNL     1      -0.101  -2.713  -2.393  0.00  0.00    -0.476 OA
ENDROOT
BRANCH  11  17
ATOM     17  C   UNL     1      -0.018  -3.014   5.340  0.00  0.00    -0.003 A 
ATOM     18  C   UNL     1      -0.004  -4.170   4.544  0.00  0.00    +0.011 A 
ATOM     19  C   UNL     1      -0.088  -5.399   5.173  0.00  0.00    +0.020 A 
ATOM     20  C   UNL     1      -0.182  -5.449   6.553  0.00  0.00    +0.111 A 
ATOM     21  N   UNL     1      -0.193  -4.346   7.278  0.00  0.00    -0.263 NA
ATOM     22  C   UNL     1      -0.109  -3.153   6.729  0.00  0.00    +0.118 A 
ENDBRANCH  11  17
BRANCH  14  23
ATOM     23  C   UNL     1      -0.283  -6.240  -1.427  0.00  0.00    +0.087 C 
ATOM     24  C   UNL     1      -1.117  -6.928  -0.344  0.00  0.00    +0.029 C 
BRANCH  23  25
ATOM     25  C   UNL     1      -0.738  -6.709  -2.785  0.00  0.00    -0.030 A 
ATOM     26  C   UNL     1      -1.868  -6.162  -3.363  0.00  0.00    +0.005 A 
ATOM     27  C   UNL     1      -2.285  -6.593  -4.608  0.00  0.00    +0.000 A 
ATOM     28  C   UNL     1      -1.572  -7.571  -5.276  0.00  0.00    +0.000 A 
ATOM     29  C   UNL     1      -0.441  -8.117  -4.699  0.00  0.00    +0.000 A 
ATOM     30  C   UNL     1      -0.022  -7.684  -3.455  0.00  0.00    +0.005 A 
ENDBRANCH  23  25
ENDBRANCH  14  23
TORSDOF 3
