REMARK  Name = ZINC66541820
REMARK  9 active torsions:
REMARK  status: ('A' for Active; 'I' for Inactive)
REMARK    1  A    between atoms: C_1  and  C_2
REMARK    2  A    between atoms: C_2  and  O_3
REMARK    3  A    between atoms: O_3  and  C_4
REMARK    4  A    between atoms: N_6  and  C_7
REMARK    5  A    between atoms: C_10  and  O_13
REMARK    6  A    between atoms: O_13  and  C_14
REMARK    7  A    between atoms: C_14  and  C_16
REMARK    8  A    between atoms: C_17  and  C_23
REMARK    9  A    between atoms: C_19  and  C_22
REMARK                            x       y       z     vdW  Elec       q    Type
REMARK                         _______ _______ _______ _____ _____    ______ ____
ROOT
ATOM      1  C   UNL     1       1.558  -3.776   2.531  0.00  0.00    +0.076 C 
ATOM      2  C   UNL     1       2.773  -4.277   1.748  0.00  0.00    +0.026 C 
ATOM      3  C   UNL     1       4.038  -3.603   2.283  0.00  0.00    +0.046 C 
ATOM      4  C   UNL     1       4.210  -3.943   3.765  0.00  0.00    +0.177 C 
ATOM      5  C   UNL     1       2.995  -3.441   4.548  0.00  0.00    +0.046 C 
ATOM      6  C   UNL     1       1.730  -4.116   4.013  0.00  0.00    +0.026 C 
ENDROOT
BRANCH   1   9
ATOM      7  C   UNL     1       0.801  -1.812   1.304  0.00  0.00    +0.400 C 
ATOM      8  O   UNL     1       0.321  -2.554   0.470  0.00  0.00    -0.226 OA
ATOM      9  N   UNL     1       1.441  -2.324   2.374  0.00  0.00    -0.278 N 
ATOM     10  H   UNL     1       1.824  -1.732   3.040  0.00  0.00    +0.152 HD
BRANCH   7  11
ATOM     11  O   UNL     1       0.693  -0.477   1.160  0.00  0.00    -0.451 OA
BRANCH  11  13
ATOM     12  C   UNL     1      -0.019   1.526   0.010  0.00  0.00    +0.048 C 
ATOM     13  C   UNL     1       0.002  -0.004   0.002  0.00  0.00    +0.230 C 
ENDBRANCH  11  13
ENDBRANCH   7  11
ENDBRANCH   1   9
BRANCH   4  14
ATOM     14  O   UNL     1       5.392  -3.312   4.264  0.00  0.00    -0.458 OA
BRANCH  14  15
ATOM     15  C   UNL     1       6.039  -3.935   5.269  0.00  0.00    +0.344 C 
ATOM     16  O   UNL     1       5.612  -4.984   5.709  0.00  0.00    -0.245 OA
BRANCH  15  17
ATOM     17  C   UNL     1       7.264  -3.344   5.833  0.00  0.00    +0.114 A 
ATOM     18  C   UNL     1       7.352  -2.469   6.878  0.00  0.00    +0.117 A 
ATOM     19  O   UNL     1       8.641  -2.177   7.075  0.00  0.00    -0.463 OA
ATOM     20  C   UNL     1       9.420  -2.828   6.196  0.00  0.00    +0.117 A 
ATOM     21  C   UNL     1       8.648  -3.577   5.394  0.00  0.00    +0.073 A 
ATOM     22 BR   UNL     1       9.222  -4.699   3.984  0.00  0.00    -0.046 Br
ATOM     23  C   UNL     1      10.923  -2.736   6.125  0.00  0.00    +0.087 C 
ATOM     24  C   UNL     1       6.194  -1.925   7.673  0.00  0.00    +0.087 C 
ENDBRANCH  15  17
ENDBRANCH  14  15
ENDBRANCH   4  14
TORSDOF 6
