REMARK  Name = ZINC57292714
REMARK  5 active torsions:
REMARK  status: ('A' for Active; 'I' for Inactive)
REMARK    1  A    between atoms: C_1  and  S_2
REMARK    2  A    between atoms: S_2  and  N_5
REMARK    3  A    between atoms: C_9  and  N_12
REMARK    4  A    between atoms: N_15  and  C_16
REMARK    5  A    between atoms: C_16  and  C_17
REMARK                            x       y       z     vdW  Elec       q    Type
REMARK                         _______ _______ _______ _____ _____    ______ ____
ROOT
ATOM      1  N   UNL     1       4.290   0.037  -2.606  0.00  0.00    -0.295 N 
ATOM      2  C   UNL     1       5.111   0.986  -3.099  0.00  0.00    +0.300 C 
ATOM      3  O   UNL     1       4.659   2.057  -3.454  0.00  0.00    -0.253 OA
ATOM      4  N   UNL     1       6.434   0.746  -3.200  0.00  0.00    -0.297 N 
ATOM      5  H   UNL     1       4.651  -0.817  -2.323  0.00  0.00    +0.151 HD
ATOM      6  H   UNL     1       6.794  -0.109  -2.917  0.00  0.00    +0.150 HD
ENDROOT
BRANCH   1  11
ATOM      7  N   UNL     1       0.795  -0.411  -1.394  0.00  0.00    -0.180 NA
ATOM      8  C   UNL     1       0.053  -0.601  -2.648  0.00  0.00    +0.109 C 
ATOM      9  C   UNL     1       0.677   0.287  -3.729  0.00  0.00    +0.019 C 
ATOM     10  C   UNL     1       2.174  -0.017  -3.832  0.00  0.00    +0.025 C 
ATOM     11  C   UNL     1       2.853   0.298  -2.497  0.00  0.00    +0.090 C 
ATOM     12  C   UNL     1       2.254  -0.584  -1.403  0.00  0.00    +0.131 C 
BRANCH   7  14
ATOM     13  C   UNL     1      -0.022   1.810   0.012  0.00  0.00    +0.215 C 
ATOM     14  S   UNL     1       0.002  -0.004   0.002  0.00  0.00    +0.029 S 
ATOM     15  O   UNL     1       0.835  -0.488   1.046  0.00  0.00    -0.158 OA
ATOM     16  O   UNL     1      -1.315  -0.510  -0.168  0.00  0.00    -0.158 OA
ENDBRANCH   7  14
ENDBRANCH   1  11
BRANCH   4  17
ATOM     17  C   UNL     1       7.326   1.776  -3.736  0.00  0.00    +0.137 C 
BRANCH  17  18
ATOM     18  C   UNL     1       8.764   1.253  -3.742  0.00  0.00    +0.135 C 
ATOM     19  C   UNL     1       9.727   2.373  -4.192  0.00  0.00    +0.035 C 
ATOM     20  C   UNL     1      10.739   1.600  -5.080  0.00  0.00    +0.031 C 
ATOM     21  C   UNL     1       9.817   0.528  -5.714  0.00  0.00    +0.160 C 
ATOM     22  O   UNL     1       8.885   0.175  -4.677  0.00  0.00    -0.375 OA
ENDBRANCH  17  18
ENDBRANCH   4  17
TORSDOF 4
