REMARK  Name = ZINC62826746
REMARK  3 active torsions:
REMARK  status: ('A' for Active; 'I' for Inactive)
REMARK    1  A    between atoms: C_3  and  C_9
REMARK    2  A    between atoms: C_4  and  N_8
REMARK    3  A    between atoms: C_11  and  C_14
REMARK                            x       y       z     vdW  Elec       q    Type
REMARK                         _______ _______ _______ _____ _____    ______ ____
ROOT
ATOM      1  C   UNL     1       0.150   1.111   0.812  0.00  0.00    +0.002 A 
ATOM      2  C   UNL     1       1.402   1.665   0.977  0.00  0.00    +0.015 A 
ATOM      3  C   UNL     1       2.457   1.259   0.157  0.00  0.00    +0.061 A 
ATOM      4  C   UNL     1       2.233   0.288  -0.831  0.00  0.00    +0.051 A 
ATOM      5  C   UNL     1       0.965  -0.259  -0.983  0.00  0.00    +0.039 A 
ATOM      6  C   UNL     1      -0.068   0.153  -0.164  0.00  0.00    +0.017 A 
ATOM      7 BR   UNL     1       0.654  -1.569  -2.311  0.00  0.00    -0.048 Br
ENDROOT
BRANCH   3   8
ATOM      8  C   UNL     1       3.799   1.848   0.328  0.00  0.00    +0.260 A 
ATOM      9  N   UNL     1       4.071   3.129   0.453  0.00  0.00    -0.191 NA
ATOM     10  C   UNL     1       5.387   3.304   0.589  0.00  0.00    +0.175 A 
ATOM     11  N   UNL     1       5.978   2.143   0.555  0.00  0.00    -0.061 NA
ATOM     12  O   UNL     1       4.958   1.169   0.389  0.00  0.00    -0.333 OA
BRANCH  10  13
ATOM     13  C   UNL     1       6.079   4.632   0.756  0.00  0.00    +0.060 C 
ATOM     14  C   UNL     1       7.129   4.824  -0.357  0.00  0.00    +0.011 C 
ATOM     15  C   UNL     1       8.303   5.548   0.349  0.00  0.00    +0.001 C 
ATOM     16  C   UNL     1       8.331   4.874   1.743  0.00  0.00    +0.001 C 
ATOM     17  C   UNL     1       6.843   4.664   2.092  0.00  0.00    +0.011 C 
ENDBRANCH  10  13
ENDBRANCH   3   8
BRANCH   4  18
ATOM     18  N   UNL     1       3.276  -0.125  -1.655  0.00  0.00    -0.357 N 
ATOM     19  H   UNL     1       4.135   0.324  -1.612  0.00  0.00    +0.142 HD
ATOM     20  H   UNL     1       3.144  -0.862  -2.272  0.00  0.00    +0.142 HD
ENDBRANCH   4  18
TORSDOF 3
