REMARK  Name = ZINC04704088
REMARK  2 active torsions:
REMARK  status: ('A' for Active; 'I' for Inactive)
REMARK    1  A    between atoms: C_6  and  N_7
REMARK    2  A    between atoms: C_8  and  C_10
REMARK                            x       y       z     vdW  Elec       q    Type
REMARK                         _______ _______ _______ _____ _____    ______ ____
ROOT
ATOM      1  N   UNL     1       6.058   0.510  -0.041  0.00  0.00    -0.282 N 
ATOM      2  C   UNL     1       4.761   0.878  -0.032  0.00  0.00    +0.242 C 
ATOM      3  O   UNL     1       4.463   2.058  -0.037  0.00  0.00    -0.270 OA
ATOM      4  H   UNL     1       6.297  -0.427   0.031  0.00  0.00    +0.155 HD
ENDROOT
BRANCH   2   5
ATOM      5  C   UNL     1       3.711  -0.143  -0.016  0.00  0.00    +0.088 C 
ATOM      6  C   UNL     1       2.406   0.227  -0.007  0.00  0.00    +0.085 A 
ATOM      7  C   UNL     1       1.185  -0.622   0.009  0.00  0.00    +0.267 A 
ATOM      8  O   UNL     1       1.262  -1.834   0.022  0.00  0.00    -0.266 OA
ATOM      9  N   UNL     1       0.002  -0.005   0.010  0.00  0.00    -0.287 N 
ATOM     10  C   UNL     1      -0.017   1.386   0.007  0.00  0.00    +0.172 A 
ATOM     11  N   UNL     1      -1.065   2.138   0.020  0.00  0.00    -0.261 NA
ATOM     12  C   UNL     1      -2.393   1.508   0.055  0.00  0.00    +0.146 C 
ATOM     13  C   UNL     1      -2.337   0.157  -0.659  0.00  0.00    +0.045 C 
ATOM     14  C   UNL     1      -1.290  -0.743   0.007  0.00  0.00    +0.129 C 
ATOM     15  S   UNL     1       1.691   1.865  -0.012  0.00  0.00    -0.046 S 
ENDBRANCH   2   5
BRANCH   1  21
ATOM     16  C   UNL     1       8.225   1.200  -0.855  0.00  0.00    +0.025 A 
ATOM     17  C   UNL     1       9.209   2.162  -0.969  0.00  0.00    +0.022 A 
ATOM     18  C   UNL     1       9.040   3.400  -0.375  0.00  0.00    +0.041 A 
ATOM     19  C   UNL     1       7.882   3.681   0.328  0.00  0.00    +0.022 A 
ATOM     20  C   UNL     1       6.892   2.725   0.441  0.00  0.00    +0.025 A 
ATOM     21  C   UNL     1       7.059   1.481  -0.153  0.00  0.00    +0.034 A 
ATOM     22 CL   UNL     1      10.283   4.604  -0.514  0.00  0.00    -0.084 Cl
ENDBRANCH   1  21
TORSDOF 2
