REMARK  Name = ZINC04724040
REMARK  6 active torsions:
REMARK  status: ('A' for Active; 'I' for Inactive)
REMARK    1  A    between atoms: C_1  and  C_2
REMARK    2  A    between atoms: C_3  and  C_19
REMARK    3  A    between atoms: C_4  and  C_12
REMARK    4  A    between atoms: N_21  and  C_22
REMARK    5  A    between atoms: C_25  and  O_28
REMARK    6  A    between atoms: O_28  and  C_29
REMARK                            x       y       z     vdW  Elec       q    Type
REMARK                         _______ _______ _______ _____ _____    ______ ____
ROOT
ATOM      1  C   UNL     1      -0.060   1.509  -0.514  0.00  0.00    +0.061 C 
ATOM      2  C   UNL     1      -0.017   0.014  -0.332  0.00  0.00    +0.018 C 
ATOM      3  C   UNL     1      -1.168  -0.652  -0.159  0.00  0.00    +0.060 C 
ATOM      4  C   UNL     1      -1.233  -2.142   0.042  0.00  0.00    +0.177 C 
ATOM      5  N   UNL     1       0.065  -2.732  -0.270  0.00  0.00    -0.221 N 
ATOM      6  C   UNL     1       1.197  -2.006  -0.445  0.00  0.00    +0.218 A 
ATOM      7  N   UNL     1       2.171  -2.835  -0.702  0.00  0.00    -0.201 NA
ATOM      8  C   UNL     1       1.704  -4.088  -0.705  0.00  0.00    +0.247 A 
ATOM      9  N   UNL     1       0.420  -4.069  -0.446  0.00  0.00    -0.156 NA
ATOM     10  N   UNL     1       1.200  -0.622  -0.354  0.00  0.00    -0.287 N 
ATOM     11  H   UNL     1       2.031  -0.123  -0.306  0.00  0.00    +0.155 HD
ENDROOT
BRANCH   4  12
ATOM     12  C   UNL     1      -1.589  -2.440   1.476  0.00  0.00    -0.018 A 
ATOM     13  C   UNL     1      -0.770  -1.996   2.498  0.00  0.00    +0.007 A 
ATOM     14  C   UNL     1      -1.095  -2.269   3.813  0.00  0.00    +0.020 A 
ATOM     15  C   UNL     1      -2.241  -2.987   4.107  0.00  0.00    +0.041 A 
ATOM     16  C   UNL     1      -3.060  -3.431   3.084  0.00  0.00    +0.020 A 
ATOM     17  C   UNL     1      -2.736  -3.153   1.770  0.00  0.00    +0.007 A 
ATOM     18 CL   UNL     1      -2.650  -3.331   5.759  0.00  0.00    -0.084 Cl
ENDBRANCH   4  12
BRANCH   3  19
ATOM     19  C   UNL     1      -2.378   0.081  -0.166  0.00  0.00    +0.248 C 
ATOM     20  O   UNL     1      -2.358   1.288  -0.326  0.00  0.00    -0.270 OA
ATOM     21  N   UNL     1      -3.553  -0.556   0.005  0.00  0.00    -0.282 N 
ATOM     22  H   UNL     1      -3.577  -1.525   0.055  0.00  0.00    +0.155 HD
BRANCH  21  23
ATOM     23  C   UNL     1      -4.740   0.179   0.110  0.00  0.00    +0.034 A 
ATOM     24  C   UNL     1      -5.928  -0.344  -0.385  0.00  0.00    +0.027 A 
ATOM     25  C   UNL     1      -7.098   0.382  -0.281  0.00  0.00    +0.047 A 
ATOM     26  C   UNL     1      -7.087   1.634   0.316  0.00  0.00    +0.120 A 
ATOM     27  C   UNL     1      -5.901   2.158   0.810  0.00  0.00    +0.047 A 
ATOM     28  C   UNL     1      -4.731   1.430   0.713  0.00  0.00    +0.027 A 
BRANCH  26  29
ATOM     29  O   UNL     1      -8.239   2.349   0.417  0.00  0.00    -0.495 OA
ATOM     30  C   UNL     1      -8.155   3.630   1.043  0.00  0.00    +0.277 C 
ENDBRANCH  26  29
ENDBRANCH  21  23
ENDBRANCH   3  19
TORSDOF 4
