REMARK  Name = ZINC50254148
REMARK  8 active torsions:
REMARK  status: ('A' for Active; 'I' for Inactive)
REMARK    1  A    between atoms: C_1  and  C_2
REMARK    2  A    between atoms: C_4  and  S_8
REMARK    3  A    between atoms: N_6  and  C_7
REMARK    4  A    between atoms: S_8  and  N_11
REMARK    5  A    between atoms: N_11  and  C_12
REMARK    6  A    between atoms: C_17  and  C_18
REMARK    7  A    between atoms: C_18  and  C_21
REMARK    8  A    between atoms: N_19  and  O_20
REMARK                            x       y       z     vdW  Elec       q    Type
REMARK                         _______ _______ _______ _____ _____    ______ ____
ROOT
ATOM      1  N   UNL     1       1.547  -4.077  -2.384  0.00  0.00    -0.096 NA
ENDROOT
BRANCH   1   2
ATOM      2  C   UNL     1       2.060  -5.062  -3.223  0.00  0.00    +0.083 A 
ATOM      3  C   UNL     1       1.202  -5.873  -3.954  0.00  0.00    +0.027 A 
ATOM      4  C   UNL     1       1.712  -6.849  -4.786  0.00  0.00    +0.002 A 
ATOM      5  C   UNL     1       3.081  -7.028  -4.899  0.00  0.00    +0.001 A 
ATOM      6  C   UNL     1       3.949  -6.233  -4.181  0.00  0.00    +0.012 A 
ATOM      7  C   UNL     1       3.447  -5.237  -3.340  0.00  0.00    +0.024 A 
BRANCH   7   8
ATOM      8  C   UNL     1       4.370  -4.380  -2.574  0.00  0.00    +0.086 C 
ATOM      9  N   UNL     1       5.114  -4.894  -1.649  0.00  0.00    -0.092 NA
ATOM     10  C   UNL     1       4.446  -2.904  -2.869  0.00  0.00    +0.070 C 
BRANCH   9  11
ATOM     11  O   UNL     1       4.962  -6.256  -1.293  0.00  0.00    -0.409 OA
ATOM     12  H   UNL     1       5.561  -6.549  -0.593  0.00  0.00    +0.328 HD
ENDBRANCH   9  11
ENDBRANCH   7   8
ENDBRANCH   1   2
BRANCH   1  13
ATOM     13  S   UNL     1      -0.091  -3.874  -2.250  0.00  0.00    +0.108 S 
ATOM     14  O   UNL     1      -0.597  -5.050  -1.633  0.00  0.00    -0.147 OA
ATOM     15  O   UNL     1      -0.549  -3.421  -3.517  0.00  0.00    -0.147 OA
BRANCH  13  19
ATOM     16  C   UNL     1      -0.824   0.933  -0.265  0.00  0.00    +0.084 C 
ATOM     17  C   UNL     1      -0.659  -0.563  -0.338  0.00  0.00    +0.085 A 
ATOM     18  N   UNL     1      -0.461  -1.254  -1.428  0.00  0.00    -0.328 N 
ATOM     19  C   UNL     1      -0.361  -2.554  -1.115  0.00  0.00    +0.195 A 
ATOM     20  C   UNL     1      -0.503  -2.674   0.219  0.00  0.00    +0.134 A 
ATOM     21  N   UNL     1      -0.687  -1.410   0.713  0.00  0.00    -0.337 N 
ATOM     22  C   UNL     1      -0.881  -1.046   2.118  0.00  0.00    +0.150 C 
ATOM     23  H   UNL     1      -0.396  -0.885  -2.322  0.00  0.00    +0.168 HD
ENDBRANCH  13  19
ENDBRANCH   1  13
TORSDOF 5
