REMARK  Name = ZINC00315489
REMARK  4 active torsions:
REMARK  status: ('A' for Active; 'I' for Inactive)
REMARK    1  A    between atoms: C_10  and  N_11
REMARK    2  A    between atoms: C_12  and  O_14
REMARK    3  A    between atoms: O_14  and  N_15
REMARK    4  A    between atoms: C_16  and  C_17
REMARK                            x       y       z     vdW  Elec       q    Type
REMARK                         _______ _______ _______ _____ _____    ______ ____
ROOT
ATOM      1  N   UNL     1       4.464   7.953   0.003  0.00  0.00    -0.249 N 
ATOM      2  C   UNL     1       3.347   7.200   0.014  0.00  0.00    +0.430 C 
ATOM      3  O   UNL     1       2.255   7.733   0.022  0.00  0.00    -0.224 OA
ATOM      4  H   UNL     1       5.335   7.530   0.063  0.00  0.00    +0.158 HD
ENDROOT
BRANCH   1  14
ATOM      5  C   UNL     1       7.232  11.559  -2.191  0.00  0.00    +0.001 A 
ATOM      6  C   UNL     1       7.346  10.172  -2.106  0.00  0.00    +0.001 A 
ATOM      7  C   UNL     1       6.425   9.434  -1.428  0.00  0.00    +0.010 A 
ATOM      8  C   UNL     1       5.346  10.075  -0.800  0.00  0.00    +0.003 A 
ATOM      9  C   UNL     1       5.226  11.484  -0.890  0.00  0.00    -0.016 A 
ATOM     10  C   UNL     1       6.197  12.214  -1.598  0.00  0.00    +0.008 A 
ATOM     11  C   UNL     1       4.144  12.128  -0.265  0.00  0.00    +0.008 A 
ATOM     12  C   UNL     1       3.219  11.396   0.414  0.00  0.00    +0.002 A 
ATOM     13  C   UNL     1       3.323  10.011   0.505  0.00  0.00    +0.024 A 
ATOM     14  C   UNL     1       4.369   9.343  -0.094  0.00  0.00    +0.044 A 
ENDBRANCH   1  14
BRANCH   2  15
ATOM     15  O   UNL     1       3.440   5.857   0.016  0.00  0.00    -0.299 OA
BRANCH  15  16
ATOM     16  N   UNL     1       2.396   5.230   0.026  0.00  0.00    -0.081 NA
ATOM     17  C   UNL     1       2.418   3.936   0.028  0.00  0.00    +0.163 C 
BRANCH  17  18
ATOM     18  C   UNL     1       1.152   3.177   0.040  0.00  0.00    +0.015 A 
ATOM     19  C   UNL     1       1.172   1.780   0.042  0.00  0.00    +0.011 A 
ATOM     20  C   UNL     1      -0.014   1.077   0.053  0.00  0.00    +0.001 A 
ATOM     21  C   UNL     1      -1.223   1.751   0.057  0.00  0.00    +0.001 A 
ATOM     22  C   UNL     1      -1.251   3.134   0.061  0.00  0.00    +0.020 A 
ATOM     23  C   UNL     1      -0.071   3.852   0.049  0.00  0.00    +0.050 A 
ATOM     24 CL   UNL     1      -0.108   5.587   0.046  0.00  0.00    -0.083 Cl
ENDBRANCH  17  18
ENDBRANCH  15  16
ENDBRANCH   2  15
TORSDOF 4
