REMARK  Name = ZINC44318364
REMARK  9 active torsions:
REMARK  status: ('A' for Active; 'I' for Inactive)
REMARK    1  A    between atoms: C_1  and  C_2
REMARK    2  A    between atoms: C_2  and  C_3
REMARK    3  A    between atoms: C_2  and  C_4
REMARK    4  A    between atoms: C_2  and  O_5
REMARK    5  A    between atoms: O_5  and  C_6
REMARK    6  A    between atoms: N_8  and  CA_9
REMARK    7  A    between atoms: CA_9  and  C_11
REMARK    8  A    between atoms: CA_9  and  C_25
REMARK    9  A    between atoms: C_11  and  C_12
REMARK                            x       y       z     vdW  Elec       q    Type
REMARK                         _______ _______ _______ _____ _____    ______ ____
ROOT
ATOM      1  C   UNL     1       4.388  -0.092  -4.090  0.00  0.00    +0.069 C 
ENDROOT
BRANCH   1   2
ATOM      2  C   UNL     1       3.569   0.946  -4.814  0.00  0.00    -0.044 A 
ATOM      3  C   UNL     1       2.329   0.609  -5.335  0.00  0.00    +0.007 A 
ATOM      4  C   UNL     1       1.569   1.547  -6.000  0.00  0.00    +0.047 A 
ATOM      5  C   UNL     1       2.041   2.845  -6.155  0.00  0.00    +0.136 A 
ATOM      6  C   UNL     1       3.295   3.183  -5.627  0.00  0.00    +0.028 A 
ATOM      7  C   UNL     1       4.052   2.230  -4.953  0.00  0.00    +0.016 A 
ATOM      8  C   UNL     1       3.497   4.606  -5.957  0.00  0.00    +0.028 A 
ATOM      9  C   UNL     1       4.520   5.519  -5.720  0.00  0.00    +0.012 A 
ATOM     10  C   UNL     1       4.399   6.815  -6.173  0.00  0.00    +0.001 A 
ATOM     11  C   UNL     1       3.263   7.208  -6.863  0.00  0.00    +0.004 A 
ATOM     12  C   UNL     1       2.243   6.312  -7.104  0.00  0.00    +0.047 A 
ATOM     13  C   UNL     1       2.347   5.001  -6.655  0.00  0.00    +0.136 A 
ATOM     14  O   UNL     1       1.517   3.938  -6.750  0.00  0.00    -0.455 OA
ENDBRANCH   1   2
BRANCH   1  15
ATOM     15  CA  UNL     1       4.035  -0.071  -2.601  0.00  0.00    +0.193 C 
BRANCH  15  18
ATOM     16  C   UNL     1       1.952  -0.085  -1.337  0.00  0.00    +0.401 C 
ATOM     17  O   UNL     1       2.488   0.619  -0.503  0.00  0.00    -0.226 OA
ATOM     18  N   UNL     1       2.641  -0.485  -2.424  0.00  0.00    -0.267 N 
ATOM     19  H   UNL     1       2.213  -1.047  -3.089  0.00  0.00    +0.153 HD
BRANCH  16  20
ATOM     20  O   UNL     1       0.671  -0.465  -1.174  0.00  0.00    -0.445 OA
BRANCH  20  22
ATOM     21  C   UNL     1      -0.019   1.526   0.010  0.00  0.00    +0.055 C 
ATOM     22  C   UNL     1       0.002  -0.004   0.002  0.00  0.00    +0.107 C 
ATOM     23  C   UNL     1       0.742  -0.511   1.242  0.00  0.00    +0.055 C 
ATOM     24  C   UNL     1      -1.433  -0.534   0.013  0.00  0.00    +0.055 C 
ENDBRANCH  20  22
ENDBRANCH  16  20
ENDBRANCH  15  18
BRANCH  15  25
ATOM     25  C   UNL     1       4.939  -1.021  -1.858  0.00  0.00    +0.376 C 
ATOM     26  O   UNL     1       4.611  -2.186  -1.711  0.00  0.00    -0.244 OA
ATOM     27  OXT UNL     1       5.998  -0.624  -1.404  0.00  0.00    -0.244 OA
ENDBRANCH  15  25
ENDBRANCH   1  15
TORSDOF 6
