REMARK  Name = ZINC12209274
REMARK  6 active torsions:
REMARK  status: ('A' for Active; 'I' for Inactive)
REMARK    1  A    between atoms: N_9  and  C_10
REMARK    2  A    between atoms: C_10  and  C_11
REMARK    3  A    between atoms: C_13  and  C_16
REMARK    4  A    between atoms: N_18  and  C_19
REMARK    5  A    between atoms: C_19  and  C_21
REMARK    6  A    between atoms: C_19  and  C_26
REMARK                            x       y       z     vdW  Elec       q    Type
REMARK                         _______ _______ _______ _____ _____    ______ ____
ROOT
ATOM      1  C   UNL     1      -1.478  -1.297   1.426  0.00  0.00    +0.216 A 
ATOM      2  N   UNL     1      -2.269  -0.661   2.236  0.00  0.00    -0.207 NA
ATOM      3  C   UNL     1      -2.302  -1.328   3.421  0.00  0.00    +0.164 A 
ATOM      4  C   UNL     1      -1.486  -2.410   3.293  0.00  0.00    +0.230 A 
ATOM      5  O   UNL     1      -0.987  -2.379   2.047  0.00  0.00    -0.445 OA
ENDROOT
BRANCH   3   6
ATOM      6  C   UNL     1      -3.075  -0.951   4.618  0.00  0.00    +0.266 C 
ATOM      7  O   UNL     1      -3.017  -1.637   5.620  0.00  0.00    -0.268 OA
ATOM      8  N   UNL     1      -3.846   0.154   4.601  0.00  0.00    -0.293 N 
ATOM      9  H   UNL     1      -3.892   0.702   3.802  0.00  0.00    +0.150 HD
BRANCH   8  10
ATOM     10  C   UNL     1      -4.614   0.530   5.791  0.00  0.00    +0.244 C 
BRANCH  10  11
ATOM     11  C   UNL     1      -4.874   2.014   5.774  0.00  0.00    +0.134 A 
ATOM     12  C   UNL     1      -4.832   2.833   6.840  0.00  0.00    +0.047 A 
ATOM     13  C   UNL     1      -5.135   4.132   6.371  0.00  0.00    +0.041 A 
ATOM     14  C   UNL     1      -5.353   4.028   5.048  0.00  0.00    +0.195 A 
ATOM     15  O   UNL     1      -5.193   2.743   4.691  0.00  0.00    -0.466 OA
ENDBRANCH  10  11
BRANCH  10  16
ATOM     16  C   UNL     1      -5.947  -0.222   5.796  0.00  0.00    +0.415 C 
ATOM     17  F   UNL     1      -5.705  -1.600   5.812  0.00  0.00    -0.168 F 
ATOM     18  F   UNL     1      -6.680   0.137   6.932  0.00  0.00    -0.168 F 
ATOM     19  F   UNL     1      -6.673   0.111   4.647  0.00  0.00    -0.168 F 
ENDBRANCH  10  16
ENDBRANCH   8  10
ENDBRANCH   3   6
BRANCH   1  20
ATOM     20  C   UNL     1      -1.166  -0.888   0.009  0.00  0.00    +0.219 C 
BRANCH  20  29
ATOM     21  C   UNL     1       4.093  -0.506  -0.039  0.00  0.00    +0.002 A 
ATOM     22  C   UNL     1       3.347  -1.677  -0.039  0.00  0.00    +0.002 A 
ATOM     23  C   UNL     1       1.969  -1.627  -0.026  0.00  0.00    +0.028 A 
ATOM     24  C   UNL     1       1.325  -0.397  -0.013  0.00  0.00    +0.069 A 
ATOM     25  C   UNL     1       2.081   0.788  -0.014  0.00  0.00    +0.089 A 
ATOM     26  C   UNL     1       3.477   0.713  -0.027  0.00  0.00    +0.030 A 
ATOM     27  N   UNL     1       1.199   1.820   0.000  0.00  0.00    -0.236 NA
ATOM     28  C   UNL     1      -0.016   1.356   0.009  0.00  0.00    +0.200 A 
ATOM     29  N   UNL     1       0.002  -0.004   0.002  0.00  0.00    -0.321 N 
ENDBRANCH  20  29
ENDBRANCH   1  20
TORSDOF 6
