REMARK  Name = ZINC15670674
REMARK  6 active torsions:
REMARK  status: ('A' for Active; 'I' for Inactive)
REMARK    1  A    between atoms: C_1  and  N_2
REMARK    2  A    between atoms: C_3  and  O_24
REMARK    3  A    between atoms: C_4  and  C_11
REMARK    4  A    between atoms: N_7  and  C_10
REMARK    5  A    between atoms: C_14  and  C_17
REMARK    6  A    between atoms: C_20  and  O_23
REMARK                            x       y       z     vdW  Elec       q    Type
REMARK                         _______ _______ _______ _____ _____    ______ ____
ROOT
ATOM      1  C   UNL     1      -2.396  -2.868   0.011  0.00  0.00    +0.078 C 
ATOM      2  N   UNL     1      -2.469  -4.154  -0.001  0.00  0.00    -0.190 NA
ATOM      3  N   UNL     1      -3.771  -4.651   0.014  0.00  0.00    -0.261 N 
ATOM      4  C   UNL     1      -4.711  -3.519   0.030  0.00  0.00    +0.125 C 
ATOM      5  C   UNL     1      -3.790  -2.283   0.028  0.00  0.00    +0.086 C 
ATOM      6  H   UNL     1      -4.017  -5.589   0.012  0.00  0.00    +0.169 HD
ENDROOT
BRANCH   1  10
ATOM      7  C   UNL     1      -0.018   1.461   0.010  0.00  0.00    +0.154 C 
ATOM      8  N   UNL     1       0.002  -0.004   0.002  0.00  0.00    -0.295 N 
ATOM      9  C   UNL     1      -1.178  -0.698   0.015  0.00  0.00    +0.209 A 
ATOM     10  C   UNL     1      -1.147  -2.087   0.003  0.00  0.00    +0.122 A 
ATOM     11  C   UNL     1       0.115  -2.739  -0.013  0.00  0.00    +0.267 A 
ATOM     12  O   UNL     1       0.180  -3.955  -0.020  0.00  0.00    -0.267 OA
ATOM     13  N   UNL     1       1.240  -1.997  -0.021  0.00  0.00    -0.291 N 
ATOM     14  C   UNL     1       1.179  -0.654  -0.013  0.00  0.00    +0.165 A 
ATOM     15  S   UNL     1       2.633   0.250  -0.022  0.00  0.00    -0.013 S 
ATOM     16  C   UNL     1       2.546  -2.662  -0.037  0.00  0.00    +0.154 C 
BRANCH   9  17
ATOM     17  O   UNL     1      -2.356  -0.042   0.036  0.00  0.00    -0.493 OA
ATOM     18  H   UNL     1      -2.320   0.925   0.040  0.00  0.00    +0.294 HD
ENDBRANCH   9  17
ENDBRANCH   1  10
BRANCH   4  19
ATOM     19  C   UNL     1      -5.559  -3.547   1.276  0.00  0.00    -0.025 A 
ATOM     20  C   UNL     1      -5.024  -4.010   2.464  0.00  0.00    +0.009 A 
ATOM     21  C   UNL     1      -5.797  -4.031   3.609  0.00  0.00    +0.046 A 
ATOM     22  C   UNL     1      -7.114  -3.598   3.563  0.00  0.00    +0.117 A 
ATOM     23  C   UNL     1      -7.650  -3.139   2.368  0.00  0.00    +0.046 A 
ATOM     24  C   UNL     1      -6.871  -3.114   1.228  0.00  0.00    +0.009 A 
BRANCH  22  25
ATOM     25  O   UNL     1      -7.878  -3.622   4.686  0.00  0.00    -0.507 OA
ATOM     26  H   UNL     1      -8.363  -4.449   4.815  0.00  0.00    +0.292 HD
ENDBRANCH  22  25
ENDBRANCH   4  19
TORSDOF 4
