REMARK  Name = ZINC20257318
REMARK  1 active torsions:
REMARK  status: ('A' for Active; 'I' for Inactive)
REMARK    1  A    between atoms: N_10  and  C_11
REMARK                            x       y       z     vdW  Elec       q    Type
REMARK                         _______ _______ _______ _____ _____    ______ ____
ROOT
ATOM      1  C   UNL     1      -7.939   0.154   2.734  0.00  0.00    +0.093 C 
ATOM      2  C   UNL     1      -7.327   1.402   2.083  0.00  0.00    +0.117 C 
ATOM      3  N   UNL     1      -6.395   0.977   1.030  0.00  0.00    -0.285 N 
ATOM      4  C   UNL     1      -6.889   0.137  -0.068  0.00  0.00    +0.117 C 
ATOM      5  C   UNL     1      -7.488  -1.148   0.530  0.00  0.00    +0.093 C 
ATOM      6  C   UNL     1      -8.443  -0.758   1.637  0.00  0.00    +0.136 C 
ATOM      7  O   UNL     1      -9.579  -1.166   1.646  0.00  0.00    -0.297 OA
ATOM      8  C   UNL     1      -5.103   1.358   1.069  0.00  0.00    +0.303 C 
ATOM      9  O   UNL     1      -4.680   1.978   2.026  0.00  0.00    -0.253 OA
ATOM     10  N   UNL     1      -4.280   1.053   0.047  0.00  0.00    -0.294 N 
ATOM     11  H   UNL     1      -4.640   0.424  -0.780  0.00  0.00    +0.151 HD
ENDROOT
BRANCH  10  12
ATOM     12  C   UNL     1      -2.905   1.559   0.037  0.00  0.00    +0.037 C 
ATOM     13  C   UNL     1      -2.190   1.070  -1.224  0.00  0.00    +0.029 C 
ATOM     14  C   UNL     1      -0.754   1.599  -1.234  0.00  0.00    -0.008 C 
ATOM     15  C   UNL     1      -0.014   1.087   0.003  0.00  0.00    +0.007 C 
ATOM     16  C   UNL     1      -0.729   1.576   1.264  0.00  0.00    -0.008 C 
ATOM     17  C   UNL     1      -2.164   1.047   1.274  0.00  0.00    +0.029 C 
ATOM     18  C   UNL     1      -0.748   3.106   1.279  0.00  0.00    +0.007 C 
ATOM     19  C   UNL     1      -1.489   3.618   0.042  0.00  0.00    -0.008 C 
ATOM     20  C   UNL     1      -0.774   3.129  -1.220  0.00  0.00    +0.007 C 
ATOM     21  C   UNL     1      -2.925   3.089   0.052  0.00  0.00    +0.029 C 
ENDBRANCH  10  12
TORSDOF 1
