REMARK  Name = ZINC19208556
REMARK  9 active torsions:
REMARK  status: ('A' for Active; 'I' for Inactive)
REMARK    1  A    between atoms: C_1  and  C_2
REMARK    2  A    between atoms: C_5  and  C_8
REMARK    3  A    between atoms: C_8  and  O_32
REMARK    4  A    between atoms: N_11  and  C_14
REMARK    5  A    between atoms: C_14  and  C_15
REMARK    6  A    between atoms: C_15  and  C_17
REMARK    7  A    between atoms: C_15  and  O_31
REMARK    8  A    between atoms: N_26  and  S_27
REMARK    9  A    between atoms: S_27  and  C_30
REMARK                            x       y       z     vdW  Elec       q    Type
REMARK                         _______ _______ _______ _____ _____    ______ ____
ROOT
ATOM      1  C   UNL     1      -1.635   2.636  -3.149  0.00  0.00    -0.042 C 
ENDROOT
BRANCH   1   5
ATOM      2  C   UNL     1      -0.228   0.080  -0.023  0.00  0.00    +0.088 C 
ATOM      3  C   UNL     1       0.212  -0.181  -1.467  0.00  0.00    +0.021 C 
ATOM      4  C   UNL     1      -0.772   0.493  -2.425  0.00  0.00    -0.076 C 
ATOM      5  N   UNL     1      -0.806   1.937  -2.158  0.00  0.00    +0.382 N 
ATOM      6  C   UNL     1      -1.272   2.214  -0.793  0.00  0.00    -0.076 C 
ATOM      7  C   UNL     1      -0.302   1.591   0.214  0.00  0.00    +0.021 C 
ATOM      8  H   UNL     1       0.222   2.318  -2.246  0.00  0.00    -0.082 HD
BRANCH   2  13
ATOM      9  C   UNL     1       3.603  -2.260   3.616  0.00  0.00    +0.044 C 
ATOM     10  C   UNL     1       2.604  -1.650   2.666  0.00  0.00    -0.050 A 
ATOM     11  C   UNL     1       1.276  -1.545   3.035  0.00  0.00    +0.004 A 
ATOM     12  C   UNL     1       0.359  -0.985   2.164  0.00  0.00    +0.007 A 
ATOM     13  C   UNL     1       0.771  -0.530   0.926  0.00  0.00    -0.016 A 
ATOM     14  C   UNL     1       2.099  -0.640   0.555  0.00  0.00    +0.007 A 
ATOM     15  C   UNL     1       3.016  -1.196   1.427  0.00  0.00    +0.004 A 
ENDBRANCH   2  13
BRANCH   2  16
ATOM     16  O   UNL     1      -1.514  -0.501   0.197  0.00  0.00    -0.384 OA
ATOM     17  H   UNL     1      -2.375  -0.177  -0.407  0.00  0.00    +0.211 HD
ENDBRANCH   2  16
ENDBRANCH   1   5
BRANCH   1  18
ATOM     18  C   UNL     1      -1.726   4.119  -2.784  0.00  0.00    +0.128 C 
BRANCH  18  19
ATOM     19  C   UNL     1      -2.546   4.843  -3.820  0.00  0.00    -0.021 A 
ATOM     20  C   UNL     1      -1.968   5.214  -5.021  0.00  0.00    +0.008 A 
ATOM     21  C   UNL     1      -2.721   5.874  -5.972  0.00  0.00    +0.025 A 
ATOM     22  C   UNL     1      -4.054   6.174  -5.718  0.00  0.00    +0.054 A 
ATOM     23  C   UNL     1      -4.632   5.805  -4.513  0.00  0.00    -0.024 A 
ATOM     24  C   UNL     1      -3.871   5.139  -3.567  0.00  0.00    +0.011 A 
ATOM     25  C   UNL     1      -6.075   6.107  -4.207  0.00  0.00    +0.038 C 
ATOM     26  C   UNL     1      -6.584   7.242  -5.096  0.00  0.00    +0.025 C 
ATOM     27  C   UNL     1      -6.259   6.910  -6.558  0.00  0.00    +0.131 C 
ATOM     28  N   UNL     1      -4.797   6.853  -6.691  0.00  0.00    -0.207 N 
BRANCH  28  29
ATOM     29  S   UNL     1      -4.040   7.582  -7.971  0.00  0.00    +0.043 S 
ATOM     30  O   UNL     1      -4.993   8.505  -8.478  0.00  0.00    -0.155 OA
ATOM     31  O   UNL     1      -2.799   8.036  -7.447  0.00  0.00    -0.155 OA
ATOM     32  C   UNL     1      -3.762   6.248  -9.169  0.00  0.00    +0.218 C 
ENDBRANCH  28  29
ENDBRANCH  18  19
BRANCH  18  33
ATOM     33  O   UNL     1      -0.412   4.679  -2.740  0.00  0.00    -0.389 OA
ATOM     34  H   UNL     1      -0.275   5.742  -2.492  0.00  0.00    +0.210 HD
ENDBRANCH  18  33
ENDBRANCH   1  18
TORSDOF 7
