REMARK  Name = ZINC25251324
REMARK  2 active torsions:
REMARK  status: ('A' for Active; 'I' for Inactive)
REMARK    1  A    between atoms: C_1  and  C_2
REMARK    2  A    between atoms: C_18  and  C_21
REMARK                            x       y       z     vdW  Elec       q    Type
REMARK                         _______ _______ _______ _____ _____    ______ ____
ROOT
ATOM      1  C   UNL     1      -0.020   1.504   0.002  0.00  0.00    +0.089 C 
ATOM      2  C   UNL     1       0.001  -0.003  -0.007  0.00  0.00    +0.136 A 
ATOM      3  C   UNL     1      -1.077  -0.807  -0.003  0.00  0.00    +0.091 A 
ATOM      4  C   UNL     1      -0.626  -2.146  -0.015  0.00  0.00    +0.169 A 
ATOM      5  N   UNL     1       0.683  -2.129  -0.025  0.00  0.00    -0.063 NA
ATOM      6  O   UNL     1       1.099  -0.775  -0.025  0.00  0.00    -0.358 OA
ATOM      7  N   UNL     1      -1.432  -3.284  -0.014  0.00  0.00    -0.251 N 
ATOM      8  C   UNL     1      -2.774  -3.159  -0.002  0.00  0.00    +0.308 C 
ATOM      9  O   UNL     1      -3.281  -2.059   0.103  0.00  0.00    -0.252 OA
ATOM     10  N   UNL     1      -3.554  -4.254  -0.106  0.00  0.00    -0.280 N 
ATOM     11  C   UNL     1      -2.977  -5.603  -0.114  0.00  0.00    +0.144 C 
ATOM     12  C   UNL     1      -3.785  -6.505   0.784  0.00  0.00    -0.026 A 
ATOM     13  C   UNL     1      -3.256  -7.751   1.095  0.00  0.00    +0.005 A 
ATOM     14  C   UNL     1      -3.953  -8.625   1.904  0.00  0.00    +0.000 A 
ATOM     15  C   UNL     1      -5.187  -8.258   2.407  0.00  0.00    +0.000 A 
ATOM     16  C   UNL     1      -5.712  -7.019   2.102  0.00  0.00    +0.004 A 
ATOM     17  C   UNL     1      -5.010  -6.135   1.292  0.00  0.00    -0.034 A 
ATOM     18  C   UNL     1      -5.632  -4.790   1.024  0.00  0.00    +0.067 C 
ATOM     19  C   UNL     1      -5.018  -4.144  -0.210  0.00  0.00    +0.122 C 
ATOM     20  H   UNL     1      -1.027  -4.165  -0.023  0.00  0.00    +0.158 HD
ENDROOT
BRANCH  18  21
ATOM     21  C   UNL     1      -7.114  -4.963   0.809  0.00  0.00    -0.038 A 
ATOM     22  C   UNL     1      -7.574  -5.765  -0.219  0.00  0.00    +0.004 A 
ATOM     23  C   UNL     1      -8.932  -5.924  -0.416  0.00  0.00    +0.000 A 
ATOM     24  C   UNL     1      -9.831  -5.282   0.415  0.00  0.00    +0.000 A 
ATOM     25  C   UNL     1      -9.371  -4.481   1.444  0.00  0.00    +0.000 A 
ATOM     26  C   UNL     1      -8.012  -4.325   1.644  0.00  0.00    +0.004 A 
ENDBRANCH  18  21
TORSDOF 1
