REMARK  Name = ZINC05510153
REMARK  7 active torsions:
REMARK  status: ('A' for Active; 'I' for Inactive)
REMARK    1  A    between atoms: C_1  and  C_2
REMARK    2  A    between atoms: C_2  and  O_3
REMARK    3  A    between atoms: O_3  and  C_4
REMARK    4  A    between atoms: C_4  and  C_6
REMARK    5  A    between atoms: C_11  and  N_12
REMARK    6  A    between atoms: C_11  and  N_45
REMARK    7  A    between atoms: C_16  and  C_18
REMARK                            x       y       z     vdW  Elec       q    Type
REMARK                         _______ _______ _______ _____ _____    ______ ____
ROOT
ATOM      1  N   UNL     1       1.574  -2.425   2.316  0.00  0.00    -0.240 N 
ATOM      2  C   UNL     1       2.865  -2.780   2.143  0.00  0.00    +0.265 A 
ATOM      3  S   UNL     1       3.729  -2.765   0.665  0.00  0.00    +0.011 S 
ATOM      4  O   UNL     1       3.347  -3.144   3.344  0.00  0.00    -0.412 OA
ATOM      5  C   UNL     1       2.364  -3.027   4.263  0.00  0.00    +0.249 A 
ATOM      6  N   UNL     1       1.284  -2.597   3.678  0.00  0.00    -0.131 NA
ENDROOT
BRANCH   5   7
ATOM      7  C   UNL     1       2.495  -3.338   5.702  0.00  0.00    +0.057 A 
ATOM      8  C   UNL     1       3.711  -3.795   6.213  0.00  0.00    +0.016 A 
ATOM      9  C   UNL     1       3.826  -4.083   7.557  0.00  0.00    +0.021 A 
ATOM     10  C   UNL     1       2.739  -3.921   8.400  0.00  0.00    +0.042 A 
ATOM     11  C   UNL     1       1.530  -3.469   7.900  0.00  0.00    +0.040 A 
ATOM     12  C   UNL     1       1.403  -3.171   6.558  0.00  0.00    +0.055 A 
ATOM     13 CL   UNL     1      -0.111  -2.596   5.933  0.00  0.00    -0.083 Cl
ATOM     14 CL   UNL     1       2.893  -4.287  10.090  0.00  0.00    -0.083 Cl
ENDBRANCH   5   7
BRANCH   1  15
ATOM     15  C   UNL     1       0.651  -1.955   1.280  0.00  0.00    +0.073 C 
BRANCH  15  21
ATOM     16  C   UNL     1       1.420   2.051  -0.001  0.00  0.00    +0.094 C 
ATOM     17  C   UNL     1      -0.019   1.526   0.010  0.00  0.00    -0.004 C 
ATOM     18  C   UNL     1       0.002  -0.004   0.002  0.00  0.00    -0.075 C 
ATOM     19  C   UNL     1       2.126  -0.039   1.168  0.00  0.00    -0.075 C 
ATOM     20  C   UNL     1       2.169   1.490   1.211  0.00  0.00    -0.004 C 
ATOM     21  N   UNL     1       0.716  -0.481   1.206  0.00  0.00    +0.393 N 
ATOM     22  H   UNL     1       0.265  -0.085   2.039  0.00  0.00    -0.079 HD
BRANCH  16  23
ATOM     23  C   UNL     1       1.407   3.557   0.068  0.00  0.00    +0.310 C 
ATOM     24  O   UNL     1       0.355   4.150   0.121  0.00  0.00    -0.251 OA
BRANCH  23  25
ATOM     25  O   UNL     1       2.563   4.238   0.071  0.00  0.00    -0.465 OA
BRANCH  25  27
ATOM     26  C   UNL     1       3.883   6.284   0.132  0.00  0.00    +0.048 C 
ATOM     27  C   UNL     1       2.474   5.686   0.139  0.00  0.00    +0.229 C 
ENDBRANCH  25  27
ENDBRANCH  23  25
ENDBRANCH  16  23
ENDBRANCH  15  21
ENDBRANCH   1  15
TORSDOF 6
