REMARK  Name = ZINC12414570
REMARK  5 active torsions:
REMARK  status: ('A' for Active; 'I' for Inactive)
REMARK    1  A    between atoms: C_1  and  O_2
REMARK    2  A    between atoms: O_2  and  C_3
REMARK    3  A    between atoms: C_6  and  N_9
REMARK    4  A    between atoms: C_10  and  C_12
REMARK    5  A    between atoms: C_17  and  C_25
REMARK                            x       y       z     vdW  Elec       q    Type
REMARK                         _______ _______ _______ _____ _____    ______ ____
ROOT
ATOM      1  C   UNL     1       2.455   0.377   0.365  0.00  0.00    +0.247 C 
ATOM      2  N   UNL     1       2.065   1.722  -0.049  0.00  0.00    -0.319 N 
ATOM      3  C   UNL     1       0.750   2.180  -0.027  0.00  0.00    +0.056 A 
ATOM      4  C   UNL     1       0.518   3.555  -0.011  0.00  0.00    +0.037 A 
ATOM      5  C   UNL     1      -0.773   4.040  -0.007  0.00  0.00    +0.057 A 
ATOM      6  C   UNL     1      -1.846   3.168  -0.018  0.00  0.00    +0.014 A 
ATOM      7  C   UNL     1      -1.624   1.803  -0.023  0.00  0.00    +0.031 A 
ATOM      8  C   UNL     1      -0.334   1.314  -0.029  0.00  0.00    +0.126 A 
ATOM      9  S   UNL     1      -0.055  -0.432  -0.031  0.00  0.00    +0.062 S 
ATOM     10  O   UNL     1      -0.297  -0.892   1.292  0.00  0.00    -0.153 OA
ATOM     11  O   UNL     1      -0.731  -0.959  -1.164  0.00  0.00    -0.153 OA
ATOM     12  N   UNL     1       1.580  -0.600  -0.315  0.00  0.00    -0.161 NA
ATOM     13  H   UNL     1       2.758   2.328  -0.355  0.00  0.00    +0.148 HD
ATOM     14  H   UNL     1       1.934  -1.295  -0.890  0.00  0.00    +0.151 HD
ENDROOT
BRANCH   1  16
ATOM     15  N   UNL     1       2.861  -0.798   2.503  0.00  0.00    -0.283 N 
ATOM     16  C   UNL     1       2.299   0.243   1.858  0.00  0.00    +0.254 C 
ATOM     17  O   UNL     1       1.667   1.071   2.479  0.00  0.00    -0.272 OA
ATOM     18  H   UNL     1       3.300  -1.501   2.000  0.00  0.00    +0.155 HD
BRANCH  15  22
ATOM     19  C   UNL     1       2.711  -0.999   6.666  0.00  0.00    +0.120 A 
ATOM     20  C   UNL     1       2.673  -2.164   5.914  0.00  0.00    +0.047 A 
ATOM     21  C   UNL     1       2.722  -2.098   4.535  0.00  0.00    +0.027 A 
ATOM     22  C   UNL     1       2.810  -0.866   3.902  0.00  0.00    +0.034 A 
ATOM     23  C   UNL     1       2.854   0.300   4.655  0.00  0.00    +0.027 A 
ATOM     24  C   UNL     1       2.798   0.233   6.034  0.00  0.00    +0.047 A 
BRANCH  19  26
ATOM     25  C   UNL     1       2.705   0.175   8.734  0.00  0.00    +0.277 C 
ATOM     26  O   UNL     1       2.662  -1.064   8.023  0.00  0.00    -0.495 OA
ENDBRANCH  19  26
ENDBRANCH  15  22
ENDBRANCH   1  16
BRANCH   5  27
ATOM     27  C   UNL     1      -1.015   5.528   0.009  0.00  0.00    +0.417 C 
ATOM     28  F   UNL     1      -1.088   6.002  -1.305  0.00  0.00    -0.166 F 
ATOM     29  F   UNL     1      -2.218   5.797   0.670  0.00  0.00    -0.166 F 
ATOM     30  F   UNL     1       0.037   6.164   0.677  0.00  0.00    -0.166 F 
ENDBRANCH   5  27
TORSDOF 4
