REMARK  Name = ZINC26104444
REMARK  7 active torsions:
REMARK  status: ('A' for Active; 'I' for Inactive)
REMARK    1  A    between atoms: C_1  and  C_2
REMARK    2  A    between atoms: C_2  and  C_3
REMARK    3  A    between atoms: C_2  and  C_4
REMARK    4  A    between atoms: C_4  and  C_6
REMARK    5  A    between atoms: C_4  and  S_12
REMARK    6  A    between atoms: S_12  and  C_13
REMARK    7  A    between atoms: N_22  and  C_23
REMARK                            x       y       z     vdW  Elec       q    Type
REMARK                         _______ _______ _______ _____ _____    ______ ____
ROOT
ATOM      1  C   UNL     1       0.718  -0.497  -1.257  0.00  0.00    +0.143 C 
ENDROOT
BRANCH   1   2
ATOM      2  C   UNL     1      -0.011   0.002  -2.478  0.00  0.00    +0.234 C 
ATOM      3  O   UNL     1      -0.835  -0.702  -3.021  0.00  0.00    -0.274 OA
ATOM      4  N   UNL     1       0.254   1.230  -2.965  0.00  0.00    -0.239 N 
ATOM      5  C   UNL     1      -0.398   1.677  -4.057  0.00  0.00    +0.303 C 
ATOM      6  O   UNL     1      -1.224   0.972  -4.602  0.00  0.00    -0.253 OA
ATOM      7  N   UNL     1      -0.134   2.905  -4.545  0.00  0.00    -0.313 N 
ATOM      8  H   UNL     1       0.913   1.793  -2.530  0.00  0.00    +0.159 HD
ATOM      9  H   UNL     1       0.526   3.468  -4.109  0.00  0.00    +0.146 HD
ATOM     10  H   UNL     1      -0.603   3.226  -5.330  0.00  0.00    +0.146 HD
ENDBRANCH   1   2
BRANCH   1  12
ATOM     11  C   UNL     1      -0.019   1.526   0.010  0.00  0.00    +0.009 C 
ATOM     12  C   UNL     1       0.002  -0.004   0.002  0.00  0.00    +0.005 C 
ATOM     13  C   UNL     1      -1.433  -0.534   0.013  0.00  0.00    +0.009 C 
ENDBRANCH   1  12
BRANCH   1  14
ATOM     14  S   UNL     1       0.743  -2.311  -1.267  0.00  0.00    -0.075 S 
BRANCH  14  15
ATOM     15  C   UNL     1       1.742  -2.732   0.122  0.00  0.00    +0.173 A 
ATOM     16  N   UNL     1       2.238  -1.767   0.849  0.00  0.00    -0.222 NA
ATOM     17  C   UNL     1       3.022  -2.014   1.941  0.00  0.00    +0.086 A 
ATOM     18  C   UNL     1       3.620  -1.091   2.811  0.00  0.00    +0.036 A 
ATOM     19  C   UNL     1       4.369  -1.522   3.848  0.00  0.00    +0.048 A 
ATOM     20  S   UNL     1       4.290  -3.297   3.680  0.00  0.00    -0.090 S 
ATOM     21  C   UNL     1       3.263  -3.368   2.236  0.00  0.00    +0.102 A 
ATOM     22  C   UNL     1       2.731  -4.391   1.455  0.00  0.00    +0.269 A 
ATOM     23  O   UNL     1       2.949  -5.561   1.723  0.00  0.00    -0.266 OA
ATOM     24  N   UNL     1       1.960  -4.052   0.394  0.00  0.00    -0.290 N 
ATOM     25  C   UNL     1       1.371  -5.091  -0.456  0.00  0.00    +0.154 C 
ENDBRANCH  14  15
ENDBRANCH   1  14
TORSDOF 4
