REMARK  Name = ZINC49009502
REMARK  8 active torsions:
REMARK  status: ('A' for Active; 'I' for Inactive)
REMARK    1  A    between atoms: C_1  and  C_2
REMARK    2  A    between atoms: C_4  and  N_23
REMARK    3  A    between atoms: C_5  and  S_9
REMARK    4  A    between atoms: C_7  and  C_8
REMARK    5  A    between atoms: S_9  and  N_12
REMARK    6  A    between atoms: N_12  and  C_13
REMARK    7  A    between atoms: N_12  and  C_14
REMARK    8  A    between atoms: C_19  and  C_22
REMARK                            x       y       z     vdW  Elec       q    Type
REMARK                         _______ _______ _______ _____ _____    ______ ____
ROOT
ATOM      1  S   UNL     1      -0.427  -3.825  -0.154  0.00  0.00    +0.063 S 
ATOM      2  O   UNL     1       0.852  -4.072  -0.721  0.00  0.00    -0.153 OA
ATOM      3  O   UNL     1      -0.647  -3.807   1.250  0.00  0.00    -0.153 OA
ENDROOT
BRANCH   1   8
ATOM      4  C   UNL     1      -2.247   1.537  -2.250  0.00  0.00    +0.044 C 
ATOM      5  C   UNL     1      -1.792   0.198  -1.731  0.00  0.00    -0.046 A 
ATOM      6  C   UNL     1      -1.251  -0.731  -2.598  0.00  0.00    +0.028 A 
ATOM      7  C   UNL     1      -0.831  -1.965  -2.119  0.00  0.00    +0.051 A 
ATOM      8  C   UNL     1      -0.957  -2.261  -0.767  0.00  0.00    +0.126 A 
ATOM      9  C   UNL     1      -1.499  -1.328   0.095  0.00  0.00    +0.034 A 
ATOM     10  C   UNL     1      -1.911  -0.098  -0.385  0.00  0.00    -0.046 A 
ATOM     11  C   UNL     1      -2.496   0.920   0.559  0.00  0.00    +0.044 C 
BRANCH   7  12
ATOM     12  N   UNL     1      -0.284  -2.907  -2.993  0.00  0.00    -0.356 N 
ATOM     13  H   UNL     1      -0.291  -2.743  -3.949  0.00  0.00    +0.142 HD
ATOM     14  H   UNL     1       0.103  -3.725  -2.645  0.00  0.00    +0.142 HD
ENDBRANCH   7  12
ENDBRANCH   1   8
BRANCH   1  15
ATOM     15  N   UNL     1      -1.450  -4.968  -0.778  0.00  0.00    -0.177 NA
ATOM     16  C   UNL     1      -1.134  -5.617  -2.053  0.00  0.00    +0.132 C 
BRANCH  15  17
ATOM     17  C   UNL     1      -2.672  -5.331  -0.055  0.00  0.00    +0.080 C 
ATOM     18  C   UNL     1      -3.481  -4.068   0.245  0.00  0.00    +0.020 C 
ATOM     19  C   UNL     1      -3.852  -3.377  -1.069  0.00  0.00    +0.002 C 
ATOM     20  C   UNL     1      -4.689  -4.328  -1.927  0.00  0.00    +0.003 C 
ATOM     21  C   UNL     1      -3.880  -5.591  -2.226  0.00  0.00    -0.013 C 
ATOM     22  C   UNL     1      -3.509  -6.282  -0.913  0.00  0.00    +0.024 C 
ATOM     23  C   UNL     1      -4.717  -6.542  -3.084  0.00  0.00    +0.007 C 
ENDBRANCH  15  17
ENDBRANCH   1  15
TORSDOF 4
