REMARK  Name = ZINC19529800
REMARK  9 active torsions:
REMARK  status: ('A' for Active; 'I' for Inactive)
REMARK    1  A    between atoms: C_1  and  C_2
REMARK    2  A    between atoms: C_2  and  O_3
REMARK    3  A    between atoms: O_3  and  C_4
REMARK    4  A    between atoms: C_4  and  C_6
REMARK    5  A    between atoms: C_6  and  C_32
REMARK    6  A    between atoms: C_11  and  C_14
REMARK    7  A    between atoms: N_21  and  C_24
REMARK    8  A    between atoms: C_27  and  O_30
REMARK    9  A    between atoms: O_30  and  C_31
REMARK                            x       y       z     vdW  Elec       q    Type
REMARK                         _______ _______ _______ _____ _____    ______ ____
ROOT
ATOM      1  C   UNL     1       1.468  -2.353  -2.550  0.00  0.00    +0.127 C 
ATOM      2  C   UNL     1       0.916  -3.730  -2.882  0.00  0.00    +0.120 C 
ATOM      3  C   UNL     1      -0.314  -3.282  -3.761  0.00  0.00    +0.112 C 
ATOM      4  C   UNL     1       0.306  -2.314  -4.682  0.00  0.00    +0.104 C 
ATOM      5  N   UNL     1       1.178  -1.506  -3.746  0.00  0.00    -0.293 NA
ATOM      6  C   UNL     1      -1.106  -4.486  -3.791  0.00  0.00    +0.232 C 
ATOM      7  O   UNL     1      -1.798  -4.891  -4.700  0.00  0.00    -0.274 OA
ATOM      8  N   UNL     1      -0.907  -5.075  -2.567  0.00  0.00    -0.210 N 
ATOM      9  C   UNL     1       0.151  -4.529  -1.874  0.00  0.00    +0.232 C 
ATOM     10  O   UNL     1       0.409  -4.659  -0.696  0.00  0.00    -0.274 OA
ATOM     11  C   UNL     1       2.977  -2.431  -2.310  0.00  0.00    +0.040 C 
ATOM     12  H   UNL     1       0.728  -0.644  -3.477  0.00  0.00    +0.124 HD
ENDROOT
BRANCH   8  13
ATOM     13  C   UNL     1      -1.690  -6.130  -2.075  0.00  0.00    +0.044 A 
ATOM     14  C   UNL     1      -1.426  -6.665  -0.822  0.00  0.00    +0.027 A 
ATOM     15  C   UNL     1      -2.198  -7.703  -0.338  0.00  0.00    +0.047 A 
ATOM     16  C   UNL     1      -3.237  -8.210  -1.103  0.00  0.00    +0.120 A 
ATOM     17  C   UNL     1      -3.502  -7.676  -2.356  0.00  0.00    +0.047 A 
ATOM     18  C   UNL     1      -2.734  -6.635  -2.838  0.00  0.00    +0.027 A 
BRANCH  16  19
ATOM     19  O   UNL     1      -3.997  -9.232  -0.626  0.00  0.00    -0.495 OA
ATOM     20  C   UNL     1      -5.051  -9.705  -1.468  0.00  0.00    +0.277 C 
ENDBRANCH  16  19
ENDBRANCH   8  13
BRANCH   4  21
ATOM     21  C   UNL     1       1.122  -3.022  -5.733  0.00  0.00    +0.007 A 
ATOM     22  C   UNL     1       0.797  -3.307  -7.018  0.00  0.00    +0.013 A 
ATOM     23  C   UNL     1       1.714  -3.972  -7.810  0.00  0.00    +0.008 A 
ATOM     24  C   UNL     1       2.912  -4.319  -7.278  0.00  0.00    +0.045 A 
ATOM     25  S   UNL     1       2.771  -3.696  -5.611  0.00  0.00    -0.100 S 
ENDBRANCH   4  21
BRANCH   1  26
ATOM     26  C   UNL     1       0.775  -1.794  -1.334  0.00  0.00    +0.328 C 
ATOM     27  O   UNL     1       0.314  -2.540  -0.504  0.00  0.00    -0.249 OA
BRANCH  26  28
ATOM     28  O   UNL     1       0.671  -0.465  -1.174  0.00  0.00    -0.464 OA
BRANCH  28  30
ATOM     29  C   UNL     1      -0.019   1.526   0.010  0.00  0.00    +0.048 C 
ATOM     30  C   UNL     1       0.002  -0.004   0.002  0.00  0.00    +0.229 C 
ENDBRANCH  28  30
ENDBRANCH  26  28
ENDBRANCH   1  26
TORSDOF 6
