REMARK  Name = ZINC67544007
REMARK  4 active torsions:
REMARK  status: ('A' for Active; 'I' for Inactive)
REMARK    1  A    between atoms: C_3  and  N_8
REMARK    2  A    between atoms: C_11  and  C_13
REMARK    3  A    between atoms: C_13  and  O_15
REMARK    4  A    between atoms: O_15  and  C_16
REMARK                            x       y       z     vdW  Elec       q    Type
REMARK                         _______ _______ _______ _____ _____    ______ ____
ROOT
ATOM      1  C   UNL     1       5.460   5.152   0.021  0.00  0.00    +0.365 C 
ATOM      2  O   UNL     1       6.659   5.349   0.044  0.00  0.00    -0.243 OA
ENDROOT
BRANCH   1   6
ATOM      3  N   UNL     1       3.575   2.131  -0.006  0.00  0.00    -0.239 N 
ATOM      4  C   UNL     1       4.812   1.569   0.021  0.00  0.00    +0.115 A 
ATOM      5  C   UNL     1       5.709   2.583   0.035  0.00  0.00    +0.056 A 
ATOM      6  C   UNL     1       4.940   3.771   0.016  0.00  0.00    +0.170 A 
ATOM      7  N   UNL     1       3.671   3.412  -0.013  0.00  0.00    -0.160 NA
BRANCH   3  10
ATOM      8  C   UNL     1      -0.029   1.390  -0.082  0.00  0.00    +0.005 A 
ATOM      9  C   UNL     1       1.159   2.096  -0.060  0.00  0.00    +0.028 A 
ATOM     10  C   UNL     1       2.369   1.417  -0.028  0.00  0.00    +0.068 A 
ATOM     11  C   UNL     1       2.384   0.028  -0.018  0.00  0.00    +0.066 A 
ATOM     12  C   UNL     1       1.192  -0.674  -0.041  0.00  0.00    +0.125 A 
ATOM     13  C   UNL     1      -0.013   0.008  -0.072  0.00  0.00    +0.038 A 
ATOM     14  F   UNL     1       1.204  -2.025  -0.032  0.00  0.00    -0.205 F 
ENDBRANCH   3  10
ENDBRANCH   1   6
BRANCH   1  15
ATOM     15  O   UNL     1       4.606   6.194   0.001  0.00  0.00    -0.421 OA
BRANCH  15  16
ATOM     16  C   UNL     1       5.124   7.446   0.110  0.00  0.00    +0.132 A 
ATOM     17  C   UNL     1       5.042   8.127   1.316  0.00  0.00    +0.048 A 
ATOM     18  C   UNL     1       5.568   9.399   1.428  0.00  0.00    +0.027 A 
ATOM     19  C   UNL     1       6.179   9.996   0.333  0.00  0.00    +0.037 A 
ATOM     20  C   UNL     1       6.260   9.313  -0.873  0.00  0.00    -0.022 A 
ATOM     21  C   UNL     1       5.739   8.039  -0.983  0.00  0.00    +0.051 A 
ATOM     22  C   UNL     1       6.925   9.963  -2.059  0.00  0.00    +0.046 C 
ATOM     23  C   UNL     1       6.664  11.469  -2.030  0.00  0.00    +0.101 C 
ATOM     24  C   UNL     1       6.966  12.014  -0.660  0.00  0.00    +0.218 C 
ATOM     25  O   UNL     1       7.443  13.124  -0.548  0.00  0.00    -0.275 OA
ATOM     26  N   UNL     1       6.713  11.285   0.442  0.00  0.00    -0.285 N 
ATOM     27  H   UNL     1       6.902  11.655   1.319  0.00  0.00    +0.155 HD
ENDBRANCH  15  16
ENDBRANCH   1  15
TORSDOF 4
