REMARK  Name = ZINC34773714
REMARK  7 active torsions:
REMARK  status: ('A' for Active; 'I' for Inactive)
REMARK    1  A    between atoms: C_1  and  C_2
REMARK    2  A    between atoms: C_2  and  C_28
REMARK    3  A    between atoms: C_12  and  S_18
REMARK    4  A    between atoms: C_14  and  S_16
REMARK    5  A    between atoms: S_16  and  C_17
REMARK    6  A    between atoms: S_18  and  C_19
REMARK    7  A    between atoms: C_19  and  C_20
REMARK                            x       y       z     vdW  Elec       q    Type
REMARK                         _______ _______ _______ _____ _____    ______ ____
ROOT
ATOM      1  C   UNL     1      -0.019   1.526   0.010  0.00  0.00    +0.041 C 
ATOM      2  C   UNL     1       0.002  -0.004   0.002  0.00  0.00    +0.068 C 
ATOM      3  C   UNL     1       0.704  -0.495  -1.268  0.00  0.00    +0.071 C 
ATOM      4  C   UNL     1       0.917  -2.002  -1.137  0.00  0.00    -0.019 A 
ATOM      5  C   UNL     1       0.838  -2.583   0.083  0.00  0.00    +0.021 A 
ATOM      6  S   UNL     1       1.142  -4.301  -0.211  0.00  0.00    -0.071 S 
ATOM      7  C   UNL     1       1.373  -4.232  -1.971  0.00  0.00    +0.115 A 
ATOM      8  C   UNL     1       1.205  -2.872  -2.270  0.00  0.00    +0.056 A 
ATOM      9  C   UNL     1       1.345  -2.522  -3.700  0.00  0.00    +0.174 A 
ATOM     10  N   UNL     1       1.265  -1.402  -4.376  0.00  0.00    -0.128 NA
ATOM     11  N   UNL     1       1.469  -1.634  -5.626  0.00  0.00    -0.122 NA
ATOM     12  C   UNL     1       1.691  -2.913  -5.822  0.00  0.00    +0.198 A 
ATOM     13  N   UNL     1       1.621  -3.528  -4.601  0.00  0.00    -0.248 N 
ATOM     14  C   UNL     1       1.762  -4.822  -4.176  0.00  0.00    +0.177 A 
ATOM     15  N   UNL     1       1.640  -5.139  -2.908  0.00  0.00    -0.216 NA
ATOM     16  C   UNL     1       0.555  -1.888   1.378  0.00  0.00    +0.203 C 
ATOM     17  O   UNL     1       0.694  -0.475   1.161  0.00  0.00    -0.368 OA
ATOM     18  C   UNL     1      -1.434  -0.531   0.020  0.00  0.00    +0.041 C 
ENDROOT
BRANCH  14  19
ATOM     19  S   UNL     1       2.115  -6.085  -5.353  0.00  0.00    -0.091 S 
ATOM     20  C   UNL     1       2.213  -7.598  -4.357  0.00  0.00    +0.093 C 
ENDBRANCH  14  19
BRANCH  12  21
ATOM     21  S   UNL     1       2.018  -3.693  -7.368  0.00  0.00    -0.081 S 
BRANCH  21  22
ATOM     22  C   UNL     1       1.970  -2.331  -8.565  0.00  0.00    +0.114 C 
BRANCH  22  23
ATOM     23  C   UNL     1       2.238  -2.868  -9.948  0.00  0.00    -0.019 A 
ATOM     24  C   UNL     1       3.535  -2.944 -10.432  0.00  0.00    +0.007 A 
ATOM     25  C   UNL     1       3.733  -3.444 -11.710  0.00  0.00    +0.020 A 
ATOM     26  C   UNL     1       2.640  -3.848 -12.453  0.00  0.00    +0.111 A 
ATOM     27  N   UNL     1       1.420  -3.760 -11.959  0.00  0.00    -0.263 NA
ATOM     28  C   UNL     1       1.194  -3.295 -10.746  0.00  0.00    +0.115 A 
ENDBRANCH  22  23
ENDBRANCH  21  22
ENDBRANCH  12  21
TORSDOF 4
