REMARK  Name = ZINC02715565
REMARK  7 active torsions:
REMARK  status: ('A' for Active; 'I' for Inactive)
REMARK    1  A    between atoms: C_1  and  O_2
REMARK    2  A    between atoms: O_2  and  C_3
REMARK    3  A    between atoms: N_9  and  C_23
REMARK    4  A    between atoms: N_11  and  C_12
REMARK    5  A    between atoms: C_12  and  C_14
REMARK    6  A    between atoms: C_17  and  C_20
REMARK    7  A    between atoms: C_23  and  C_24
REMARK                            x       y       z     vdW  Elec       q    Type
REMARK                         _______ _______ _______ _____ _____    ______ ____
ROOT
ATOM      1  C   UNL     1      -2.918  -5.278   0.001  0.00  0.00    +0.145 A 
ATOM      2  C   UNL     1      -2.521  -6.598  -0.009  0.00  0.00    +0.048 A 
ATOM      3  C   UNL     1      -1.180  -6.943  -0.024  0.00  0.00    +0.005 A 
ATOM      4  C   UNL     1      -0.224  -5.942  -0.028  0.00  0.00    +0.017 A 
ATOM      5  C   UNL     1      -0.617  -4.624  -0.017  0.00  0.00    +0.042 A 
ATOM      6  C   UNL     1      -1.965  -4.241  -0.002  0.00  0.00    +0.101 A 
ATOM      7  N   UNL     1      -2.183  -2.874   0.007  0.00  0.00    -0.307 N 
ATOM      8  C   UNL     1      -1.128  -2.017   0.002  0.00  0.00    +0.168 A 
ATOM      9  N   UNL     1      -1.146  -0.688   0.009  0.00  0.00    -0.152 NA
ATOM     10  S   UNL     1       0.247  -3.074  -0.024  0.00  0.00    -0.052 S 
ENDROOT
BRANCH   1  12
ATOM     11  C   UNL     1      -5.160  -6.070   0.018  0.00  0.00    +0.277 C 
ATOM     12  O   UNL     1      -4.243  -4.974   0.015  0.00  0.00    -0.493 OA
ENDBRANCH   1  12
BRANCH   9  13
ATOM     13  C   UNL     1       0.002  -0.004   0.002  0.00  0.00    +0.269 C 
ATOM     14  O   UNL     1       1.066  -0.599  -0.011  0.00  0.00    -0.268 OA
BRANCH  13  15
ATOM     15  C   UNL     1      -0.018   1.477   0.010  0.00  0.00    +0.039 A 
ATOM     16  C   UNL     1      -1.236   2.158   0.020  0.00  0.00    +0.014 A 
ATOM     17  C   UNL     1      -1.256   3.535   0.032  0.00  0.00    +0.019 A 
ATOM     18  C   UNL     1      -0.056   4.250   0.024  0.00  0.00    +0.052 A 
ATOM     19  C   UNL     1       1.163   3.568   0.009  0.00  0.00    +0.019 A 
ATOM     20  C   UNL     1       1.181   2.191   0.003  0.00  0.00    +0.014 A 
BRANCH  18  21
ATOM     21  C   UNL     1      -0.075   5.682   0.030  0.00  0.00    +0.099 C 
ATOM     22  N   UNL     1      -0.090   6.818   0.036  0.00  0.00    -0.191 NA
ENDBRANCH  18  21
ENDBRANCH  13  15
ENDBRANCH   9  13
BRANCH   7  23
ATOM     23  C   UNL     1      -3.551  -2.351   0.023  0.00  0.00    +0.212 C 
BRANCH  23  24
ATOM     24  C   UNL     1      -4.022  -2.169  -1.360  0.00  0.00    -0.084 C 
ATOM     25  C   UNL     1      -4.398  -2.023  -2.462  0.00  0.00    +0.005 C 
ENDBRANCH  23  24
ENDBRANCH   7  23
TORSDOF 6
