REMARK  Name = ZINC00944959
REMARK  4 active torsions:
REMARK  status: ('A' for Active; 'I' for Inactive)
REMARK    1  A    between atoms: C_1  and  C_2
REMARK    2  A    between atoms: C_5  and  O_8
REMARK    3  A    between atoms: O_8  and  C_9
REMARK    4  A    between atoms: C_9  and  C_11
REMARK                            x       y       z     vdW  Elec       q    Type
REMARK                         _______ _______ _______ _____ _____    ______ ____
ROOT
ATOM      1  C   UNL     1       0.087  -2.787   0.031  0.00  0.00    +0.144 A 
ATOM      2  C   UNL     1       1.284  -2.092  -0.021  0.00  0.00    +0.033 A 
ATOM      3  C   UNL     1       1.250  -0.675  -0.011  0.00  0.00    +0.019 A 
ATOM      4  C   UNL     1       2.444   0.060  -0.062  0.00  0.00    +0.026 A 
ATOM      5  C   UNL     1       2.404   1.425  -0.052  0.00  0.00    +0.019 A 
ATOM      6  C   UNL     1       1.187   2.092   0.009  0.00  0.00    +0.019 A 
ATOM      7  C   UNL     1       0.002   1.390   0.059  0.00  0.00    +0.048 A 
ATOM      8  C   UNL     1       0.017  -0.001   0.050  0.00  0.00    +0.139 A 
ATOM      9  O   UNL     1      -1.145  -0.686   0.100  0.00  0.00    -0.422 OA
ATOM     10  C   UNL     1      -1.168  -2.029   0.093  0.00  0.00    +0.351 A 
ATOM     11  O   UNL     1      -2.231  -2.619   0.140  0.00  0.00    -0.244 OA
ATOM     12 BR   UNL     1       4.015   2.413  -0.120  0.00  0.00    -0.050 Br
ENDROOT
BRANCH   1  13
ATOM     13  C   UNL     1       0.074  -4.258   0.023  0.00  0.00    +0.351 C 
ATOM     14  O   UNL     1      -0.983  -4.857   0.068  0.00  0.00    -0.244 OA
BRANCH  13  15
ATOM     15  O   UNL     1       1.234  -4.942  -0.036  0.00  0.00    -0.422 OA
BRANCH  15  20
ATOM     16  C   UNL     1       0.921 -10.551   0.374  0.00  0.00    +0.044 C 
ATOM     17  C   UNL     1       1.005  -9.050   0.265  0.00  0.00    -0.050 A 
ATOM     18  C   UNL     1       0.671  -8.426  -0.923  0.00  0.00    +0.007 A 
ATOM     19  C   UNL     1       0.747  -7.050  -1.026  0.00  0.00    +0.046 A 
ATOM     20  C   UNL     1       1.159  -6.296   0.063  0.00  0.00    +0.132 A 
ATOM     21  C   UNL     1       1.498  -6.926   1.252  0.00  0.00    +0.046 A 
ATOM     22  C   UNL     1       1.414  -8.301   1.352  0.00  0.00    +0.007 A 
ENDBRANCH  15  20
ENDBRANCH  13  15
ENDBRANCH   1  13
TORSDOF 3
