REMARK  Name = ZINC65259908
REMARK  3 active torsions:
REMARK  status: ('A' for Active; 'I' for Inactive)
REMARK    1  A    between atoms: C_4  and  C_7
REMARK    2  A    between atoms: C_7  and  N_8
REMARK    3  A    between atoms: C_24  and  C_26
REMARK                            x       y       z     vdW  Elec       q    Type
REMARK                         _______ _______ _______ _____ _____    ______ ____
ROOT
ATOM      1  N   UNL     1       4.030  -0.655   1.453  0.00  0.00    -0.371 N 
ATOM      2  C   UNL     1       5.239  -1.053   1.688  0.00  0.00    +0.098 C 
ATOM      3  N   UNL     1       6.157  -1.232   0.669  0.00  0.00    -0.301 N 
ATOM      4  C   UNL     1       7.044  -2.317   0.774  0.00  0.00    +0.053 A 
ATOM      5  C   UNL     1       7.812  -2.689  -0.318  0.00  0.00    +0.025 A 
ATOM      6  C   UNL     1       8.692  -3.751  -0.214  0.00  0.00    +0.002 A 
ATOM      7  C   UNL     1       8.808  -4.443   0.978  0.00  0.00    +0.002 A 
ATOM      8  C   UNL     1       8.043  -4.081   2.071  0.00  0.00    +0.025 A 
ATOM      9  C   UNL     1       7.156  -3.019   1.973  0.00  0.00    +0.049 A 
ATOM     10  N   UNL     1       6.367  -2.665   3.078  0.00  0.00    -0.329 N 
ATOM     11  C   UNL     1       5.724  -1.340   3.093  0.00  0.00    +0.102 C 
ATOM     12  C   UNL     1       6.730  -0.274   3.519  0.00  0.00    +0.036 C 
ATOM     13  C   UNL     1       7.245  -0.588   4.927  0.00  0.00    +0.021 C 
ATOM     14  C   UNL     1       6.070  -0.576   5.909  0.00  0.00    +0.108 C 
ATOM     15  N   UNL     1       5.038  -1.505   5.427  0.00  0.00    -0.293 N 
ATOM     16  C   UNL     1       4.536  -1.351   4.054  0.00  0.00    +0.141 C 
ATOM     17  C   UNL     1       4.563  -2.480   6.227  0.00  0.00    +0.282 C 
ATOM     18  O   UNL     1       3.632  -3.171   5.857  0.00  0.00    -0.267 OA
ATOM     19  H   UNL     1       3.408  -0.534   2.187  0.00  0.00    +0.161 HD
ATOM     20  H   UNL     1       6.251  -3.280   3.819  0.00  0.00    +0.147 HD
ATOM     21  H   UNL     1       6.187  -0.631  -0.091  0.00  0.00    +0.153 HD
ENDROOT
BRANCH  17  22
ATOM     22  C   UNL     1       5.168  -2.708   7.543  0.00  0.00    +0.189 A 
ATOM     23  C   UNL     1       4.702  -3.560   8.504  0.00  0.00    +0.054 A 
ATOM     24  C   UNL     1       5.583  -3.462   9.592  0.00  0.00    +0.042 A 
ATOM     25  C   UNL     1       6.536  -2.566   9.253  0.00  0.00    +0.196 A 
ATOM     26  O   UNL     1       6.285  -2.118   8.016  0.00  0.00    -0.458 OA
ENDBRANCH  17  22
BRANCH   1  27
ATOM     27  C   UNL     1       3.601  -0.389   0.078  0.00  0.00    +0.149 C 
BRANCH  27  31
ATOM     28  C   UNL     1      -0.478   0.877   0.076  0.00  0.00    +0.000 A 
ATOM     29  C   UNL     1       0.535   1.811   0.189  0.00  0.00    +0.000 A 
ATOM     30  C   UNL     1       1.855   1.401   0.189  0.00  0.00    +0.005 A 
ATOM     31  C   UNL     1       2.162   0.058   0.078  0.00  0.00    -0.028 A 
ATOM     32  C   UNL     1       1.149  -0.876  -0.033  0.00  0.00    +0.005 A 
ATOM     33  C   UNL     1      -0.171  -0.466  -0.035  0.00  0.00    +0.000 A 
ENDBRANCH  27  31
ENDBRANCH   1  27
TORSDOF 3
