REMARK  Name = ZINC05481145
REMARK  8 active torsions:
REMARK  status: ('A' for Active; 'I' for Inactive)
REMARK    1  A    between atoms: C_1  and  C_2
REMARK    2  A    between atoms: C_2  and  O_4
REMARK    3  A    between atoms: O_4  and  C_5
REMARK    4  A    between atoms: C_7  and  C_25
REMARK    5  A    between atoms: C_16  and  C_18
REMARK    6  A    between atoms: C_16  and  C_19
REMARK    7  A    between atoms: C_21  and  C_23
REMARK    8  A    between atoms: C_21  and  C_24
REMARK                            x       y       z     vdW  Elec       q    Type
REMARK                         _______ _______ _______ _____ _____    ______ ____
ROOT
ATOM      1  C   UNL     1      -1.056  -2.125   0.001  0.00  0.00    +0.153 C 
ATOM      2  C   UNL     1      -0.298  -2.578   1.246  0.00  0.00    +0.058 C 
ATOM      3  C   UNL     1      -0.330  -4.099   1.296  0.00  0.00    -0.025 C 
ATOM      4  C   UNL     1      -1.713  -4.570   1.717  0.00  0.00    +0.045 C 
ATOM      5  C   UNL     1      -2.797  -3.971   0.806  0.00  0.00    +0.112 C 
ATOM      6  C   UNL     1      -2.465  -2.723   0.011  0.00  0.00    +0.203 C 
ATOM      7  O   UNL     1      -2.575  -4.030  -0.597  0.00  0.00    -0.349 OA
ATOM      8  C   UNL     1      -3.586  -1.781  -0.370  0.00  0.00    +0.237 C 
ATOM      9  O   UNL     1      -3.450  -0.931  -1.213  0.00  0.00    -0.286 OA
ATOM     10  C   UNL     1      -4.879  -1.970   0.351  0.00  0.00    +0.207 C 
ATOM     11  O   UNL     1      -5.567  -1.021   0.642  0.00  0.00    -0.288 OA
ATOM     12  C   UNL     1      -5.302  -3.366   0.706  0.00  0.00    +0.034 C 
ATOM     13  C   UNL     1      -4.206  -4.180   1.345  0.00  0.00    +0.053 C 
ATOM     14  C   UNL     1      -5.781  -4.077  -0.562  0.00  0.00    +0.019 C 
ATOM     15  C   UNL     1      -6.479  -3.280   1.685  0.00  0.00    +0.019 C 
ATOM     16  C   UNL     1       0.119  -4.738   0.003  0.00  0.00    +0.013 C 
ATOM     17  C   UNL     1       0.583  -3.766  -1.066  0.00  0.00    -0.031 C 
ATOM     18  C   UNL     1      -0.351  -2.584  -1.271  0.00  0.00    +0.058 C 
ATOM     19  C   UNL     1       0.651  -4.545  -2.402  0.00  0.00    +0.011 C 
ATOM     20  C   UNL     1       2.005  -3.275  -0.766  0.00  0.00    +0.011 C 
ATOM     21  C   UNL     1       0.636  -4.540   2.394  0.00  0.00    +0.011 C 
ENDROOT
BRANCH   1  22
ATOM     22  O   UNL     1      -1.151  -0.691   0.009  0.00  0.00    -0.455 OA
BRANCH  22  24
ATOM     23  C   UNL     1      -0.018   1.503   0.010  0.00  0.00    +0.136 C 
ATOM     24  C   UNL     1       0.002  -0.004   0.002  0.00  0.00    +0.305 C 
ATOM     25  O   UNL     1       1.056  -0.594  -0.011  0.00  0.00    -0.251 OA
ENDBRANCH  22  24
ENDBRANCH   1  22
TORSDOF 2
