REMARK  Name = ZINC08895214
REMARK  7 active torsions:
REMARK  status: ('A' for Active; 'I' for Inactive)
REMARK    1  A    between atoms: C_1  and  C_2
REMARK    2  A    between atoms: C_2  and  C_4
REMARK    3  A    between atoms: C_2  and  S_16
REMARK    4  A    between atoms: S_16  and  C_17
REMARK    5  A    between atoms: C_20  and  C_29
REMARK    6  A    between atoms: N_21  and  C_22
REMARK    7  A    between atoms: C_29  and  C_30
REMARK                            x       y       z     vdW  Elec       q    Type
REMARK                         _______ _______ _______ _____ _____    ______ ____
ROOT
ATOM      1  C   UNL     1      -3.212  -0.185   3.409  0.00  0.00    +0.197 A 
ATOM      2  N   UNL     1      -3.858   0.955   3.338  0.00  0.00    -0.122 NA
ATOM      3  N   UNL     1      -3.694   1.480   2.177  0.00  0.00    -0.133 NA
ATOM      4  C   UNL     1      -2.939   0.715   1.441  0.00  0.00    +0.143 A 
ATOM      5  N   UNL     1      -2.607  -0.378   2.197  0.00  0.00    -0.274 N 
ENDROOT
BRANCH   5   6
ATOM      6  C   UNL     1      -1.812  -1.468   1.810  0.00  0.00    +0.050 A 
ATOM      7  C   UNL     1      -2.244  -2.320   0.802  0.00  0.00    +0.029 A 
ATOM      8  C   UNL     1      -1.458  -3.389   0.420  0.00  0.00    +0.040 A 
ATOM      9  C   UNL     1      -0.244  -3.617   1.047  0.00  0.00    +0.124 A 
ATOM     10  C   UNL     1       0.185  -2.771   2.056  0.00  0.00    +0.040 A 
ATOM     11  C   UNL     1      -0.596  -1.698   2.438  0.00  0.00    +0.029 A 
ATOM     12  F   UNL     1       0.521  -4.667   0.675  0.00  0.00    -0.205 F 
ENDBRANCH   5   6
BRANCH   1  13
ATOM     13  S   UNL     1      -3.141  -1.266   4.799  0.00  0.00    -0.073 S 
BRANCH  13  15
ATOM     14  C   UNL     1      -3.482   0.982   6.313  0.00  0.00    +0.029 C 
ATOM     15  C   UNL     1      -4.168  -0.341   5.968  0.00  0.00    +0.137 C 
BRANCH  15  16
ATOM     16  C   UNL     1      -4.355  -1.153   7.224  0.00  0.00    +0.229 C 
ATOM     17  O   UNL     1      -3.534  -1.992   7.531  0.00  0.00    -0.274 OA
ATOM     18  N   UNL     1      -5.433  -0.946   8.006  0.00  0.00    -0.296 N 
ATOM     19  C   UNL     1      -5.648  -1.727   9.236  0.00  0.00    +0.113 C 
ATOM     20  C   UNL     1      -5.582  -0.755  10.419  0.00  0.00    +0.054 C 
ATOM     21  C   UNL     1      -6.426   0.465  10.158  0.00  0.00    -0.041 A 
ATOM     22  C   UNL     1      -6.814   1.226  11.253  0.00  0.00    +0.004 A 
ATOM     23  C   UNL     1      -7.577   2.362  11.084  0.00  0.00    +0.000 A 
ATOM     24  C   UNL     1      -7.961   2.749   9.813  0.00  0.00    +0.000 A 
ATOM     25  C   UNL     1      -7.581   1.993   8.723  0.00  0.00    +0.005 A 
ATOM     26  C   UNL     1      -6.816   0.847   8.894  0.00  0.00    -0.027 A 
ATOM     27  C   UNL     1      -6.443   0.060   7.662  0.00  0.00    +0.143 C 
ENDBRANCH  15  16
ENDBRANCH  13  15
ENDBRANCH   1  13
BRANCH   4  28
ATOM     28  C   UNL     1      -2.514   0.980   0.019  0.00  0.00    +0.111 C 
BRANCH  28  29
ATOM     29  C   UNL     1      -1.219   1.751   0.017  0.00  0.00    -0.040 A 
ATOM     30  C   UNL     1      -0.013   1.076   0.008  0.00  0.00    +0.004 A 
ATOM     31  C   UNL     1       1.175   1.783   0.000  0.00  0.00    +0.000 A 
ATOM     32  C   UNL     1       1.156   3.165   0.008  0.00  0.00    +0.000 A 
ATOM     33  C   UNL     1      -0.050   3.840   0.022  0.00  0.00    +0.000 A 
ATOM     34  C   UNL     1      -1.238   3.133   0.030  0.00  0.00    +0.004 A 
ENDBRANCH  28  29
ENDBRANCH   4  28
TORSDOF 6
