REMARK  Name = ZINC04771114
REMARK  4 active torsions:
REMARK  status: ('A' for Active; 'I' for Inactive)
REMARK    1  A    between atoms: C_14  and  N_27
REMARK    2  A    between atoms: C_15  and  C_25
REMARK    3  A    between atoms: C_16  and  C_18
REMARK    4  A    between atoms: C_21  and  O_24
REMARK                            x       y       z     vdW  Elec       q    Type
REMARK                         _______ _______ _______ _____ _____    ______ ____
ROOT
ATOM      1  C   UNL     1      -0.017   1.382   0.010  0.00  0.00    +0.001 A 
ATOM      2  C   UNL     1       1.165   2.099   0.002  0.00  0.00    +0.001 A 
ATOM      3  C   UNL     1       2.384   1.441  -0.012  0.00  0.00    +0.012 A 
ATOM      4  C   UNL     1       2.419   0.051  -0.020  0.00  0.00    +0.036 A 
ATOM      5  C   UNL     1       1.216  -0.678  -0.013  0.00  0.00    +0.033 A 
ATOM      6  C   UNL     1       0.002  -0.004   0.002  0.00  0.00    +0.012 A 
ATOM      7  C   UNL     1       1.265  -2.155  -0.021  0.00  0.00    +0.194 C 
ATOM      8  O   UNL     1       0.231  -2.795  -0.018  0.00  0.00    -0.287 OA
ATOM      9  C   UNL     1       2.557  -2.855  -0.034  0.00  0.00    +0.058 C 
ATOM     10  C   UNL     1       3.715  -2.162  -0.039  0.00  0.00    +0.185 C 
ATOM     11  C   UNL     1       3.703  -0.677  -0.034  0.00  0.00    +0.229 C 
ATOM     12  O   UNL     1       4.750  -0.061  -0.041  0.00  0.00    -0.283 OA
ATOM     13  O   UNL     1       4.909  -2.796  -0.048  0.00  0.00    -0.437 OA
ATOM     14  C   UNL     1       4.994  -4.071  -0.459  0.00  0.00    +0.199 C 
ATOM     15  C   UNL     1       3.904  -4.877  -0.480  0.00  0.00    +0.098 C 
ATOM     16  C   UNL     1       2.562  -4.362  -0.041  0.00  0.00    +0.102 C 
ENDROOT
BRANCH  16  17
ATOM     17  C   UNL     1       2.263  -4.869   1.346  0.00  0.00    -0.034 A 
ATOM     18  C   UNL     1       3.093  -4.530   2.399  0.00  0.00    +0.008 A 
ATOM     19  C   UNL     1       2.821  -4.994   3.671  0.00  0.00    +0.046 A 
ATOM     20  C   UNL     1       1.713  -5.799   3.893  0.00  0.00    +0.117 A 
ATOM     21  C   UNL     1       0.881  -6.138   2.835  0.00  0.00    +0.046 A 
ATOM     22  C   UNL     1       1.155  -5.667   1.565  0.00  0.00    +0.008 A 
BRANCH  20  23
ATOM     23  O   UNL     1       1.444  -6.257   5.144  0.00  0.00    -0.507 OA
ATOM     24  H   UNL     1       0.875  -5.672   5.663  0.00  0.00    +0.292 HD
ENDBRANCH  20  23
ENDBRANCH  16  17
BRANCH  14  25
ATOM     25  N   UNL     1       6.207  -4.569  -0.867  0.00  0.00    -0.328 N 
ATOM     26  H   UNL     1       6.993  -4.000  -0.856  0.00  0.00    +0.145 HD
ATOM     27  H   UNL     1       6.279  -5.489  -1.165  0.00  0.00    +0.145 HD
ENDBRANCH  14  25
BRANCH  15  28
ATOM     28  C   UNL     1       4.033  -6.233  -0.924  0.00  0.00    +0.101 C 
ATOM     29  N   UNL     1       4.135  -7.308  -1.276  0.00  0.00    -0.191 NA
ENDBRANCH  15  28
TORSDOF 4
