REMARK  Name = ZINC09051592
REMARK  8 active torsions:
REMARK  status: ('A' for Active; 'I' for Inactive)
REMARK    1  A    between atoms: C_1  and  C_2
REMARK    2  A    between atoms: C_2  and  C_24
REMARK    3  A    between atoms: N_5  and  C_9
REMARK    4  A    between atoms: C_9  and  C_10
REMARK    5  A    between atoms: N_12  and  C_13
REMARK    6  A    between atoms: C_14  and  C_21
REMARK    7  A    between atoms: C_27  and  O_30
REMARK    8  A    between atoms: O_30  and  C_31
REMARK                            x       y       z     vdW  Elec       q    Type
REMARK                         _______ _______ _______ _____ _____    ______ ____
ROOT
ATOM      1  C   UNL     1      -1.239   2.150   0.020  0.00  0.00    +0.214 C 
ENDROOT
BRANCH   1   6
ATOM      2  C   UNL     1       1.799  -1.187  -1.280  0.00  0.00    +0.047 C 
ATOM      3  C   UNL     1       1.467  -0.394  -0.014  0.00  0.00    +0.135 C 
ATOM      4  C   UNL     1       0.002  -0.004   0.002  0.00  0.00    +0.251 C 
ATOM      5  O   UNL     1      -0.954  -0.749   0.008  0.00  0.00    -0.272 OA
ATOM      6  N   UNL     1      -0.016   1.343   0.009  0.00  0.00    -0.215 N 
ATOM      7  C   UNL     1       1.220   1.854   0.000  0.00  0.00    +0.310 C 
ATOM      8  O   UNL     1       1.460   3.045   0.004  0.00  0.00    -0.252 OA
ATOM      9  N   UNL     1       2.170   0.901  -0.014  0.00  0.00    -0.281 N 
ATOM     10  H   UNL     1       3.130   1.039  -0.022  0.00  0.00    +0.152 HD
BRANCH   3  11
ATOM     11  C   UNL     1       1.818  -1.188   1.218  0.00  0.00    -0.015 A 
ATOM     12  C   UNL     1       0.858  -1.975   1.828  0.00  0.00    +0.010 A 
ATOM     13  C   UNL     1       1.179  -2.708   2.954  0.00  0.00    +0.046 A 
ATOM     14  C   UNL     1       2.462  -2.645   3.479  0.00  0.00    +0.120 A 
ATOM     15  C   UNL     1       3.421  -1.851   2.868  0.00  0.00    +0.046 A 
ATOM     16  C   UNL     1       3.097  -1.124   1.739  0.00  0.00    +0.010 A 
BRANCH  14  17
ATOM     17  O   UNL     1       2.778  -3.361   4.591  0.00  0.00    -0.495 OA
ATOM     18  C   UNL     1       1.740  -4.157   5.167  0.00  0.00    +0.277 C 
ENDBRANCH  14  17
ENDBRANCH   3  11
ENDBRANCH   1   6
BRANCH   1  19
ATOM     19  C   UNL     1      -1.652   2.419   1.444  0.00  0.00    +0.236 C 
ATOM     20  O   UNL     1      -0.989   1.980   2.360  0.00  0.00    -0.274 OA
ATOM     21  N   UNL     1      -2.757   3.147   1.700  0.00  0.00    -0.278 N 
ATOM     22  H   UNL     1      -3.287   3.498   0.967  0.00  0.00    +0.155 HD
BRANCH  21  23
ATOM     23  C   UNL     1      -3.136   3.394   3.010  0.00  0.00    +0.084 A 
ATOM     24  C   UNL     1      -4.227   4.112   3.469  0.00  0.00    +0.068 A 
ATOM     25  C   UNL     1      -4.403   4.226   4.917  0.00  0.00    -0.023 A 
ATOM     26  C   UNL     1      -3.466   3.605   5.656  0.00  0.00    -0.004 A 
ATOM     27  S   UNL     1      -2.365   2.873   4.470  0.00  0.00    -0.077 S 
ATOM     28  C   UNL     1      -3.717   3.762   7.131  0.00  0.00    +0.043 C 
ATOM     29  C   UNL     1      -5.191   4.213   7.230  0.00  0.00    +0.010 C 
ATOM     30  C   UNL     1      -5.405   4.891   5.862  0.00  0.00    +0.037 C 
BRANCH  24  31
ATOM     31  C   UNL     1      -5.172   4.736   2.538  0.00  0.00    +0.244 C 
ATOM     32  O   UNL     1      -6.144   4.115   2.150  0.00  0.00    -0.270 OA
ATOM     33  N   UNL     1      -4.965   5.998   2.111  0.00  0.00    -0.325 N 
ATOM     34  H   UNL     1      -4.190   6.493   2.420  0.00  0.00    +0.145 HD
ATOM     35  H   UNL     1      -5.590   6.410   1.495  0.00  0.00    +0.145 HD
ENDBRANCH  24  31
ENDBRANCH  21  23
ENDBRANCH   1  19
TORSDOF 6
