REMARK  Name = ZINC59404870
REMARK  5 active torsions:
REMARK  status: ('A' for Active; 'I' for Inactive)
REMARK    1  A    between atoms: C_6  and  N_7
REMARK    2  A    between atoms: C_8  and  C_10
REMARK    3  A    between atoms: C_10  and  C_20
REMARK    4  A    between atoms: C_11  and  C_12
REMARK    5  A    between atoms: C_14  and  N_17
REMARK                            x       y       z     vdW  Elec       q    Type
REMARK                         _______ _______ _______ _____ _____    ______ ____
ROOT
ATOM      1  N   UNL     1      -1.180  -0.716  -0.163  0.00  0.00    -0.281 N 
ATOM      2  C   UNL     1      -1.171  -2.063  -0.217  0.00  0.00    +0.259 C 
ATOM      3  O   UNL     1      -0.114  -2.665  -0.231  0.00  0.00    -0.269 OA
ATOM      4  H   UNL     1      -2.020  -0.240  -0.074  0.00  0.00    +0.155 HD
ENDROOT
BRANCH   1  10
ATOM      5  C   UNL     1       1.072  -0.491  -1.006  0.00  0.00    +0.026 A 
ATOM      6  C   UNL     1       2.259   0.212  -1.077  0.00  0.00    +0.041 A 
ATOM      7  C   UNL     1       2.404   1.400  -0.382  0.00  0.00    +0.142 A 
ATOM      8  C   UNL     1       1.359   1.887   0.387  0.00  0.00    +0.078 A 
ATOM      9  C   UNL     1       0.170   1.187   0.461  0.00  0.00    +0.046 A 
ATOM     10  C   UNL     1       0.023  -0.005  -0.236  0.00  0.00    +0.035 A 
ATOM     11 CL   UNL     1       1.544   3.377   1.259  0.00  0.00    -0.081 Cl
ATOM     12  F   UNL     1       3.566   2.086  -0.453  0.00  0.00    -0.204 F 
ENDBRANCH   1  10
BRANCH   2  13
ATOM     13  C   UNL     1      -2.439  -2.804  -0.258  0.00  0.00    +0.114 C 
ATOM     14  C   UNL     1      -2.430  -4.185  -0.313  0.00  0.00    +0.032 C 
BRANCH  14  15
ATOM     15  C   UNL     1      -3.640  -4.894  -0.518  0.00  0.00    -0.014 A 
ATOM     16  C   UNL     1      -3.788  -6.276  -0.119  0.00  0.00    +0.048 A 
ATOM     17  C   UNL     1      -4.988  -6.833  -0.370  0.00  0.00    +0.164 A 
ATOM     18  S   UNL     1      -5.901  -5.510  -1.133  0.00  0.00    -0.072 S 
ATOM     19  C   UNL     1      -4.742  -4.296  -1.105  0.00  0.00    +0.055 A 
BRANCH  17  20
ATOM     20  N   UNL     1      -5.438  -8.213  -0.081  0.00  0.00    +0.063 N 
ATOM     21  O   UNL     1      -4.684  -8.997   0.447  0.00  0.00    -0.126 OA
ATOM     22  O   UNL     1      -6.560  -8.556  -0.374  0.00  0.00    -0.126 OA
ENDBRANCH  17  20
ENDBRANCH  14  15
BRANCH  13  23
ATOM     23  C   UNL     1      -3.683  -2.096  -0.241  0.00  0.00    +0.104 C 
ATOM     24  N   UNL     1      -4.671  -1.535  -0.228  0.00  0.00    -0.191 NA
ENDBRANCH  13  23
ENDBRANCH   2  13
TORSDOF 5
