REMARK  Name = ZINC16810085
REMARK  3 active torsions:
REMARK  status: ('A' for Active; 'I' for Inactive)
REMARK    1  A    between atoms: C_1  and  C_2
REMARK    2  A    between atoms: C_7  and  C_10
REMARK    3  A    between atoms: C_11  and  C_13
REMARK                            x       y       z     vdW  Elec       q    Type
REMARK                         _______ _______ _______ _____ _____    ______ ____
ROOT
ATOM      1  C   UNL     1      -1.917  -4.312  -0.493  0.00  0.00    +0.266 C 
ATOM      2  C   UNL     1      -0.453  -4.697  -0.712  0.00  0.00    +0.090 C 
ATOM      3  C   UNL     1      -0.319  -6.193  -0.821  0.00  0.00    -0.029 A 
ATOM      4  C   UNL     1       0.900  -6.797  -0.588  0.00  0.00    +0.006 A 
ATOM      5  C   UNL     1       1.025  -8.171  -0.690  0.00  0.00    +0.020 A 
ATOM      6  C   UNL     1      -0.068  -8.952  -1.028  0.00  0.00    +0.042 A 
ATOM      7  C   UNL     1      -1.294  -8.360  -1.265  0.00  0.00    +0.035 A 
ATOM      8  C   UNL     1      -1.423  -6.977  -1.159  0.00  0.00    +0.064 A 
ATOM      9  C   UNL     1      -2.729  -6.321  -1.400  0.00  0.00    +0.340 C 
ATOM     10  O   UNL     1      -3.750  -6.967  -1.525  0.00  0.00    -0.245 OA
ATOM     11  O   UNL     1      -2.734  -4.965  -1.474  0.00  0.00    -0.448 OA
ATOM     12 CL   UNL     1       0.103 -10.675  -1.156  0.00  0.00    -0.084 Cl
ENDROOT
BRANCH   1  21
ATOM     13  C   UNL     1      -0.680  -2.229   3.978  0.00  0.00    +0.039 C 
ATOM     14  C   UNL     1      -1.466  -1.827   2.728  0.00  0.00    +0.133 C 
ATOM     15  C   UNL     1      -0.883  -2.543   1.504  0.00  0.00    +0.139 C 
ATOM     16  N   UNL     1      -1.529  -2.001   0.298  0.00  0.00    -0.294 N 
ATOM     17  C   UNL     1      -1.568  -0.539   0.133  0.00  0.00    +0.139 C 
ATOM     18  C   UNL     1      -2.118   0.079   1.423  0.00  0.00    +0.133 C 
ATOM     19  O   UNL     1      -1.370  -0.413   2.538  0.00  0.00    -0.371 OA
ATOM     20  C   UNL     1      -1.991   1.603   1.355  0.00  0.00    +0.039 C 
ATOM     21  C   UNL     1      -2.068  -2.818  -0.627  0.00  0.00    +0.257 C 
ATOM     22  O   UNL     1      -2.676  -2.353  -1.567  0.00  0.00    -0.272 OA
ENDBRANCH   1  21
TORSDOF 1
