REMARK  Name = ZINC40780327
REMARK  3 active torsions:
REMARK  status: ('A' for Active; 'I' for Inactive)
REMARK    1  A    between atoms: C_12  and  N_30
REMARK    2  A    between atoms: C_13  and  N_17
REMARK    3  A    between atoms: N_20  and  C_23
REMARK                            x       y       z     vdW  Elec       q    Type
REMARK                         _______ _______ _______ _____ _____    ______ ____
ROOT
ATOM      1  C   UNL     1       2.201  -0.647   3.894  0.00  0.00    +0.000 A 
ATOM      2  C   UNL     1       3.486  -0.209   3.627  0.00  0.00    +0.002 A 
ATOM      3  C   UNL     1       3.958  -0.210   2.330  0.00  0.00    +0.024 A 
ATOM      4  C   UNL     1       3.144  -0.653   1.293  0.00  0.00    +0.038 A 
ATOM      5  C   UNL     1       1.858  -1.095   1.562  0.00  0.00    -0.026 A 
ATOM      6  C   UNL     1       1.391  -1.088   2.866  0.00  0.00    +0.005 A 
ATOM      7  C   UNL     1       0.951  -1.591   0.466  0.00  0.00    +0.038 C 
ATOM      8  C   UNL     1       1.417  -1.067  -0.892  0.00  0.00    +0.024 C 
ATOM      9  C   UNL     1       2.910  -1.377  -1.058  0.00  0.00    +0.113 C 
ATOM     10  N   UNL     1       3.640  -0.642  -0.016  0.00  0.00    -0.285 N 
ATOM     11  C   UNL     1       4.804   0.053  -0.324  0.00  0.00    +0.129 A 
ATOM     12  C   UNL     1       4.753   1.406  -0.664  0.00  0.00    +0.104 A 
ATOM     13  C   UNL     1       5.951   2.056  -0.965  0.00  0.00    +0.147 A 
ATOM     14  N   UNL     1       7.088   1.367  -0.916  0.00  0.00    -0.221 NA
ATOM     15  C   UNL     1       7.093   0.090  -0.591  0.00  0.00    +0.200 A 
ATOM     16  N   UNL     1       5.985  -0.560  -0.295  0.00  0.00    -0.332 N 
ATOM     17  H   UNL     1       6.031  -1.499  -0.056  0.00  0.00    +0.168 HD
ENDROOT
BRANCH  13  18
ATOM     18  N   UNL     1       5.956   3.402  -1.310  0.00  0.00    -0.311 N 
ATOM     19  C   UNL     1       6.161   4.436  -0.286  0.00  0.00    +0.125 C 
ATOM     20  C   UNL     1       7.343   5.317  -0.708  0.00  0.00    +0.124 C 
ATOM     21  N   UNL     1       7.144   5.732  -2.104  0.00  0.00    -0.325 N 
ATOM     22  C   UNL     1       6.940   4.698  -3.128  0.00  0.00    +0.124 C 
ATOM     23  C   UNL     1       5.763   3.817  -2.707  0.00  0.00    +0.125 C 
BRANCH  21  24
ATOM     24  C   UNL     1       7.150   7.087  -2.451  0.00  0.00    +0.065 A 
ATOM     25  C   UNL     1       8.337   7.708  -2.814  0.00  0.00    +0.026 A 
ATOM     26  C   UNL     1       8.339   9.046  -3.157  0.00  0.00    +0.002 A 
ATOM     27  C   UNL     1       7.160   9.768  -3.139  0.00  0.00    +0.003 A 
ATOM     28  C   UNL     1       5.975   9.155  -2.778  0.00  0.00    +0.040 A 
ATOM     29  C   UNL     1       5.964   7.814  -2.439  0.00  0.00    +0.144 A 
ATOM     30  F   UNL     1       4.805   7.213  -2.093  0.00  0.00    -0.204 F 
ENDBRANCH  21  24
ENDBRANCH  13  18
BRANCH  12  31
ATOM     31  N   UNL     1       3.529   2.094  -0.703  0.00  0.00    -0.353 N 
ATOM     32  H   UNL     1       2.717   1.657  -0.402  0.00  0.00    +0.143 HD
ATOM     33  H   UNL     1       3.496   3.006  -1.031  0.00  0.00    +0.143 HD
ENDBRANCH  12  31
TORSDOF 3
