REMARK  Name = ZINC14183126
REMARK  5 active torsions:
REMARK  status: ('A' for Active; 'I' for Inactive)
REMARK    1  A    between atoms: C_1  and  C_2
REMARK    2  A    between atoms: C_5  and  C_23
REMARK    3  A    between atoms: C_6  and  N_8
REMARK    4  A    between atoms: C_9  and  S_13
REMARK    5  A    between atoms: S_13  and  C_14
REMARK                            x       y       z     vdW  Elec       q    Type
REMARK                         _______ _______ _______ _____ _____    ______ ____
ROOT
ATOM      1  N   UNL     1       3.579   2.137  -0.021  0.00  0.00    -0.187 N 
ATOM      2  C   UNL     1       4.839   1.642   0.067  0.00  0.00    +0.215 A 
ATOM      3  N   UNL     1       5.661   2.668   0.018  0.00  0.00    -0.101 NA
ATOM      4  N   UNL     1       5.004   3.766  -0.085  0.00  0.00    -0.022 NA
ATOM      5  N   UNL     1       3.737   3.531  -0.115  0.00  0.00    -0.038 NA
ENDROOT
BRANCH   1  11
ATOM      6  C   UNL     1       0.742  -1.342   1.989  0.00  0.00    +0.044 C 
ATOM      7  C   UNL     1       0.977  -0.276   0.950  0.00  0.00    -0.048 A 
ATOM      8  C   UNL     1       0.005  -0.009   0.002  0.00  0.00    +0.004 A 
ATOM      9  C   UNL     1       0.217   0.967  -0.953  0.00  0.00    +0.006 A 
ATOM     10  C   UNL     1       1.401   1.680  -0.964  0.00  0.00    -0.025 A 
ATOM     11  C   UNL     1       2.377   1.415  -0.013  0.00  0.00    +0.073 A 
ATOM     12  C   UNL     1       2.162   0.433   0.944  0.00  0.00    +0.031 A 
ATOM     13  C   UNL     1       1.631   2.744  -2.005  0.00  0.00    +0.046 C 
ENDBRANCH   1  11
BRANCH   2  14
ATOM     14  S   UNL     1       5.289  -0.055   0.214  0.00  0.00    -0.071 S 
BRANCH  14  15
ATOM     15  C   UNL     1       7.092   0.102   0.273  0.00  0.00    +0.140 C 
ATOM     16  C   UNL     1       7.728  -1.290   0.303  0.00  0.00    +0.024 C 
ATOM     17  C   UNL     1       6.865  -2.259   1.092  0.00  0.00    +0.003 C 
ATOM     18  C   UNL     1       6.782  -1.940   2.574  0.00  0.00    +0.019 C 
ATOM     19  C   UNL     1       6.034  -0.627   2.808  0.00  0.00    +0.104 C 
ATOM     20  N   UNL     1       6.993   0.486   2.712  0.00  0.00    -0.314 N 
ATOM     21  C   UNL     1       7.497   0.843   1.530  0.00  0.00    +0.226 C 
ATOM     22  O   UNL     1       8.282   1.765   1.461  0.00  0.00    -0.275 OA
ATOM     23  H   UNL     1       7.260   0.962   3.513  0.00  0.00    +0.149 HD
ENDBRANCH  14  15
ENDBRANCH   2  14
TORSDOF 3
