REMARK  Name = ZINC12113458
REMARK  4 active torsions:
REMARK  status: ('A' for Active; 'I' for Inactive)
REMARK    1  A    between atoms: C_6  and  C_7
REMARK    2  A    between atoms: N_12  and  C_15
REMARK    3  A    between atoms: C_15  and  C_16
REMARK    4  A    between atoms: C_16  and  N_46
REMARK                            x       y       z     vdW  Elec       q    Type
REMARK                         _______ _______ _______ _____ _____    ______ ____
ROOT
ATOM      1  C   UNL     1       1.880  -1.905  -0.027  0.00  0.00    +0.142 C 
ATOM      2  C   UNL     1       1.323  -0.495  -0.013  0.00  0.00    +0.058 C 
ATOM      3  C   UNL     1       2.204   0.526  -0.016  0.00  0.00    +0.039 C 
ATOM      4  C   UNL     1       1.382   1.796  -0.002  0.00  0.00    +0.159 C 
ATOM      5  N   UNL     1      -0.016   1.341   0.009  0.00  0.00    -0.294 N 
ATOM      6  C   UNL     1       0.002  -0.004   0.002  0.00  0.00    +0.247 C 
ATOM      7  O   UNL     1      -0.993  -0.706   0.007  0.00  0.00    -0.270 OA
ATOM      8  N   UNL     1       3.550   0.300  -0.030  0.00  0.00    -0.271 N 
ATOM      9  C   UNL     1       4.096  -0.923  -0.041  0.00  0.00    +0.304 C 
ATOM     10  O   UNL     1       5.308  -1.027  -0.053  0.00  0.00    -0.252 OA
ATOM     11  N   UNL     1       3.346  -2.043  -0.040  0.00  0.00    -0.288 N 
ATOM     12  H   UNL     1       4.144   1.067  -0.031  0.00  0.00    +0.156 HD
ATOM     13  H   UNL     1       3.762  -2.919  -0.050  0.00  0.00    +0.151 HD
ENDROOT
BRANCH   1  19
ATOM     14  C   UNL     1       0.264  -3.474  -1.118  0.00  0.00    +0.007 A 
ATOM     15  C   UNL     1      -0.238  -4.119  -2.233  0.00  0.00    +0.022 A 
ATOM     16  C   UNL     1       0.331  -3.899  -3.474  0.00  0.00    +0.059 A 
ATOM     17  C   UNL     1       1.404  -3.032  -3.599  0.00  0.00    +0.060 A 
ATOM     18  C   UNL     1       1.901  -2.383  -2.484  0.00  0.00    +0.027 A 
ATOM     19  C   UNL     1       1.334  -2.608  -1.243  0.00  0.00    -0.021 A 
ATOM     20 CL   UNL     1       2.119  -2.754  -5.156  0.00  0.00    -0.082 Cl
ATOM     21 CL   UNL     1      -0.298  -4.710  -4.874  0.00  0.00    -0.082 Cl
ENDBRANCH   1  19
BRANCH   5  22
ATOM     22  C   UNL     1      -1.207   2.194   0.020  0.00  0.00    +0.090 C 
BRANCH  22  23
ATOM     23  C   UNL     1      -1.614   2.484   1.466  0.00  0.00    -0.060 C 
BRANCH  23  28
ATOM     24  C   UNL     1      -3.887   2.757   0.637  0.00  0.00    -0.079 C 
ATOM     25  C   UNL     1      -5.165   3.453   1.170  0.00  0.00    -0.020 C 
ATOM     26  C   UNL     1      -4.902   3.543   2.690  0.00  0.00    -0.020 C 
ATOM     27  C   UNL     1      -3.372   3.446   2.840  0.00  0.00    -0.079 C 
ATOM     28  N   UNL     1      -2.835   3.344   1.482  0.00  0.00    +0.381 N 
ATOM     29  H   UNL     1      -2.593   4.279   1.135  0.00  0.00    -0.082 HD
ENDBRANCH  23  28
ENDBRANCH  22  23
ENDBRANCH   5  22
TORSDOF 4
