REMARK  Name = ZINC36736227
REMARK  9 active torsions:
REMARK  status: ('A' for Active; 'I' for Inactive)
REMARK    1  A    between atoms: C_1  and  C_2
REMARK    2  A    between atoms: C_4  and  C_22
REMARK    3  A    between atoms: C_5  and  C_21
REMARK    4  A    between atoms: C_6  and  S_9
REMARK    5  A    between atoms: C_7  and  C_8
REMARK    6  A    between atoms: S_9  and  N_12
REMARK    7  A    between atoms: N_12  and  C_13
REMARK    8  A    between atoms: C_14  and  C_20
REMARK    9  A    between atoms: C_18  and  C_19
REMARK                            x       y       z     vdW  Elec       q    Type
REMARK                         _______ _______ _______ _____ _____    ______ ____
ROOT
ATOM      1  S   UNL     1      -0.059  -2.298   2.714  0.00  0.00    +0.073 S 
ATOM      2  O   UNL     1       0.227  -3.689   2.756  0.00  0.00    -0.150 OA
ATOM      3  O   UNL     1       0.664  -1.348   3.486  0.00  0.00    -0.150 OA
ENDROOT
BRANCH   1   9
ATOM      4  C   UNL     1       1.181   1.235  -0.933  0.00  0.00    +0.044 C 
ATOM      5  C   UNL     1       0.679  -0.146  -0.598  0.00  0.00    -0.045 A 
ATOM      6  C   UNL     1       0.340  -1.024  -1.611  0.00  0.00    +0.007 A 
ATOM      7  C   UNL     1      -0.120  -2.290  -1.303  0.00  0.00    -0.045 A 
ATOM      8  C   UNL     1      -0.242  -2.679   0.017  0.00  0.00    -0.021 A 
ATOM      9  C   UNL     1       0.097  -1.802   1.030  0.00  0.00    +0.115 A 
ATOM     10  C   UNL     1       0.562  -0.537   0.723  0.00  0.00    -0.021 A 
ATOM     11  C   UNL     1       0.936   0.417   1.827  0.00  0.00    +0.046 C 
ATOM     12  C   UNL     1      -0.745  -4.059   0.353  0.00  0.00    +0.046 C 
ATOM     13  C   UNL     1      -0.490  -3.246  -2.408  0.00  0.00    +0.044 C 
ENDBRANCH   1   9
BRANCH   1  14
ATOM     14  N   UNL     1      -1.653  -2.130   3.128  0.00  0.00    -0.213 N 
ATOM     15  H   UNL     1      -2.183  -2.913   3.345  0.00  0.00    +0.174 HD
BRANCH  14  16
ATOM     16  C   UNL     1      -2.240  -0.850   3.166  0.00  0.00    +0.091 A 
ATOM     17  C   UNL     1      -3.308  -0.439   2.437  0.00  0.00    +0.056 A 
ATOM     18  N   UNL     1      -3.556   0.857   2.768  0.00  0.00    -0.280 N 
ATOM     19  H   UNL     1      -4.262   1.413   2.404  0.00  0.00    +0.189 HD
ATOM     20  N   UNL     1      -2.610   1.244   3.726  0.00  0.00    -0.177 NA
ATOM     21  C   UNL     1      -1.827   0.224   3.968  0.00  0.00    +0.082 A 
ATOM     22  C   UNL     1      -0.676   0.207   4.941  0.00  0.00    +0.069 C 
ATOM     23  C   UNL     1      -4.079  -1.267   1.442  0.00  0.00    +0.067 C 
ENDBRANCH  14  16
ENDBRANCH   1  14
TORSDOF 3
