REMARK  Name = ZINC53894569
REMARK  2 active torsions:
REMARK  status: ('A' for Active; 'I' for Inactive)
REMARK    1  A    between atoms: C_9  and  C_11
REMARK    2  A    between atoms: C_16  and  C_19
REMARK                            x       y       z     vdW  Elec       q    Type
REMARK                         _______ _______ _______ _____ _____    ______ ____
ROOT
ATOM      1  C   UNL     1       5.974   0.910  -0.050  0.00  0.00    +0.282 C 
ATOM      2  O   UNL     1       6.652  -0.100  -0.063  0.00  0.00    -0.267 OA
ATOM      3  N   UNL     1       6.567   2.120  -0.050  0.00  0.00    -0.294 N 
ATOM      4  C   UNL     1       5.870   3.419  -0.029  0.00  0.00    +0.109 C 
ATOM      5  C   UNL     1       6.895   4.410   0.577  0.00  0.00    +0.033 C 
ATOM      6  C   UNL     1       8.226   3.892  -0.031  0.00  0.00    +0.093 C 
ATOM      7  C   UNL     1       8.017   2.363  -0.062  0.00  0.00    +0.121 C 
ENDROOT
BRANCH   1  16
ATOM      8  C   UNL     1      -0.017   1.385   0.010  0.00  0.00    +0.019 A 
ATOM      9  C   UNL     1       1.158   2.105   0.002  0.00  0.00    +0.048 A 
ATOM     10  C   UNL     1       2.378   1.439  -0.013  0.00  0.00    +0.136 A 
ATOM     11  C   UNL     1       2.392   0.032  -0.021  0.00  0.00    +0.022 A 
ATOM     12  C   UNL     1       1.190  -0.680  -0.013  0.00  0.00    +0.027 A 
ATOM     13  C   UNL     1       0.002  -0.004   0.002  0.00  0.00    +0.019 A 
ATOM     14 BR   UNL     1      -1.626  -0.966   0.013  0.00  0.00    -0.050 Br
ATOM     15  C   UNL     1       3.803  -0.351  -0.036  0.00  0.00    +0.063 A 
ATOM     16  C   UNL     1       4.508   0.810  -0.036  0.00  0.00    +0.191 A 
ATOM     17  O   UNL     1       3.659   1.859  -0.023  0.00  0.00    -0.450 OA
ENDBRANCH   1  16
BRANCH   6  18
ATOM     18  C   UNL     1       9.392   4.254   0.852  0.00  0.00    +0.215 C 
ATOM     19  O   UNL     1       9.206   4.869   1.880  0.00  0.00    -0.276 OA
ATOM     20  N   UNL     1      10.642   3.893   0.499  0.00  0.00    -0.329 N 
ATOM     21  H   UNL     1      10.791   3.401  -0.323  0.00  0.00    +0.145 HD
ATOM     22  H   UNL     1      11.392   4.126   1.068  0.00  0.00    +0.145 HD
ENDBRANCH   6  18
TORSDOF 2
