REMARK  Name = ZINC52094135
REMARK  5 active torsions:
REMARK  status: ('A' for Active; 'I' for Inactive)
REMARK    1  A    between atoms: C_1  and  C_2
REMARK    2  A    between atoms: C_2  and  C_3
REMARK    3  A    between atoms: C_3  and  C_5
REMARK    4  A    between atoms: C_3  and  C_6
REMARK    5  A    between atoms: C_6  and  C_8
REMARK                            x       y       z     vdW  Elec       q    Type
REMARK                         _______ _______ _______ _____ _____    ______ ____
ROOT
ATOM      1  C   UNL     1       1.983  -2.660  -1.859  0.00  0.00    +0.034 A 
ATOM      2  C   UNL     1       2.950  -1.898  -2.525  0.00  0.00    +0.040 A 
ATOM      3  C   UNL     1       4.016  -2.527  -3.138  0.00  0.00    +0.068 A 
ATOM      4  C   UNL     1       4.127  -3.922  -3.092  0.00  0.00    +0.068 A 
ATOM      5  C   UNL     1       3.166  -4.678  -2.431  0.00  0.00    +0.043 A 
ATOM      6  C   UNL     1       2.104  -4.056  -1.812  0.00  0.00    +0.030 A 
ATOM      7 BR   UNL     1       0.804  -5.087  -0.906  0.00  0.00    -0.050 Br
ATOM      8  N   UNL     1       5.283  -4.255  -3.784  0.00  0.00    -0.306 N 
ATOM      9  H   UNL     1       5.622  -5.153  -3.922  0.00  0.00    +0.170 HD
ATOM     10  C   UNL     1       5.853  -3.122  -4.234  0.00  0.00    +0.325 A 
ATOM     11  O   UNL     1       6.883  -3.064  -4.880  0.00  0.00    -0.247 OA
ATOM     12  N   UNL     1       5.113  -2.061  -3.860  0.00  0.00    -0.306 N 
ATOM     13  H   UNL     1       5.309  -1.132  -4.060  0.00  0.00    +0.170 HD
ENDROOT
BRANCH   1  14
ATOM     14  C   UNL     1       0.847  -1.998  -1.206  0.00  0.00    +0.167 C 
ATOM     15  O   UNL     1       0.013  -2.659  -0.625  0.00  0.00    -0.292 OA
BRANCH  14  16
ATOM     16  C   UNL     1       0.718  -0.497  -1.257  0.00  0.00    +0.057 C 
ATOM     17  C   UNL     1      -0.089  -0.097  -2.493  0.00  0.00    +0.016 C 
BRANCH  16  19
ATOM     18  C   UNL     1      -0.019   1.526   0.010  0.00  0.00    +0.004 C 
ATOM     19  C   UNL     1       0.002  -0.004   0.002  0.00  0.00    +0.008 C 
ENDBRANCH  16  19
ENDBRANCH  14  16
ENDBRANCH   1  14
TORSDOF 3
