REMARK  Name = ZINC11851676
REMARK  8 active torsions:
REMARK  status: ('A' for Active; 'I' for Inactive)
REMARK    1  A    between atoms: C_1  and  C_2
REMARK    2  A    between atoms: C_2  and  C_32
REMARK    3  A    between atoms: C_9  and  C_21
REMARK    4  A    between atoms: C_17  and  C_19
REMARK    5  A    between atoms: C_17  and  C_20
REMARK    6  A    between atoms: N_23  and  C_24
REMARK    7  A    between atoms: C_29  and  S_30
REMARK    8  A    between atoms: S_30  and  C_31
REMARK                            x       y       z     vdW  Elec       q    Type
REMARK                         _______ _______ _______ _____ _____    ______ ____
ROOT
ATOM      1  C   UNL     1       3.901   3.375   1.421  0.00  0.00    +0.074 C 
ATOM      2  C   UNL     1       3.510   2.012   0.846  0.00  0.00    +0.166 C 
ATOM      3  O   UNL     1       3.617   2.043  -0.584  0.00  0.00    -0.341 OA
ATOM      4  C   UNL     1       2.304   1.717  -1.114  0.00  0.00    +0.187 C 
ATOM      5  C   UNL     1       1.386   2.122   0.054  0.00  0.00    +0.191 C 
ATOM      6  O   UNL     1       2.147   1.708   1.203  0.00  0.00    -0.340 OA
ATOM      7  C   UNL     1       0.040   1.432  -0.025  0.00  0.00    +0.238 C 
ATOM      8  O   UNL     1       0.209   0.022  -0.129  0.00  0.00    -0.333 OA
ATOM      9  C   UNL     1       0.879  -0.402  -1.321  0.00  0.00    +0.286 C 
ATOM     10  C   UNL     1       2.280   0.229  -1.381  0.00  0.00    +0.209 C 
ATOM     11  O   UNL     1       3.003  -0.522  -0.390  0.00  0.00    -0.338 OA
ATOM     12  C   UNL     1       2.497  -1.865  -0.533  0.00  0.00    +0.168 C 
ATOM     13  O   UNL     1       1.193  -1.807  -1.129  0.00  0.00    -0.318 OA
ATOM     14  C   UNL     1       3.436  -2.675  -1.429  0.00  0.00    +0.074 C 
ATOM     15  C   UNL     1       2.401  -2.527   0.843  0.00  0.00    +0.074 C 
ATOM     16  C   UNL     1       4.439   0.932   1.405  0.00  0.00    +0.074 C 
ENDROOT
BRANCH   7  17
ATOM     17  C   UNL     1      -0.707   1.934  -1.234  0.00  0.00    +0.249 C 
ATOM     18  O   UNL     1      -1.069   1.155  -2.090  0.00  0.00    -0.273 OA
ATOM     19  N   UNL     1      -0.973   3.249  -1.364  0.00  0.00    -0.282 N 
ATOM     20  H   UNL     1      -0.628   3.880  -0.713  0.00  0.00    +0.155 HD
BRANCH  19  21
ATOM     21  C   UNL     1      -1.746   3.704  -2.440  0.00  0.00    +0.047 A 
ATOM     22  C   UNL     1      -1.679   3.062  -3.667  0.00  0.00    +0.024 A 
ATOM     23  C   UNL     1      -2.443   3.512  -4.727  0.00  0.00    +0.002 A 
ATOM     24  C   UNL     1      -3.276   4.605  -4.569  0.00  0.00    +0.001 A 
ATOM     25  C   UNL     1      -3.350   5.253  -3.350  0.00  0.00    +0.016 A 
ATOM     26  C   UNL     1      -2.591   4.803  -2.279  0.00  0.00    +0.029 A 
BRANCH  26  27
ATOM     27  S   UNL     1      -2.689   5.621  -0.721  0.00  0.00    -0.127 S 
ATOM     28  C   UNL     1      -3.889   6.953  -1.000  0.00  0.00    +0.090 C 
ENDBRANCH  26  27
ENDBRANCH  19  21
ENDBRANCH   7  17
TORSDOF 3
