REMARK  Name = ZINC25459263
REMARK  7 active torsions:
REMARK  status: ('A' for Active; 'I' for Inactive)
REMARK    1  A    between atoms: C_1  and  C_2
REMARK    2  A    between atoms: C_3  and  C_8
REMARK    3  A    between atoms: C_5  and  C_7
REMARK    4  A    between atoms: C_11  and  S_13
REMARK    5  A    between atoms: S_13  and  C_14
REMARK    6  A    between atoms: C_14  and  C_16
REMARK    7  A    between atoms: C_14  and  C_17
REMARK                            x       y       z     vdW  Elec       q    Type
REMARK                         _______ _______ _______ _____ _____    ______ ____
ROOT
ATOM      1  C   UNL     1       5.634   7.342   1.115  0.00  0.00    +0.258 A 
ATOM      2  N   UNL     1       5.963   6.243   0.477  0.00  0.00    -0.106 NA
ATOM      3  N   UNL     1       4.918   5.511   0.318  0.00  0.00    -0.101 NA
ATOM      4  C   UNL     1       3.877   6.116   0.839  0.00  0.00    +0.278 A 
ATOM      5  O   UNL     1       4.305   7.284   1.357  0.00  0.00    -0.410 OA
ENDROOT
BRANCH   1   8
ATOM      6  C   UNL     1       8.680   7.490   0.581  0.00  0.00    +0.067 C 
ATOM      7  C   UNL     1       7.896   8.563   1.291  0.00  0.00    +0.058 A 
ATOM      8  C   UNL     1       6.543   8.434   1.496  0.00  0.00    +0.098 A 
ATOM      9  S   UNL     1       6.196   9.960   2.360  0.00  0.00    -0.067 S 
ATOM     10  C   UNL     1       7.813  10.592   2.358  0.00  0.00    +0.076 A 
ATOM     11  N   UNL     1       8.483   9.652   1.731  0.00  0.00    -0.249 NA
ATOM     12  C   UNL     1       8.320  11.891   2.930  0.00  0.00    +0.073 C 
ENDBRANCH   1   8
BRANCH   4  13
ATOM     13  S   UNL     1       2.223   5.510   0.864  0.00  0.00    -0.058 S 
BRANCH  13  14
ATOM     14  C   UNL     1       2.452   3.936   0.000  0.00  0.00    +0.084 C 
ATOM     15  C   UNL     1       2.877   4.204  -1.445  0.00  0.00    +0.024 C 
BRANCH  14  16
ATOM     16  C   UNL     1       1.157   3.165   0.008  0.00  0.00    -0.016 A 
ATOM     17  C   UNL     1      -0.047   3.837   0.102  0.00  0.00    +0.006 A 
ATOM     18  C   UNL     1      -1.235   3.131   0.109  0.00  0.00    +0.000 A 
ATOM     19  C   UNL     1      -1.219   1.751   0.027  0.00  0.00    +0.001 A 
ATOM     20  C   UNL     1      -0.017   1.078  -0.073  0.00  0.00    +0.020 A 
ATOM     21  C   UNL     1       1.173   1.785  -0.079  0.00  0.00    +0.045 A 
ATOM     22 CL   UNL     1       2.685   0.940  -0.197  0.00  0.00    -0.083 Cl
ENDBRANCH  14  16
ENDBRANCH  13  14
ENDBRANCH   4  13
TORSDOF 4
