REMARK  Name = ZINC12183724
REMARK  9 active torsions:
REMARK  status: ('A' for Active; 'I' for Inactive)
REMARK    1  A    between atoms: C_1  and  C_2
REMARK    2  A    between atoms: C_4  and  C_8
REMARK    3  A    between atoms: C_5  and  C_7
REMARK    4  A    between atoms: C_10  and  N_31
REMARK    5  A    between atoms: N_13  and  C_15
REMARK    6  A    between atoms: C_15  and  C_17
REMARK    7  A    between atoms: C_15  and  C_18
REMARK    8  A    between atoms: N_20  and  C_21
REMARK    9  A    between atoms: C_26  and  C_27
REMARK                            x       y       z     vdW  Elec       q    Type
REMARK                         _______ _______ _______ _____ _____    ______ ____
ROOT
ATOM      1  C   UNL     1       0.842  -0.573   3.555  0.00  0.00    +0.097 A 
ATOM      2  C   UNL     1       2.006  -1.362   3.451  0.00  0.00    +0.058 A 
ATOM      3  C   UNL     1       2.492  -1.689   2.218  0.00  0.00    +0.094 A 
ATOM      4  C   UNL     1       1.811  -1.230   1.062  0.00  0.00    +0.289 A 
ATOM      5  O   UNL     1       2.226  -1.514  -0.050  0.00  0.00    -0.264 OA
ATOM      6  N   UNL     1       0.704  -0.473   1.200  0.00  0.00    -0.216 N 
ATOM      7  N   UNL     1       0.223  -0.151   2.475  0.00  0.00    -0.167 NA
ENDROOT
BRANCH   1  11
ATOM      8  C   UNL     1       0.228  -0.169   8.612  0.00  0.00    +0.086 C 
ATOM      9  C   UNL     1       0.058  -0.051   7.120  0.00  0.00    +0.103 A 
ATOM     10  C   UNL     1       0.868  -0.597   6.197  0.00  0.00    +0.054 A 
ATOM     11  C   UNL     1       0.311  -0.217   4.894  0.00  0.00    +0.043 A 
ATOM     12  C   UNL     1      -0.787   0.534   5.167  0.00  0.00    +0.111 A 
ATOM     13  O   UNL     1      -0.925   0.617   6.497  0.00  0.00    -0.464 OA
ATOM     14  C   UNL     1      -1.699   1.165   4.146  0.00  0.00    +0.087 C 
ENDBRANCH   1  11
BRANCH   3  15
ATOM     15  N   UNL     1       3.642  -2.469   2.097  0.00  0.00    -0.354 N 
ATOM     16  H   UNL     1       4.101  -2.782   2.892  0.00  0.00    +0.142 HD
ATOM     17  H   UNL     1       3.982  -2.697   1.218  0.00  0.00    +0.142 HD
ENDBRANCH   3  15
BRANCH   6  18
ATOM     18  C   UNL     1      -0.003   0.009   0.011  0.00  0.00    +0.194 C 
ATOM     19  C   UNL     1      -0.034   1.539   0.021  0.00  0.00    +0.043 C 
BRANCH  18  20
ATOM     20  C   UNL     1      -1.414  -0.521   0.016  0.00  0.00    +0.242 C 
ATOM     21  O   UNL     1      -1.791  -1.232   0.923  0.00  0.00    -0.273 OA
ATOM     22  N   UNL     1      -2.256  -0.206  -0.988  0.00  0.00    -0.283 N 
ATOM     23  H   UNL     1      -1.975   0.414  -1.679  0.00  0.00    +0.155 HD
BRANCH  22  24
ATOM     24  C   UNL     1      -3.534  -0.773  -1.034  0.00  0.00    +0.045 A 
ATOM     25  C   UNL     1      -4.223  -1.032   0.144  0.00  0.00    +0.024 A 
ATOM     26  C   UNL     1      -5.487  -1.587   0.095  0.00  0.00    +0.002 A 
ATOM     27  C   UNL     1      -6.061  -1.896  -1.124  0.00  0.00    +0.001 A 
ATOM     28  C   UNL     1      -5.376  -1.644  -2.298  0.00  0.00    +0.014 A 
ATOM     29  C   UNL     1      -4.114  -1.085  -2.257  0.00  0.00    +0.076 A 
BRANCH  29  30
ATOM     30  C   UNL     1      -3.367  -0.812  -3.537  0.00  0.00    +0.419 C 
ATOM     31  F   UNL     1      -4.150  -1.207  -4.627  0.00  0.00    -0.166 F 
ATOM     32  F   UNL     1      -3.090   0.556  -3.633  0.00  0.00    -0.166 F 
ATOM     33  F   UNL     1      -2.167  -1.532  -3.539  0.00  0.00    -0.166 F 
ENDBRANCH  29  30
ENDBRANCH  22  24
ENDBRANCH  18  20
ENDBRANCH   6  18
TORSDOF 6
