REMARK  Name = ZINC19370055
REMARK  7 active torsions:
REMARK  status: ('A' for Active; 'I' for Inactive)
REMARK    1  A    between atoms: C_4  and  C_7
REMARK    2  A    between atoms: C_7  and  C_8
REMARK    3  A    between atoms: C_7  and  N_14
REMARK    4  A    between atoms: N_17  and  C_20
REMARK    5  A    between atoms: C_20  and  C_21
REMARK    6  A    between atoms: C_30  and  O_33
REMARK    7  A    between atoms: C_31  and  O_32
REMARK                            x       y       z     vdW  Elec       q    Type
REMARK                         _______ _______ _______ _____ _____    ______ ____
ROOT
ATOM      1  N   UNL     1      -2.439  -2.631  -3.393  0.00  0.00    -0.295 NA
ATOM      2  C   UNL     1      -2.320  -4.073  -3.135  0.00  0.00    +0.067 C 
ATOM      3  C   UNL     1      -1.450  -4.297  -1.896  0.00  0.00    -0.063 C 
ATOM      4  N   UNL     1      -0.128  -3.694  -2.113  0.00  0.00    +0.384 N 
ATOM      5  C   UNL     1      -0.247  -2.252  -2.371  0.00  0.00    -0.063 C 
ATOM      6  C   UNL     1      -1.117  -2.028  -3.610  0.00  0.00    +0.067 C 
ATOM      7  H   UNL     1       0.317  -4.162  -3.003  0.00  0.00    -0.081 HD
ENDROOT
BRANCH   1   8
ATOM      8  C   UNL     1      -3.330  -2.372  -4.532  0.00  0.00    +0.117 C 
BRANCH   8  12
ATOM      9  C   UNL     1      -7.257  -3.783  -3.619  0.00  0.00    +0.000 A 
ATOM     10  C   UNL     1      -6.705  -4.031  -4.862  0.00  0.00    +0.000 A 
ATOM     11  C   UNL     1      -5.434  -3.574  -5.157  0.00  0.00    +0.005 A 
ATOM     12  C   UNL     1      -4.715  -2.869  -4.210  0.00  0.00    -0.026 A 
ATOM     13  C   UNL     1      -5.265  -2.627  -2.965  0.00  0.00    +0.005 A 
ATOM     14  C   UNL     1      -6.537  -3.079  -2.671  0.00  0.00    +0.000 A 
ENDBRANCH   8  12
BRANCH   8  15
ATOM     15  C   UNL     1      -3.379  -0.890  -4.804  0.00  0.00    -0.026 A 
ATOM     16  C   UNL     1      -3.536  -0.000  -3.758  0.00  0.00    +0.005 A 
ATOM     17  C   UNL     1      -3.577   1.359  -4.006  0.00  0.00    +0.000 A 
ATOM     18  C   UNL     1      -3.469   1.828  -5.302  0.00  0.00    +0.000 A 
ATOM     19  C   UNL     1      -3.317   0.938  -6.349  0.00  0.00    +0.000 A 
ATOM     20  C   UNL     1      -3.272  -0.421  -6.100  0.00  0.00    +0.005 A 
ENDBRANCH   8  15
ENDBRANCH   1   8
BRANCH   4  21
ATOM     21  C   UNL     1       0.762  -3.953  -0.974  0.00  0.00    -0.042 C 
BRANCH  21  22
ATOM     22  C   UNL     1       2.187  -3.673  -1.377  0.00  0.00    -0.046 A 
ATOM     23  C   UNL     1       2.827  -2.555  -0.947  0.00  0.00    +0.094 A 
ATOM     24  C   UNL     1       4.160  -2.315  -1.338  0.00  0.00    +0.338 A 
ATOM     25  O   UNL     1       4.722  -1.308  -0.944  0.00  0.00    -0.245 OA
ATOM     26  O   UNL     1       4.826  -3.167  -2.132  0.00  0.00    -0.418 OA
ATOM     27  C   UNL     1       4.248  -4.298  -2.595  0.00  0.00    +0.184 A 
ATOM     28  C   UNL     1       2.920  -4.599  -2.244  0.00  0.00    +0.023 A 
ATOM     29  C   UNL     1       2.317  -5.769  -2.721  0.00  0.00    +0.015 A 
ATOM     30  C   UNL     1       3.021  -6.616  -3.529  0.00  0.00    +0.050 A 
ATOM     31  C   UNL     1       4.336  -6.325  -3.881  0.00  0.00    +0.162 A 
ATOM     32  C   UNL     1       4.952  -5.170  -3.417  0.00  0.00    +0.202 A 
BRANCH  32  33
ATOM     33  O   UNL     1       6.238  -4.894  -3.765  0.00  0.00    -0.501 OA
ATOM     34  H   UNL     1       6.792  -5.586  -4.416  0.00  0.00    +0.292 HD
ENDBRANCH  32  33
BRANCH  31  35
ATOM     35  O   UNL     1       5.023  -7.179  -4.685  0.00  0.00    -0.503 OA
ATOM     36  H   UNL     1       6.062  -6.954  -4.966  0.00  0.00    +0.292 HD
ENDBRANCH  31  35
ENDBRANCH  21  22
ENDBRANCH   4  21
TORSDOF 7
