REMARK  Name = ZINC16739614
REMARK  4 active torsions:
REMARK  status: ('A' for Active; 'I' for Inactive)
REMARK    1  A    between atoms: N_8  and  N_9
REMARK    2  A    between atoms: C_14  and  C_17
REMARK    3  A    between atoms: C_17  and  C_18
REMARK    4  A    between atoms: C_18  and  C_20
REMARK                            x       y       z     vdW  Elec       q    Type
REMARK                         _______ _______ _______ _____ _____    ______ ____
ROOT
ATOM      1  N   UNL     1       1.247  -4.348  -0.035  0.00  0.00    -0.126 NA
ATOM      2  C   UNL     1       0.425  -5.393  -0.034  0.00  0.00    +0.183 C 
ATOM      3  N   UNL     1      -0.940  -5.366  -0.027  0.00  0.00    -0.263 N 
ATOM      4  C   UNL     1      -1.672  -6.471  -0.027  0.00  0.00    +0.232 C 
ATOM      5  O   UNL     1      -2.885  -6.468  -0.021  0.00  0.00    -0.274 OA
ATOM      6  C   UNL     1      -0.838  -7.743  -0.034  0.00  0.00    +0.147 C 
ATOM      7  S   UNL     1       0.852  -7.019  -0.047  0.00  0.00    -0.075 S 
ATOM      8  H   UNL     1      -1.391  -4.507  -0.022  0.00  0.00    +0.157 HD
ENDROOT
BRANCH   1  16
ATOM      9  C   UNL     1      -0.017   1.376   0.010  0.00  0.00    +0.001 A 
ATOM     10  C   UNL     1       1.172   2.087   0.002  0.00  0.00    +0.002 A 
ATOM     11  C   UNL     1       2.385   1.429  -0.013  0.00  0.00    +0.024 A 
ATOM     12  C   UNL     1       2.425   0.039  -0.021  0.00  0.00    +0.043 A 
ATOM     13  C   UNL     1       1.220  -0.677  -0.014  0.00  0.00    +0.028 A 
ATOM     14  C   UNL     1       0.002  -0.004   0.002  0.00  0.00    +0.012 A 
ATOM     15  C   UNL     1       1.586  -2.110  -0.025  0.00  0.00    +0.157 C 
ATOM     16  N   UNL     1       0.768  -3.150  -0.024  0.00  0.00    -0.142 NA
ATOM     17  C   UNL     1       3.055  -2.129  -0.040  0.00  0.00    +0.269 C 
ATOM     18  O   UNL     1       3.758  -3.124  -0.053  0.00  0.00    -0.268 OA
ATOM     19  N   UNL     1       3.487  -0.857  -0.037  0.00  0.00    -0.280 N 
ATOM     20  H   UNL     1       4.422  -0.597  -0.045  0.00  0.00    +0.155 HD
ENDBRANCH   1  16
BRANCH   6  21
ATOM     21  C   UNL     1      -1.094  -8.569  -1.297  0.00  0.00    +0.103 C 
BRANCH  21  22
ATOM     22  C   UNL     1      -0.343  -9.872  -1.206  0.00  0.00    +0.165 C 
ATOM     23  O   UNL     1       0.330 -10.117  -0.228  0.00  0.00    -0.292 OA
BRANCH  22  24
ATOM     24  C   UNL     1      -0.428 -10.848  -2.304  0.00  0.00    +0.018 A 
ATOM     25  C   UNL     1      -1.199 -10.566  -3.436  0.00  0.00    +0.013 A 
ATOM     26  C   UNL     1      -1.273 -11.484  -4.461  0.00  0.00    +0.020 A 
ATOM     27  C   UNL     1      -0.586 -12.684  -4.372  0.00  0.00    +0.041 A 
ATOM     28  C   UNL     1       0.179 -12.970  -3.253  0.00  0.00    +0.020 A 
ATOM     29  C   UNL     1       0.268 -12.059  -2.223  0.00  0.00    +0.013 A 
ATOM     30 CL   UNL     1      -0.686 -13.836  -5.667  0.00  0.00    -0.084 Cl
ENDBRANCH  22  24
ENDBRANCH  21  22
ENDBRANCH   6  21
TORSDOF 4
