REMARK  Name = ZINC09763668
REMARK  8 active torsions:
REMARK  status: ('A' for Active; 'I' for Inactive)
REMARK    1  A    between atoms: C_1  and  O_2
REMARK    2  A    between atoms: O_2  and  C_3
REMARK    3  A    between atoms: C_6  and  C_9
REMARK    4  A    between atoms: N_11  and  N_12
REMARK    5  A    between atoms: C_13  and  C_14
REMARK    6  A    between atoms: C_17  and  O_20
REMARK    7  A    between atoms: O_20  and  C_21
REMARK    8  A    between atoms: C_21  and  C_22
REMARK                            x       y       z     vdW  Elec       q    Type
REMARK                         _______ _______ _______ _____ _____    ______ ____
ROOT
ATOM      1  C   UNL     1       3.609  -6.319  -0.065  0.00  0.00    -0.005 A 
ATOM      2  C   UNL     1       2.412  -7.040  -0.051  0.00  0.00    +0.013 A 
ATOM      3  C   UNL     1       2.440  -8.417  -0.065  0.00  0.00    +0.046 A 
ATOM      4  C   UNL     1       3.655  -9.089  -0.080  0.00  0.00    +0.121 A 
ATOM      5  C   UNL     1       4.847  -8.377  -0.087  0.00  0.00    +0.046 A 
ATOM      6  C   UNL     1       4.829  -6.999  -0.080  0.00  0.00    +0.013 A 
ENDROOT
BRANCH   1   8
ATOM      7  N   UNL     1       2.449  -4.215  -0.043  0.00  0.00    -0.187 NA
ATOM      8  C   UNL     1       3.584  -4.845  -0.057  0.00  0.00    +0.138 C 
BRANCH   7  11
ATOM      9  C   UNL     1       1.248  -2.160  -0.021  0.00  0.00    +0.263 C 
ATOM     10  O   UNL     1       0.205  -2.785  -0.014  0.00  0.00    -0.268 OA
ATOM     11  N   UNL     1       2.426  -2.814  -0.036  0.00  0.00    -0.203 N 
ATOM     12  H   UNL     1       3.257  -2.315  -0.041  0.00  0.00    +0.178 HD
BRANCH   9  16
ATOM     13  C   UNL     1       1.176   2.086   0.002  0.00  0.00    +0.120 A 
ATOM     14  C   UNL     1      -0.017   1.373   0.010  0.00  0.00    +0.046 A 
ATOM     15  C   UNL     1       0.002  -0.004   0.002  0.00  0.00    +0.016 A 
ATOM     16  C   UNL     1       1.223  -0.684  -0.013  0.00  0.00    +0.039 A 
ATOM     17  C   UNL     1       2.420   0.036  -0.021  0.00  0.00    +0.016 A 
ATOM     18  C   UNL     1       2.393   1.413  -0.013  0.00  0.00    +0.046 A 
BRANCH  13  20
ATOM     19  C   UNL     1       2.416   4.113   0.001  0.00  0.00    +0.277 C 
ATOM     20  O   UNL     1       1.154   3.443   0.009  0.00  0.00    -0.495 OA
ENDBRANCH  13  20
ENDBRANCH   9  16
ENDBRANCH   7  11
ENDBRANCH   1   8
BRANCH   4  21
ATOM     21  O   UNL     1       3.678 -10.448  -0.087  0.00  0.00    -0.487 OA
BRANCH  21  22
ATOM     22  C   UNL     1       2.416 -11.118  -0.079  0.00  0.00    +0.264 C 
BRANCH  22  23
ATOM     23  C   UNL     1       2.638 -12.608  -0.088  0.00  0.00    -0.010 A 
ATOM     24  C   UNL     1       2.723 -13.286  -1.290  0.00  0.00    +0.008 A 
ATOM     25  C   UNL     1       2.932 -14.653  -1.299  0.00  0.00    +0.015 A 
ATOM     26  C   UNL     1       3.045 -15.343  -0.106  0.00  0.00    +0.018 A 
ATOM     27  C   UNL     1       2.955 -14.665   1.096  0.00  0.00    +0.015 A 
ATOM     28  C   UNL     1       2.751 -13.298   1.105  0.00  0.00    +0.008 A 
ATOM     29 BR   UNL     1       3.324 -17.213  -0.118  0.00  0.00    -0.050 Br
ENDBRANCH  22  23
ENDBRANCH  21  22
ENDBRANCH   4  21
TORSDOF 7
