REMARK  Name = ZINC39697234
REMARK  3 active torsions:
REMARK  status: ('A' for Active; 'I' for Inactive)
REMARK    1  A    between atoms: C_4  and  N_7
REMARK    2  A    between atoms: C_16  and  C_17
REMARK    3  A    between atoms: C_16  and  O_22
REMARK                            x       y       z     vdW  Elec       q    Type
REMARK                         _______ _______ _______ _____ _____    ______ ____
ROOT
ATOM      1  N   UNL     1       3.805  -0.652  -0.146  0.00  0.00    -0.231 N 
ATOM      2  C   UNL     1       5.082  -0.235  -0.193  0.00  0.00    +0.254 C 
ATOM      3  O   UNL     1       5.432   0.919  -0.347  0.00  0.00    -0.270 OA
ATOM      4  C   UNL     1       6.000  -1.379  -0.030  0.00  0.00    +0.045 A 
ATOM      5  C   UNL     1       7.393  -1.472  -0.007  0.00  0.00    +0.013 A 
ATOM      6  C   UNL     1       7.996  -2.701   0.164  0.00  0.00    +0.001 A 
ATOM      7  C   UNL     1       7.227  -3.841   0.313  0.00  0.00    +0.000 A 
ATOM      8  C   UNL     1       5.845  -3.758   0.291  0.00  0.00    +0.009 A 
ATOM      9  C   UNL     1       5.233  -2.537   0.121  0.00  0.00    +0.019 A 
ATOM     10  C   UNL     1       3.790  -2.105   0.057  0.00  0.00    +0.210 C 
ENDROOT
BRANCH   1  14
ATOM     11  C   UNL     1       0.446   1.786  -0.502  0.00  0.00    +0.000 A 
ATOM     12  C   UNL     1       0.720   1.159   0.700  0.00  0.00    +0.002 A 
ATOM     13  C   UNL     1       1.833   0.351   0.821  0.00  0.00    +0.023 A 
ATOM     14  C   UNL     1       2.677   0.166  -0.266  0.00  0.00    +0.040 A 
ATOM     15  C   UNL     1       2.399   0.796  -1.472  0.00  0.00    +0.023 A 
ATOM     16  C   UNL     1       1.284   1.604  -1.587  0.00  0.00    +0.002 A 
ENDBRANCH   1  14
BRANCH  10  17
ATOM     17  C   UNL     1       3.090  -2.792  -1.117  0.00  0.00    +0.275 C 
ATOM     18  N   UNL     1       1.661  -2.451  -1.125  0.00  0.00    -0.259 NA
ATOM     19  C   UNL     1       1.004  -3.553  -0.992  0.00  0.00    +0.127 C 
ATOM     20  C   UNL     1       1.941  -4.683  -0.889  0.00  0.00    +0.127 C 
ATOM     21  N   UNL     1       3.155  -4.251  -0.961  0.00  0.00    -0.259 NA
ENDBRANCH  10  17
BRANCH  10  22
ATOM     22  O   UNL     1       3.124  -2.422   1.281  0.00  0.00    -0.364 OA
ATOM     23  H   UNL     1       3.082  -3.369   1.471  0.00  0.00    +0.213 HD
ENDBRANCH  10  22
TORSDOF 3
