REMARK  Name = ZINC00399653
REMARK  4 active torsions:
REMARK  status: ('A' for Active; 'I' for Inactive)
REMARK    1  A    between atoms: C_1  and  C_2
REMARK    2  A    between atoms: N_11  and  C_12
REMARK    3  A    between atoms: C_17  and  O_18
REMARK    4  A    between atoms: O_18  and  C_19
REMARK                            x       y       z     vdW  Elec       q    Type
REMARK                         _______ _______ _______ _____ _____    ______ ____
ROOT
ATOM      1  C   UNL     1      -0.007   1.066   0.010  0.00  0.00    +0.009 C 
ATOM      2  C   UNL     1      -0.736   1.554   1.264  0.00  0.00    +0.003 C 
ATOM      3  C   UNL     1      -0.791   3.083   1.260  0.00  0.00    +0.006 C 
ATOM      4  C   UNL     1      -1.548   3.571   2.497  0.00  0.00    +0.019 C 
ATOM      5  C   UNL     1      -0.805   3.117   3.757  0.00  0.00    +0.109 C 
ATOM      6  N   UNL     1      -0.620   1.661   3.699  0.00  0.00    -0.285 N 
ATOM      7  C   UNL     1       0.016   1.077   2.510  0.00  0.00    +0.112 C 
ATOM      8  C   UNL     1      -1.027   0.875   4.715  0.00  0.00    +0.307 C 
ATOM      9  O   UNL     1      -0.958  -0.334   4.615  0.00  0.00    -0.252 OA
ATOM     10  N   UNL     1      -1.512   1.431   5.844  0.00  0.00    -0.266 N 
ATOM     11  H   UNL     1      -1.622   2.393   5.902  0.00  0.00    +0.156 HD
ENDROOT
BRANCH  10  12
ATOM     12  C   UNL     1      -1.856   0.619   6.933  0.00  0.00    +0.078 A 
ATOM     13  C   UNL     1      -2.211  -0.707   6.727  0.00  0.00    +0.047 A 
ATOM     14  C   UNL     1      -2.546  -1.507   7.804  0.00  0.00    +0.043 A 
ATOM     15  C   UNL     1      -2.538  -0.987   9.086  0.00  0.00    +0.024 A 
ATOM     16  C   UNL     1      -2.190   0.334   9.297  0.00  0.00    +0.049 A 
ATOM     17  C   UNL     1      -1.849   1.141   8.224  0.00  0.00    +0.141 A 
ATOM     18 CL   UNL     1      -2.984  -3.167   7.545  0.00  0.00    -0.083 Cl
BRANCH  17  19
ATOM     19  O   UNL     1      -1.507   2.441   8.430  0.00  0.00    -0.493 OA
ATOM     20  C   UNL     1      -1.521   2.909   9.780  0.00  0.00    +0.277 C 
ENDBRANCH  17  19
ENDBRANCH  10  12
TORSDOF 2
