REMARK  Name = ZINC33290406
REMARK  5 active torsions:
REMARK  status: ('A' for Active; 'I' for Inactive)
REMARK    1  A    between atoms: C_5  and  N_7
REMARK    2  A    between atoms: N_7  and  S_8
REMARK    3  A    between atoms: S_8  and  C_11
REMARK    4  A    between atoms: C_20  and  C_24
REMARK    5  A    between atoms: C_24  and  C_25
REMARK                            x       y       z     vdW  Elec       q    Type
REMARK                         _______ _______ _______ _____ _____    ______ ____
ROOT
ATOM      1  C   UNL     1      -6.545   2.449  -1.562  0.00  0.00    +0.110 A 
ATOM      2  C   UNL     1      -6.449   3.052  -2.804  0.00  0.00    +0.030 A 
ATOM      3  C   UNL     1      -6.537   4.420  -2.897  0.00  0.00    +0.018 A 
ATOM      4  C   UNL     1      -6.724   5.225  -1.764  0.00  0.00    +0.029 A 
ATOM      5  C   UNL     1      -6.818   4.625  -0.519  0.00  0.00    +0.049 A 
ATOM      6  C   UNL     1      -6.731   3.224  -0.444  0.00  0.00    +0.053 A 
ATOM      7  N   UNL     1      -6.999   5.249   0.688  0.00  0.00    -0.284 N 
ATOM      8  C   UNL     1      -6.971   6.414   1.231  0.00  0.00    +0.222 C 
ATOM      9  O   UNL     1      -6.963   6.419   2.444  0.00  0.00    -0.275 OA
ATOM     10  C   UNL     1      -6.945   7.757   0.592  0.00  0.00    +0.094 C 
ATOM     11  C   UNL     1      -6.094   7.786  -0.644  0.00  0.00    +0.087 C 
ATOM     12  S   UNL     1      -6.823   6.948  -2.043  0.00  0.00    -0.123 S 
ATOM     13  H   UNL     1      -7.264   4.659   1.577  0.00  0.00    +0.155 HD
ENDROOT
BRANCH   1  14
ATOM     14  S   UNL     1      -6.437   0.696  -1.418  0.00  0.00    +0.072 S 
ATOM     15  O   UNL     1      -6.813   0.161  -2.679  0.00  0.00    -0.150 OA
ATOM     16  O   UNL     1      -7.102   0.346  -0.212  0.00  0.00    -0.150 OA
BRANCH  14  17
ATOM     17  N   UNL     1      -4.838   0.321  -1.202  0.00  0.00    -0.216 N 
ATOM     18  H   UNL     1      -4.322  -0.323  -1.929  0.00  0.00    +0.174 HD
BRANCH  17  23
ATOM     19  C   UNL     1      -4.112   1.456   2.210  0.00  0.00    +0.002 A 
ATOM     20  C   UNL     1      -2.783   1.809   2.084  0.00  0.00    +0.004 A 
ATOM     21  C   UNL     1      -2.126   1.673   0.867  0.00  0.00    -0.042 A 
ATOM     22  C   UNL     1      -2.803   1.177  -0.223  0.00  0.00    -0.022 A 
ATOM     23  C   UNL     1      -4.146   0.821  -0.097  0.00  0.00    +0.051 A 
ATOM     24  C   UNL     1      -4.798   0.962   1.119  0.00  0.00    +0.025 A 
ATOM     25  C   UNL     1      -2.152   0.995  -1.569  0.00  0.00    +0.037 C 
ATOM     26  C   UNL     1      -0.862   1.808  -1.656  0.00  0.00    +0.005 C 
ATOM     27  C   UNL     1      -0.003   1.485  -0.428  0.00  0.00    +0.005 C 
ATOM     28  C   UNL     1      -0.677   2.085   0.804  0.00  0.00    +0.035 C 
ENDBRANCH  17  23
ENDBRANCH  14  17
ENDBRANCH   1  14
BRANCH  10  29
ATOM     29  C   UNL     1      -6.396   8.773   1.596  0.00  0.00    +0.109 C 
BRANCH  29  30
ATOM     30  C   UNL     1      -7.347   8.895   2.758  0.00  0.00    +0.216 C 
ATOM     31  O   UNL     1      -8.364   8.235   2.782  0.00  0.00    -0.276 OA
ATOM     32  N   UNL     1      -7.067   9.739   3.772  0.00  0.00    -0.301 N 
ATOM     33  C   UNL     1      -5.872  10.589   3.874  0.00  0.00    +0.108 C 
ATOM     34  C   UNL     1      -5.971  11.359   5.208  0.00  0.00    +0.020 C 
ATOM     35  C   UNL     1      -6.927  10.472   6.049  0.00  0.00    +0.020 C 
ATOM     36  C   UNL     1      -7.905   9.956   4.965  0.00  0.00    +0.108 C 
ENDBRANCH  29  30
ENDBRANCH  10  29
TORSDOF 5
