REMARK  Name = ZINC16713131
REMARK  3 active torsions:
REMARK  status: ('A' for Active; 'I' for Inactive)
REMARK    1  A    between atoms: C_4  and  C_7
REMARK    2  A    between atoms: C_7  and  N_9
REMARK    3  A    between atoms: N_11  and  C_16
REMARK                            x       y       z     vdW  Elec       q    Type
REMARK                         _______ _______ _______ _____ _____    ______ ____
ROOT
ATOM      1  N   UNL     1       3.988  -2.385   1.326  0.00  0.00    -0.154 NA
ATOM      2  C   UNL     1       5.010  -2.848   0.623  0.00  0.00    +0.160 C 
ATOM      3  N   UNL     1       5.066  -4.024  -0.075  0.00  0.00    -0.220 N 
ATOM      4  C   UNL     1       6.144  -4.397  -0.750  0.00  0.00    +0.236 C 
ATOM      5  O   UNL     1       6.214  -5.434  -1.375  0.00  0.00    -0.274 OA
ATOM      6  C   UNL     1       7.283  -3.393  -0.664  0.00  0.00    +0.173 C 
ATOM      7  S   UNL     1       6.503  -2.110   0.396  0.00  0.00    -0.083 S 
ENDROOT
BRANCH   3   8
ATOM      8  C   UNL     1       3.944  -4.864  -0.074  0.00  0.00    +0.043 A 
ATOM      9  C   UNL     1       2.969  -4.724  -1.052  0.00  0.00    +0.024 A 
ATOM     10  C   UNL     1       1.865  -5.553  -1.049  0.00  0.00    +0.002 A 
ATOM     11  C   UNL     1       1.730  -6.523  -0.073  0.00  0.00    +0.000 A 
ATOM     12  C   UNL     1       2.699  -6.665   0.904  0.00  0.00    +0.002 A 
ATOM     13  C   UNL     1       3.808  -5.842   0.902  0.00  0.00    +0.024 A 
ENDBRANCH   3   8
BRANCH   1  14
ATOM     14  C   UNL     1       4.087  -1.205   1.952  0.00  0.00    +0.269 C 
ATOM     15  O   UNL     1       5.116  -0.558   1.875  0.00  0.00    -0.268 OA
BRANCH  14  19
ATOM     16  C   UNL     1       0.807   0.282   4.210  0.00  0.00    +0.000 A 
ATOM     17  C   UNL     1       1.975   1.019   4.124  0.00  0.00    +0.001 A 
ATOM     18  C   UNL     1       3.043   0.542   3.392  0.00  0.00    +0.013 A 
ATOM     19  C   UNL     1       2.944  -0.687   2.739  0.00  0.00    +0.039 A 
ATOM     20  C   UNL     1       1.764  -1.425   2.830  0.00  0.00    +0.013 A 
ATOM     21  C   UNL     1       0.703  -0.937   3.564  0.00  0.00    +0.001 A 
ENDBRANCH  14  19
ENDBRANCH   1  14
TORSDOF 3
