REMARK  Name = ZINC43461752
REMARK  4 active torsions:
REMARK  status: ('A' for Active; 'I' for Inactive)
REMARK    1  A    between atoms: C_1  and  N_2
REMARK    2  A    between atoms: C_4  and  C_7
REMARK    3  A    between atoms: C_7  and  O_20
REMARK    4  A    between atoms: C_12  and  C_14
REMARK                            x       y       z     vdW  Elec       q    Type
REMARK                         _______ _______ _______ _____ _____    ______ ____
ROOT
ATOM      1  C   UNL     1      -0.188  -3.732  -1.777  0.00  0.00    +0.097 C 
ATOM      2  C   UNL     1      -1.354  -4.701  -1.975  0.00  0.00    +0.040 C 
ATOM      3  C   UNL     1      -0.851  -5.970  -2.666  0.00  0.00    +0.003 C 
ATOM      4  C   UNL     1       0.221  -6.633  -1.799  0.00  0.00    +0.000 C 
ATOM      5  C   UNL     1       1.388  -5.663  -1.601  0.00  0.00    +0.007 C 
ATOM      6  C   UNL     1       0.884  -4.394  -0.909  0.00  0.00    +0.028 C 
ENDROOT
BRANCH   1  10
ATOM      7  C   UNL     1      -0.378   0.858   0.228  0.00  0.00    +0.172 C 
ATOM      8  N   UNL     1      -0.760  -0.482  -0.224  0.00  0.00    -0.274 N 
ATOM      9  C   UNL     1       0.045  -1.370  -0.845  0.00  0.00    +0.114 A 
ATOM     10  C   UNL     1      -0.683  -2.482  -1.096  0.00  0.00    +0.022 A 
ATOM     11  C   UNL     1      -1.978  -2.266  -0.613  0.00  0.00    +0.140 A 
ATOM     12  N   UNL     1      -2.023  -1.070  -0.085  0.00  0.00    -0.180 NA
ENDBRANCH   1  10
BRANCH   6  13
ATOM     13  C   UNL     1       0.287  -4.758   0.452  0.00  0.00    -0.005 C 
ATOM     14  C   UNL     1       0.159  -3.495   1.306  0.00  0.00    +0.004 C 
ATOM     15  C   UNL     1      -0.439  -3.859   2.667  0.00  0.00    +0.000 C 
ATOM     16  C   UNL     1       0.474  -4.863   3.373  0.00  0.00    +0.000 C 
ATOM     17  C   UNL     1       0.602  -6.125   2.518  0.00  0.00    +0.000 C 
ATOM     18  C   UNL     1       1.200  -5.762   1.158  0.00  0.00    +0.004 C 
ENDBRANCH   6  13
BRANCH   1  19
ATOM     19  O   UNL     1       0.371  -3.392  -3.047  0.00  0.00    -0.384 OA
ATOM     20  H   UNL     1      -0.254  -2.967  -3.651  0.00  0.00    +0.211 HD
ENDBRANCH   1  19
TORSDOF 3
