REMARK  Name = ZINC09641211
REMARK  4 active torsions:
REMARK  status: ('A' for Active; 'I' for Inactive)
REMARK    1  A    between atoms: C_4  and  S_7
REMARK    2  A    between atoms: S_7  and  N_10
REMARK    3  A    between atoms: C_16  and  C_18
REMARK    4  A    between atoms: C_18  and  N_19
REMARK                            x       y       z     vdW  Elec       q    Type
REMARK                         _______ _______ _______ _____ _____    ______ ____
ROOT
ATOM      1  N   UNL     1       4.676   0.105   7.257  0.00  0.00    -0.174 NA
ATOM      2  C   UNL     1       5.220   0.136   5.892  0.00  0.00    +0.128 C 
ATOM      3  C   UNL     1       4.752   1.426   5.207  0.00  0.00    +0.125 C 
ATOM      4  N   UNL     1       3.300   1.557   5.394  0.00  0.00    -0.298 N 
ATOM      5  C   UNL     1       2.756   1.531   6.759  0.00  0.00    +0.125 C 
ATOM      6  C   UNL     1       3.224   0.236   7.444  0.00  0.00    +0.128 C 
ATOM      7  C   UNL     1       2.482   1.703   4.333  0.00  0.00    +0.234 C 
ATOM      8  O   UNL     1       2.943   1.727   3.211  0.00  0.00    -0.274 OA
ENDROOT
BRANCH   1   9
ATOM      9  S   UNL     1       5.681  -0.073   8.561  0.00  0.00    +0.061 S 
ATOM     10  O   UNL     1       4.891  -0.616   9.611  0.00  0.00    -0.153 OA
ATOM     11  O   UNL     1       6.856  -0.713   8.084  0.00  0.00    -0.153 OA
BRANCH   9  15
ATOM     12  C   UNL     1       6.913   4.078   9.880  0.00  0.00    +0.000 A 
ATOM     13  C   UNL     1       5.780   3.491  10.413  0.00  0.00    +0.002 A 
ATOM     14  C   UNL     1       5.404   2.224  10.010  0.00  0.00    +0.028 A 
ATOM     15  C   UNL     1       6.160   1.542   9.075  0.00  0.00    +0.105 A 
ATOM     16  C   UNL     1       7.296   2.127   8.546  0.00  0.00    +0.028 A 
ATOM     17  C   UNL     1       7.669   3.397   8.944  0.00  0.00    +0.002 A 
ENDBRANCH   9  15
ENDBRANCH   1   9
BRANCH   7  18
ATOM     18  C   UNL     1       0.996   1.836   4.540  0.00  0.00    +0.213 C 
BRANCH  18  19
ATOM     19  N   UNL     1       0.333   1.981   3.241  0.00  0.00    -0.215 N 
ATOM     20  C   UNL     1      -0.119   0.948   2.500  0.00  0.00    +0.251 C 
ATOM     21  O   UNL     1      -0.057  -0.233   2.770  0.00  0.00    -0.272 OA
ATOM     22  C   UNL     1      -0.719   1.573   1.264  0.00  0.00    +0.139 C 
ATOM     23  C   UNL     1      -0.013   1.086   0.008  0.00  0.00    +0.040 C 
ATOM     24  C   UNL     1      -0.748   1.591  -1.238  0.00  0.00    +0.008 C 
ATOM     25  C   UNL     1      -2.107   0.880  -1.335  0.00  0.00    +0.043 C 
ATOM     26  C   UNL     1      -2.774   0.947   0.000  0.00  0.00    -0.005 A 
ATOM     27  C   UNL     1      -2.200   1.254   1.197  0.00  0.00    -0.005 A 
ATOM     28  C   UNL     1      -3.042   1.250   2.309  0.00  0.00    +0.014 A 
ATOM     29  C   UNL     1      -4.353   0.952   2.166  0.00  0.00    +0.046 A 
ATOM     30  S   UNL     1      -4.473   0.651   0.409  0.00  0.00    -0.101 S 
ATOM     31  N   UNL     1      -0.525   3.014   1.457  0.00  0.00    -0.281 N 
ATOM     32  C   UNL     1       0.100   3.156   2.643  0.00  0.00    +0.310 C 
ATOM     33  O   UNL     1       0.415   4.230   3.116  0.00  0.00    -0.252 OA
ATOM     34  H   UNL     1      -0.792   3.723   0.852  0.00  0.00    +0.152 HD
ENDBRANCH  18  19
ENDBRANCH   7  18
TORSDOF 4
