REMARK  Name = ZINC31799529
REMARK  7 active torsions:
REMARK  status: ('A' for Active; 'I' for Inactive)
REMARK    1  A    between atoms: C_1  and  C_2
REMARK    2  A    between atoms: C_3  and  C_27
REMARK    3  A    between atoms: C_7  and  N_26
REMARK    4  A    between atoms: C_9  and  C_11
REMARK    5  A    between atoms: C_11  and  N_12
REMARK    6  A    between atoms: C_13  and  C_22
REMARK    7  A    between atoms: C_16  and  C_19
REMARK                            x       y       z     vdW  Elec       q    Type
REMARK                         _______ _______ _______ _____ _____    ______ ____
ROOT
ATOM      1  N   UNL     1       0.709   2.620  -0.339  0.00  0.00    -0.297 N 
ATOM      2  C   UNL     1       0.833   1.271  -0.331  0.00  0.00    +0.126 A 
ATOM      3  C   UNL     1      -0.258   0.464  -0.360  0.00  0.00    +0.031 A 
ATOM      4  C   UNL     1      -1.538   1.016  -0.404  0.00  0.00    +0.020 A 
ATOM      5  C   UNL     1      -1.673   2.403  -0.406  0.00  0.00    +0.101 A 
ATOM      6  C   UNL     1      -0.503   3.205  -0.376  0.00  0.00    +0.264 A 
ATOM      7  O   UNL     1      -0.595   4.421  -0.382  0.00  0.00    -0.267 OA
ENDROOT
BRANCH   5   8
ATOM      8  C   UNL     1      -3.006   3.025  -0.447  0.00  0.00    +0.247 C 
ATOM      9  O   UNL     1      -4.003   2.330  -0.381  0.00  0.00    -0.270 OA
ATOM     10  N   UNL     1      -3.123   4.363  -0.556  0.00  0.00    -0.325 N 
ATOM     11  H   UNL     1      -4.119   4.827  -0.587  0.00  0.00    +0.145 HD
ATOM     12  H   UNL     1      -2.221   4.990  -0.616  0.00  0.00    +0.145 HD
ENDBRANCH   5   8
BRANCH   2  13
ATOM     13  C   UNL     1       2.208   0.656  -0.290  0.00  0.00    +0.433 C 
ATOM     14  F   UNL     1       2.095  -0.739  -0.288  0.00  0.00    -0.164 F 
ATOM     15  F   UNL     1       2.935   1.063  -1.413  0.00  0.00    -0.164 F 
ATOM     16  F   UNL     1       2.870   1.071   0.870  0.00  0.00    -0.164 F 
ENDBRANCH   2  13
BRANCH   1  17
ATOM     17  C   UNL     1       1.912   3.455  -0.307  0.00  0.00    +0.201 C 
BRANCH  17  26
ATOM     18  C   UNL     1       3.321   5.516  -6.497  0.00  0.00    +0.045 C 
ATOM     19  C   UNL     1       3.718   4.368  -5.606  0.00  0.00    -0.028 A 
ATOM     20  C   UNL     1       4.576   3.435  -6.043  0.00  0.00    -0.008 A 
ATOM     21  S   UNL     1       4.721   2.320  -4.659  0.00  0.00    -0.074 S 
ATOM     22  C   UNL     1       3.625   3.138  -3.531  0.00  0.00    +0.114 A 
ATOM     23  C   UNL     1       3.175   4.258  -4.263  0.00  0.00    +0.050 A 
ATOM     24  C   UNL     1       2.261   5.107  -3.579  0.00  0.00    +0.128 A 
ATOM     25  N   UNL     1       1.903   4.804  -2.342  0.00  0.00    -0.215 NA
ATOM     26  C   UNL     1       2.365   3.737  -1.717  0.00  0.00    +0.152 A 
ATOM     27  N   UNL     1       3.218   2.915  -2.296  0.00  0.00    -0.223 NA
ATOM     28  C   UNL     1       5.256   3.349  -7.385  0.00  0.00    +0.052 C 
BRANCH  24  29
ATOM     29  N   UNL     1       1.754   6.234  -4.200  0.00  0.00    -0.343 N 
ATOM     30  H   UNL     1       1.048   6.886  -3.665  0.00  0.00    +0.144 HD
ATOM     31  H   UNL     1       2.057   6.479  -5.229  0.00  0.00    +0.144 HD
ENDBRANCH  24  29
ENDBRANCH  17  26
ENDBRANCH   1  17
TORSDOF 5
