REMARK  Name = ZINC17822820
REMARK  6 active torsions:
REMARK  status: ('A' for Active; 'I' for Inactive)
REMARK    1  A    between atoms: C_1  and  C_2
REMARK    2  A    between atoms: C_3  and  C_25
REMARK    3  A    between atoms: N_9  and  C_12
REMARK    4  A    between atoms: C_12  and  C_13
REMARK    5  A    between atoms: C_17  and  C_24
REMARK    6  A    between atoms: C_20  and  C_23
REMARK                            x       y       z     vdW  Elec       q    Type
REMARK                         _______ _______ _______ _____ _____    ______ ____
ROOT
ATOM      1  C   UNL     1      -0.018   1.503   0.010  0.00  0.00    +0.045 C 
ATOM      2  C   UNL     1       0.002  -0.004   0.002  0.00  0.00    -0.026 A 
ATOM      3  C   UNL     1       0.006  -0.677  -1.160  0.00  0.00    -0.008 A 
ATOM      4  S   UNL     1       0.032  -2.385  -0.648  0.00  0.00    -0.073 S 
ATOM      5  C   UNL     1       0.037  -2.144   1.110  0.00  0.00    +0.116 A 
ATOM      6  C   UNL     1       0.024  -0.745   1.250  0.00  0.00    +0.075 A 
ATOM      7  C   UNL     1       0.029  -0.257   2.597  0.00  0.00    +0.263 A 
ATOM      8  O   UNL     1       0.014   0.942   2.821  0.00  0.00    -0.267 OA
ATOM      9  N   UNL     1       0.051  -1.142   3.611  0.00  0.00    -0.290 N 
ATOM     10  C   UNL     1       0.068  -2.480   3.380  0.00  0.00    +0.203 A 
ATOM     11  N   UNL     1       0.053  -2.956   2.163  0.00  0.00    -0.230 NA
ATOM     12  C   UNL     1      -0.009  -0.122  -2.561  0.00  0.00    +0.052 C 
ENDROOT
BRANCH   9  13
ATOM     13  C   UNL     1       0.056  -0.652   4.991  0.00  0.00    +0.222 C 
BRANCH  13  14
ATOM     14  C   UNL     1      -1.363  -0.503   5.477  0.00  0.00    +0.236 C 
ATOM     15  O   UNL     1      -2.287  -0.780   4.743  0.00  0.00    -0.274 OA
ATOM     16  N   UNL     1      -1.604  -0.064   6.728  0.00  0.00    -0.300 N 
ATOM     17  C   UNL     1      -0.494   0.281   7.628  0.00  0.00    +0.111 C 
ATOM     18  C   UNL     1      -0.710   1.703   8.154  0.00  0.00    +0.004 C 
ATOM     19  C   UNL     1      -2.095   1.799   8.799  0.00  0.00    +0.009 C 
ATOM     20  C   UNL     1      -3.169   1.505   7.750  0.00  0.00    +0.004 C 
ATOM     21  C   UNL     1      -2.982   0.086   7.216  0.00  0.00    +0.111 C 
ATOM     22  C   UNL     1      -4.554   1.634   8.387  0.00  0.00    +0.009 C 
ATOM     23  C   UNL     1       0.362   2.030   9.195  0.00  0.00    +0.009 C 
ENDBRANCH  13  14
ENDBRANCH   9  13
TORSDOF 2
