REMARK  Name = ZINC31681744
REMARK  9 active torsions:
REMARK  status: ('A' for Active; 'I' for Inactive)
REMARK    1  A    between atoms: C_1  and  C_2
REMARK    2  A    between atoms: C_2  and  C_3
REMARK    3  A    between atoms: C_3  and  C_4
REMARK    4  A    between atoms: C_3  and  C_5
REMARK    5  A    between atoms: C_3  and  C_6
REMARK    6  A    between atoms: C_13  and  N_17
REMARK    7  A    between atoms: C_14  and  C_15
REMARK    8  A    between atoms: C_18  and  C_20
REMARK    9  A    between atoms: C_20  and  N_21
REMARK                            x       y       z     vdW  Elec       q    Type
REMARK                         _______ _______ _______ _____ _____    ______ ____
ROOT
ATOM      1  N   UNL     1      -0.017   1.384   0.010  0.00  0.00    -0.278 N 
ATOM      2  C   UNL     1       1.141   2.074   0.002  0.00  0.00    +0.237 C 
ATOM      3  O   UNL     1       2.200   1.481  -0.011  0.00  0.00    -0.274 OA
ATOM      4  H   UNL     1      -0.977   1.921   0.022  0.00  0.00    +0.155 HD
ENDROOT
BRANCH   1  11
ATOM      5  C   UNL     1       0.037  -5.000   0.353  0.00  0.00    -0.000 C 
ATOM      6  C   UNL     1      -1.219  -4.701  -0.470  0.00  0.00    +0.009 C 
ATOM      7  C   UNL     1      -1.849  -3.389   0.000  0.00  0.00    +0.037 C 
ATOM      8  C   UNL     1      -0.780  -2.303  -0.003  0.00  0.00    -0.018 A 
ATOM      9  C   UNL     1       0.533  -2.620  -0.017  0.00  0.00    -0.004 A 
ATOM     10  S   UNL     1       1.374  -1.062  -0.024  0.00  0.00    -0.077 S 
ATOM     11  C   UNL     1       0.002  -0.004   0.002  0.00  0.00    +0.090 A 
ATOM     12  C   UNL     1      -1.073  -0.880   0.008  0.00  0.00    +0.084 A 
ATOM     13  C   UNL     1       1.131  -3.993  -0.029  0.00  0.00    +0.047 C 
BRANCH   5  14
ATOM     14  C   UNL     1       0.520  -6.421   0.054  0.00  0.00    -0.032 C 
ATOM     15  C   UNL     1      -0.579  -7.421   0.420  0.00  0.00    +0.011 C 
ATOM     16  C   UNL     1       0.847  -6.545  -1.436  0.00  0.00    +0.011 C 
BRANCH  14  18
ATOM     17  C   UNL     1       2.258  -8.137   0.578  0.00  0.00    +0.004 C 
ATOM     18  C   UNL     1       1.775  -6.717   0.878  0.00  0.00    +0.003 C 
ENDBRANCH  14  18
ENDBRANCH   5  14
BRANCH  12  19
ATOM     19  C   UNL     1      -2.422  -0.400   0.023  0.00  0.00    +0.102 C 
ATOM     20  N   UNL     1      -3.492  -0.019   0.035  0.00  0.00    -0.191 NA
ENDBRANCH  12  19
ENDBRANCH   1  11
BRANCH   2  21
ATOM     21  C   UNL     1       1.121   3.580   0.011  0.00  0.00    +0.230 C 
BRANCH  21  22
ATOM     22  N   UNL     1       2.495   4.087   0.000  0.00  0.00    -0.159 N 
ATOM     23  C   UNL     1       3.279   4.287  -1.071  0.00  0.00    +0.268 C 
ATOM     24  O   UNL     1       2.877   4.045  -2.192  0.00  0.00    -0.268 OA
ATOM     25  C   UNL     1       4.635   4.807  -0.850  0.00  0.00    +0.065 A 
ATOM     26  C   UNL     1       5.650   5.104  -1.775  0.00  0.00    +0.015 A 
ATOM     27  C   UNL     1       6.864   5.588  -1.344  0.00  0.00    +0.001 A 
ATOM     28  C   UNL     1       7.111   5.793   0.002  0.00  0.00    +0.002 A 
ATOM     29  C   UNL     1       6.120   5.505   0.930  0.00  0.00    +0.029 A 
ATOM     30  C   UNL     1       4.914   5.024   0.506  0.00  0.00    +0.121 A 
ATOM     31  S   UNL     1       3.415   4.546   1.320  0.00  0.00    +0.078 S 
ATOM     32  O   UNL     1       2.828   5.717   1.870  0.00  0.00    -0.150 OA
ATOM     33  O   UNL     1       3.692   3.378   2.080  0.00  0.00    -0.150 OA
ENDBRANCH  21  22
ENDBRANCH   2  21
TORSDOF 6
