REMARK  Name = ZINC02929132
REMARK  4 active torsions:
REMARK  status: ('A' for Active; 'I' for Inactive)
REMARK    1  A    between atoms: C_6  and  S_7
REMARK    2  A    between atoms: S_7  and  N_10
REMARK    3  A    between atoms: C_14  and  C_16
REMARK    4  A    between atoms: N_18  and  C_19
REMARK                            x       y       z     vdW  Elec       q    Type
REMARK                         _______ _______ _______ _____ _____    ______ ____
ROOT
ATOM      1  S   UNL     1      -0.791   6.163  -5.035  0.00  0.00    +0.062 S 
ATOM      2  O   UNL     1      -0.611   4.769  -5.243  0.00  0.00    -0.153 OA
ATOM      3  O   UNL     1      -0.046   6.893  -4.070  0.00  0.00    -0.153 OA
ENDROOT
BRANCH   1   9
ATOM      4  C   UNL     1      -0.767   6.264  -7.762  0.00  0.00    +0.030 A 
ATOM      5  C   UNL     1      -0.544   6.874  -8.982  0.00  0.00    +0.025 A 
ATOM      6  C   UNL     1      -0.055   8.172  -9.027  0.00  0.00    +0.037 A 
ATOM      7  C   UNL     1       0.208   8.854  -7.845  0.00  0.00    -0.024 A 
ATOM      8  C   UNL     1      -0.017   8.239  -6.630  0.00  0.00    +0.034 A 
ATOM      9  C   UNL     1      -0.504   6.945  -6.588  0.00  0.00    +0.106 A 
ATOM     10  C   UNL     1       0.738  10.263  -7.894  0.00  0.00    +0.046 C 
ATOM     11  C   UNL     1       1.651  10.424  -9.111  0.00  0.00    +0.101 C 
ATOM     12  C   UNL     1       0.969   9.877 -10.336  0.00  0.00    +0.218 C 
ATOM     13  O   UNL     1       1.142  10.415 -11.409  0.00  0.00    -0.275 OA
ATOM     14  N   UNL     1       0.172   8.796 -10.257  0.00  0.00    -0.285 N 
ATOM     15  H   UNL     1      -0.249   8.448 -11.059  0.00  0.00    +0.155 HD
ENDBRANCH   1   9
BRANCH   1  16
ATOM     16  N   UNL     1      -2.390   6.384  -4.664  0.00  0.00    -0.165 NA
ATOM     17  C   UNL     1      -2.969   7.586  -4.046  0.00  0.00    +0.110 C 
ATOM     18  C   UNL     1      -4.480   7.327  -3.868  0.00  0.00    +0.019 C 
ATOM     19  C   UNL     1      -4.571   5.778  -3.876  0.00  0.00    +0.031 C 
ATOM     20  C   UNL     1      -3.470   5.410  -4.905  0.00  0.00    +0.165 C 
BRANCH  20  21
ATOM     21  C   UNL     1      -2.975   4.007  -4.663  0.00  0.00    +0.232 C 
ATOM     22  O   UNL     1      -2.211   3.783  -3.748  0.00  0.00    -0.274 OA
ATOM     23  N   UNL     1      -3.381   3.002  -5.464  0.00  0.00    -0.311 N 
ATOM     24  H   UNL     1      -3.992   3.181  -6.196  0.00  0.00    +0.149 HD
BRANCH  23  25
ATOM     25  C   UNL     1      -2.900   1.638  -5.229  0.00  0.00    +0.073 C 
ATOM     26  C   UNL     1      -1.549   1.448  -5.921  0.00  0.00    +0.022 C 
ATOM     27  C   UNL     1      -1.046   0.024  -5.675  0.00  0.00    +0.002 C 
ATOM     28  C   UNL     1      -2.055  -0.978  -6.241  0.00  0.00    +0.000 C 
ATOM     29  C   UNL     1      -3.406  -0.788  -5.549  0.00  0.00    +0.002 C 
ATOM     30  C   UNL     1      -3.909   0.636  -5.794  0.00  0.00    +0.022 C 
ENDBRANCH  23  25
ENDBRANCH  20  21
ENDBRANCH   1  16
TORSDOF 4
