REMARK  Name = ZINC57771185
REMARK  3 active torsions:
REMARK  status: ('A' for Active; 'I' for Inactive)
REMARK    1  A    between atoms: C_5  and  C_6
REMARK    2  A    between atoms: N_8  and  C_9
REMARK    3  A    between atoms: C_10  and  C_18
REMARK                            x       y       z     vdW  Elec       q    Type
REMARK                         _______ _______ _______ _____ _____    ______ ____
ROOT
ATOM      1  C   UNL     1      -2.066  -3.099   0.006  0.00  0.00    +0.090 A 
ATOM      2  C   UNL     1      -2.065  -4.484   0.004  0.00  0.00    +0.084 A 
ATOM      3  C   UNL     1      -3.355  -5.150   0.012  0.00  0.00    -0.018 A 
ATOM      4  C   UNL     1      -4.412  -4.307   0.019  0.00  0.00    -0.004 A 
ATOM      5  S   UNL     1      -3.694  -2.690   0.025  0.00  0.00    -0.077 S 
ATOM      6  C   UNL     1      -5.861  -4.681   0.027  0.00  0.00    +0.043 C 
ATOM      7  C   UNL     1      -5.978  -6.164  -0.356  0.00  0.00    +0.005 C 
ATOM      8  C   UNL     1      -4.974  -6.971   0.473  0.00  0.00    +0.005 C 
ATOM      9  C   UNL     1      -3.548  -6.659   0.012  0.00  0.00    +0.037 C 
ENDROOT
BRANCH   1  12
ATOM     10  C   UNL     1      -1.159  -0.911   0.009  0.00  0.00    +0.252 C 
ATOM     11  O   UNL     1      -2.287  -0.455   0.022  0.00  0.00    -0.270 OA
ATOM     12  N   UNL     1      -0.973  -2.245  -0.000  0.00  0.00    -0.275 N 
ATOM     13  H   UNL     1      -0.073  -2.609  -0.011  0.00  0.00    +0.156 HD
BRANCH  10  18
ATOM     14  C   UNL     1      -0.018   1.466   0.010  0.00  0.00    +0.054 A 
ATOM     15  C   UNL     1       1.267   1.852  -0.000  0.00  0.00    +0.195 A 
ATOM     16  O   UNL     1       2.053   0.765  -0.013  0.00  0.00    -0.470 OA
ATOM     17  C   UNL     1       1.321  -0.353  -0.013  0.00  0.00    +0.207 A 
ATOM     18  C   UNL     1       0.002  -0.004   0.002  0.00  0.00    +0.075 A 
ENDBRANCH  10  18
ENDBRANCH   1  12
BRANCH   2  19
ATOM     19  C   UNL     1      -0.842  -5.229  -0.005  0.00  0.00    +0.102 C 
ATOM     20  N   UNL     1       0.128  -5.820  -0.013  0.00  0.00    -0.191 NA
ENDBRANCH   2  19
TORSDOF 3
