REMARK  Name = ZINC06085476
REMARK  2 active torsions:
REMARK  status: ('A' for Active; 'I' for Inactive)
REMARK    1  A    between atoms: C_1  and  C_2
REMARK    2  A    between atoms: C_8  and  N_10
REMARK                            x       y       z     vdW  Elec       q    Type
REMARK                         _______ _______ _______ _____ _____    ______ ____
ROOT
ATOM      1  N   UNL     1       1.362   1.593  -0.002  0.00  0.00    -0.325 N 
ATOM      2  C   UNL     1       2.357   0.908   0.672  0.00  0.00    +0.131 A 
ATOM      3  C   UNL     1       3.696   1.387   0.664  0.00  0.00    +0.051 A 
ATOM      4  C   UNL     1       4.234   2.588   0.003  0.00  0.00    -0.025 A 
ATOM      5  C   UNL     1       5.547   2.824   0.151  0.00  0.00    -0.004 A 
ATOM      6  S   UNL     1       6.146   1.492   1.166  0.00  0.00    -0.073 S 
ATOM      7  C   UNL     1       4.623   0.613   1.384  0.00  0.00    +0.114 A 
ATOM      8  N   UNL     1       4.260  -0.488   2.013  0.00  0.00    -0.228 NA
ATOM      9  C   UNL     1       3.003  -0.887   1.983  0.00  0.00    +0.224 A 
ATOM     10  N   UNL     1       2.078  -0.207   1.329  0.00  0.00    -0.220 NA
ATOM     11  C   UNL     1       5.983   4.076  -0.562  0.00  0.00    +0.043 C 
ATOM     12  C   UNL     1       4.671   4.845  -0.832  0.00  0.00    +0.010 C 
ATOM     13  C   UNL     1       3.639   3.701  -0.865  0.00  0.00    +0.037 C 
ATOM     14  H   UNL     1       1.574   2.409  -0.482  0.00  0.00    +0.148 HD
ENDROOT
BRANCH   1  21
ATOM     15  C   UNL     1      -0.037   1.099  -2.490  0.00  0.00    +0.009 C 
ATOM     16  C   UNL     1      -0.753   1.593  -1.232  0.00  0.00    +0.006 C 
ATOM     17  C   UNL     1      -2.188   1.063  -1.221  0.00  0.00    +0.005 C 
ATOM     18  C   UNL     1      -2.904   1.556   0.038  0.00  0.00    +0.000 C 
ATOM     19  C   UNL     1      -2.164   1.050   1.278  0.00  0.00    +0.002 C 
ATOM     20  C   UNL     1      -0.729   1.579   1.267  0.00  0.00    +0.022 C 
ATOM     21  C   UNL     1      -0.013   1.086   0.008  0.00  0.00    +0.075 C 
ENDBRANCH   1  21
TORSDOF 1
