REMARK  Name = ZINC59249822
REMARK  6 active torsions:
REMARK  status: ('A' for Active; 'I' for Inactive)
REMARK    1  A    between atoms: C_3  and  C_8
REMARK    2  A    between atoms: N_10  and  N_11
REMARK    3  A    between atoms: C_12  and  C_13
REMARK    4  A    between atoms: C_16  and  O_20
REMARK    5  A    between atoms: O_20  and  C_21
REMARK    6  A    between atoms: C_21  and  C_22
REMARK                            x       y       z     vdW  Elec       q    Type
REMARK                         _______ _______ _______ _____ _____    ______ ____
ROOT
ATOM      1  N   UNL     1       6.036   2.217  -0.045  0.00  0.00    -0.187 NA
ATOM      2  C   UNL     1       7.168   1.581  -0.059  0.00  0.00    +0.138 C 
ENDROOT
BRANCH   2   3
ATOM      3  C   UNL     1       8.436   2.333  -0.068  0.00  0.00    -0.004 A 
ATOM      4  C   UNL     1       8.422   3.731  -0.054  0.00  0.00    +0.013 A 
ATOM      5  C   UNL     1       9.609   4.430  -0.062  0.00  0.00    +0.048 A 
ATOM      6  C   UNL     1      10.819   3.749  -0.083  0.00  0.00    +0.140 A 
ATOM      7  C   UNL     1      10.838   2.359  -0.096  0.00  0.00    +0.083 A 
ATOM      8  C   UNL     1       9.655   1.651  -0.083  0.00  0.00    +0.033 A 
ATOM      9 CL   UNL     1      12.354   1.514  -0.123  0.00  0.00    -0.080 Cl
BRANCH   6  10
ATOM     10  O   UNL     1      11.987   4.443  -0.091  0.00  0.00    -0.479 OA
BRANCH  10  11
ATOM     11  C   UNL     1      11.895   5.869  -0.077  0.00  0.00    +0.353 C 
BRANCH  11  12
ATOM     12  C   UNL     1      13.280   6.462  -0.089  0.00  0.00    +0.393 C 
ATOM     13  O   UNL     1      14.256   5.731  -0.108  0.00  0.00    -0.243 OA
ATOM     14  O   UNL     1      13.425   7.672  -0.081  0.00  0.00    -0.243 OA
ENDBRANCH  11  12
ENDBRANCH  10  11
ENDBRANCH   6  10
ENDBRANCH   2   3
BRANCH   1  17
ATOM     15  C   UNL     1       3.656   2.162  -0.022  0.00  0.00    +0.263 C 
ATOM     16  O   UNL     1       3.642   3.378  -0.015  0.00  0.00    -0.268 OA
ATOM     17  N   UNL     1       4.831   1.502  -0.036  0.00  0.00    -0.203 N 
ATOM     18  H   UNL     1       4.843   0.532  -0.042  0.00  0.00    +0.178 HD
BRANCH  15  21
ATOM     19  C   UNL     1      -0.017   1.379   0.010  0.00  0.00    +0.002 A 
ATOM     20  C   UNL     1       1.167   2.088   0.002  0.00  0.00    +0.013 A 
ATOM     21  C   UNL     1       2.385   1.408  -0.013  0.00  0.00    +0.040 A 
ATOM     22  C   UNL     1       2.398   0.012  -0.021  0.00  0.00    +0.033 A 
ATOM     23  C   UNL     1       1.207  -0.686  -0.013  0.00  0.00    +0.042 A 
ATOM     24  C   UNL     1       0.002  -0.004   0.002  0.00  0.00    +0.020 A 
ATOM     25 CL   UNL     1       1.220  -2.422  -0.023  0.00  0.00    -0.084 Cl
ENDBRANCH  15  21
ENDBRANCH   1  17
TORSDOF 6
