REMARK  Name = ZINC12892054
REMARK  6 active torsions:
REMARK  status: ('A' for Active; 'I' for Inactive)
REMARK    1  A    between atoms: C_4  and  C_7
REMARK    2  A    between atoms: C_8  and  N_17
REMARK    3  A    between atoms: C_10  and  S_12
REMARK    4  A    between atoms: S_12  and  C_13
REMARK    5  A    between atoms: C_13  and  C_14
REMARK    6  A    between atoms: C_18  and  C_20
REMARK                            x       y       z     vdW  Elec       q    Type
REMARK                         _______ _______ _______ _____ _____    ______ ____
ROOT
ATOM      1  C   UNL     1      -3.681   1.619   0.028  0.00  0.00    +0.101 A 
ATOM      2  C   UNL     1      -2.386   1.158   0.020  0.00  0.00    +0.101 A 
ATOM      3  S   UNL     1      -2.661  -0.609   0.003  0.00  0.00    -0.045 S 
ATOM      4  C   UNL     1      -4.447  -0.561   0.019  0.00  0.00    +0.137 A 
ATOM      5  N   UNL     1      -4.681   0.738   0.028  0.00  0.00    -0.231 NA
ENDROOT
BRANCH   1   9
ATOM      6  C   UNL     1      -4.486   5.792   0.056  0.00  0.00    +0.000 A 
ATOM      7  C   UNL     1      -5.323   4.933  -0.634  0.00  0.00    +0.001 A 
ATOM      8  C   UNL     1      -5.068   3.577  -0.647  0.00  0.00    +0.010 A 
ATOM      9  C   UNL     1      -3.961   3.073   0.037  0.00  0.00    +0.003 A 
ATOM     10  C   UNL     1      -3.123   3.943   0.735  0.00  0.00    +0.010 A 
ATOM     11  C   UNL     1      -3.387   5.297   0.736  0.00  0.00    +0.001 A 
ENDBRANCH   1   9
BRANCH   2  12
ATOM     12  N   UNL     1      -1.191   1.869   0.018  0.00  0.00    -0.272 N 
ATOM     13  C   UNL     1      -0.014   1.212   0.009  0.00  0.00    +0.284 C 
ATOM     14  O   UNL     1       0.002  -0.004   0.002  0.00  0.00    -0.266 OA
ATOM     15  H   UNL     1      -1.204   2.839   0.023  0.00  0.00    +0.156 HD
BRANCH  13  16
ATOM     16  C   UNL     1       1.257   1.969   0.001  0.00  0.00    +0.194 A 
ATOM     17  C   UNL     1       2.424   1.281  -0.014  0.00  0.00    +0.103 A 
ATOM     18  C   UNL     1       3.658   1.994  -0.023  0.00  0.00    +0.193 A 
ATOM     19  O   UNL     1       4.728   1.411  -0.036  0.00  0.00    -0.287 OA
ATOM     20  C   UNL     1       3.586   3.467  -0.014  0.00  0.00    +0.064 A 
ATOM     21  C   UNL     1       4.740   4.251  -0.021  0.00  0.00    +0.015 A 
ATOM     22  C   UNL     1       4.631   5.614  -0.013  0.00  0.00    +0.001 A 
ATOM     23  C   UNL     1       3.383   6.221   0.002  0.00  0.00    +0.004 A 
ATOM     24  C   UNL     1       2.232   5.462   0.009  0.00  0.00    +0.047 A 
ATOM     25  C   UNL     1       2.319   4.075   0.001  0.00  0.00    +0.139 A 
ATOM     26  O   UNL     1       1.208   3.311   0.003  0.00  0.00    -0.450 OA
ENDBRANCH  13  16
ENDBRANCH   2  12
BRANCH   4  27
ATOM     27  S   UNL     1      -5.595  -1.898   0.017  0.00  0.00    -0.089 S 
BRANCH  27  28
ATOM     28  C   UNL     1      -4.448  -3.298   0.003  0.00  0.00    +0.171 C 
BRANCH  28  29
ATOM     29  C   UNL     1      -5.229  -4.587  -0.001  0.00  0.00    +0.221 C 
ATOM     30  O   UNL     1      -6.441  -4.562   0.005  0.00  0.00    -0.275 OA
ATOM     31  N   UNL     1      -4.579  -5.768  -0.010  0.00  0.00    -0.329 N 
ATOM     32  H   UNL     1      -3.610  -5.788  -0.015  0.00  0.00    +0.145 HD
ATOM     33  H   UNL     1      -5.082  -6.598  -0.013  0.00  0.00    +0.145 HD
ENDBRANCH  28  29
ENDBRANCH  27  28
ENDBRANCH   4  27
TORSDOF 6
