REMARK  Name = ZINC22619996
REMARK  9 active torsions:
REMARK  status: ('A' for Active; 'I' for Inactive)
REMARK    1  A    between atoms: C_1  and  C_2
REMARK    2  A    between atoms: N_6  and  C_14
REMARK    3  A    between atoms: C_14  and  C_15
REMARK    4  A    between atoms: N_17  and  C_18
REMARK    5  A    between atoms: C_18  and  C_19
REMARK    6  A    between atoms: C_19  and  C_21
REMARK    7  A    between atoms: C_19  and  N_28
REMARK    8  A    between atoms: N_28  and  C_29
REMARK    9  A    between atoms: N_28  and  C_30
REMARK                            x       y       z     vdW  Elec       q    Type
REMARK                         _______ _______ _______ _____ _____    ______ ____
ROOT
ATOM      1  C   UNL     1       1.002   6.026  -2.909  0.00  0.00    +0.231 C 
ATOM      2  O   UNL     1       0.185   5.851  -3.789  0.00  0.00    -0.274 OA
ATOM      3  N   UNL     1       2.068   6.821  -3.127  0.00  0.00    -0.315 N 
ATOM      4  H   UNL     1       2.808   6.979  -2.329  0.00  0.00    +0.149 HD
ENDROOT
BRANCH   1   5
ATOM      5  C   UNL     1       0.824   5.353  -1.572  0.00  0.00    +0.209 C 
BRANCH   5  10
ATOM      6  C   UNL     1      -2.962   3.559   0.162  0.00  0.00    +0.062 C 
ATOM      7  C   UNL     1      -2.824   4.239  -1.202  0.00  0.00    +0.256 C 
ATOM      8  C   UNL     1      -1.581   5.091  -1.215  0.00  0.00    +0.261 C 
ATOM      9  O   UNL     1      -1.640   6.259  -0.891  0.00  0.00    -0.271 OA
ATOM     10  N   UNL     1      -0.401   4.550  -1.589  0.00  0.00    -0.256 N 
ATOM     11  C   UNL     1      -0.367   3.208  -1.992  0.00  0.00    +0.079 A 
ATOM     12  C   UNL     1       0.835   2.524  -2.076  0.00  0.00    +0.027 A 
ATOM     13  C   UNL     1       0.846   1.201  -2.477  0.00  0.00    +0.002 A 
ATOM     14  C   UNL     1      -0.337   0.560  -2.795  0.00  0.00    +0.004 A 
ATOM     15  C   UNL     1      -1.540   1.238  -2.718  0.00  0.00    +0.047 A 
ATOM     16  C   UNL     1      -1.560   2.561  -2.312  0.00  0.00    +0.143 A 
ATOM     17  O   UNL     1      -2.734   3.242  -2.224  0.00  0.00    -0.478 OA
ENDBRANCH   5  10
ENDBRANCH   1   5
BRANCH   3  18
ATOM     18  C   UNL     1       2.241   7.475  -4.427  0.00  0.00    +0.093 C 
BRANCH  18  19
ATOM     19  C   UNL     1       3.465   8.391  -4.378  0.00  0.00    -0.020 C 
BRANCH  19  20
ATOM     20  C   UNL     1       4.710   7.559  -4.214  0.00  0.00    -0.041 A 
ATOM     21  C   UNL     1       5.234   7.340  -2.954  0.00  0.00    +0.003 A 
ATOM     22  C   UNL     1       6.377   6.576  -2.804  0.00  0.00    +0.000 A 
ATOM     23  C   UNL     1       6.995   6.030  -3.914  0.00  0.00    +0.001 A 
ATOM     24  C   UNL     1       6.471   6.248  -5.174  0.00  0.00    +0.020 A 
ATOM     25  C   UNL     1       5.325   7.008  -5.324  0.00  0.00    +0.043 A 
ATOM     26 CL   UNL     1       4.662   7.277  -6.906  0.00  0.00    -0.083 Cl
ENDBRANCH  19  20
BRANCH  19  27
ATOM     27  N   UNL     1       3.340   9.314  -3.241  0.00  0.00    +0.382 N 
ATOM     28  C   UNL     1       4.414  10.317  -3.257  0.00  0.00    -0.096 C 
ATOM     29  C   UNL     1       2.019   9.957  -3.228  0.00  0.00    -0.096 C 
ATOM     30  H   UNL     1       3.439   8.727  -2.317  0.00  0.00    -0.082 HD
ENDBRANCH  19  27
ENDBRANCH  18  19
ENDBRANCH   3  18
TORSDOF 6
