REMARK  Name = ZINC66761247
REMARK  10 active torsions:
REMARK  status: ('A' for Active; 'I' for Inactive)
REMARK    1  A    between atoms: C_1  and  C_2
REMARK    2  A    between atoms: C_2  and  C_3
REMARK    3  A    between atoms: C_3  and  N_4
REMARK    4  A    between atoms: C_10  and  N_13
REMARK    5  A    between atoms: C_14  and  C_16
REMARK    6  A    between atoms: C_22  and  O_24
REMARK    7  A    between atoms: O_24  and  C_25
REMARK    8  A    between atoms: C_25  and  C_26
REMARK    9  A    between atoms: C_25  and  C_27
REMARK   10  A    between atoms: C_25  and  C_28
REMARK                            x       y       z     vdW  Elec       q    Type
REMARK                         _______ _______ _______ _____ _____    ______ ____
ROOT
ATOM      1  N   UNL     1      -5.659  -2.893   1.002  0.00  0.00    -0.285 N 
ATOM      2  C   UNL     1      -6.883  -3.149   1.505  0.00  0.00    +0.220 C 
ATOM      3  O   UNL     1      -7.031  -3.280   2.702  0.00  0.00    -0.275 OA
ATOM      4  H   UNL     1      -5.553  -2.709   0.055  0.00  0.00    +0.155 HD
ENDROOT
BRANCH   1  11
ATOM      5  N   UNL     1      -1.944  -0.458   0.710  0.00  0.00    +0.385 N 
ATOM      6  C   UNL     1      -1.244  -1.290   1.714  0.00  0.00    -0.042 C 
ATOM      7  C   UNL     1      -2.310  -2.163   2.337  0.00  0.00    -0.061 A 
ATOM      8  C   UNL     1      -2.333  -2.893   3.510  0.00  0.00    +0.002 A 
ATOM      9  C   UNL     1      -3.457  -3.622   3.854  0.00  0.00    +0.002 A 
ATOM     10  C   UNL     1      -4.561  -3.624   3.025  0.00  0.00    +0.023 A 
ATOM     11  C   UNL     1      -4.542  -2.893   1.844  0.00  0.00    +0.035 A 
ATOM     12  C   UNL     1      -3.413  -2.161   1.502  0.00  0.00    -0.041 A 
ATOM     13  C   UNL     1      -3.103  -1.287   0.308  0.00  0.00    -0.040 C 
ATOM     14  H   UNL     1      -1.346  -0.278  -0.083  0.00  0.00    -0.081 HD
BRANCH   5  15
ATOM     15  C   UNL     1      -2.397   0.804   1.310  0.00  0.00    -0.078 C 
BRANCH  15  17
ATOM     16  C   UNL     1      -1.658   3.007   2.228  0.00  0.00    +0.002 C 
ATOM     17  C   UNL     1      -1.186   1.693   1.602  0.00  0.00    -0.022 C 
ENDBRANCH  15  17
ENDBRANCH   5  15
ENDBRANCH   1  11
BRANCH   2  18
ATOM     18  C   UNL     1      -8.067  -3.273   0.581  0.00  0.00    +0.078 C 
ATOM     19  C   UNL     1      -8.250  -1.965  -0.191  0.00  0.00    +0.032 C 
ATOM     20  C   UNL     1      -9.433  -2.106  -1.154  0.00  0.00    +0.112 C 
ATOM     21  N   UNL     1     -10.616  -2.527  -0.391  0.00  0.00    -0.267 N 
ATOM     22  C   UNL     1     -10.521  -3.723   0.457  0.00  0.00    +0.112 C 
ATOM     23  C   UNL     1      -9.326  -3.563   1.402  0.00  0.00    +0.032 C 
ATOM     24  C   UNL     1     -11.767  -1.829  -0.468  0.00  0.00    +0.403 C 
ATOM     25  O   UNL     1     -11.832  -0.841  -1.173  0.00  0.00    -0.226 OA
BRANCH  24  26
ATOM     26  O   UNL     1     -12.843  -2.226   0.237  0.00  0.00    -0.445 OA
BRANCH  26  27
ATOM     27  C   UNL     1     -14.029  -1.439   0.108  0.00  0.00    +0.107 C 
ATOM     28  C   UNL     1     -14.477  -1.427  -1.355  0.00  0.00    +0.055 C 
ATOM     29  C   UNL     1     -15.137  -2.041   0.975  0.00  0.00    +0.055 C 
ATOM     30  C   UNL     1     -13.743  -0.007   0.566  0.00  0.00    +0.055 C 
ENDBRANCH  26  27
ENDBRANCH  24  26
ENDBRANCH   2  18
TORSDOF 6
