REMARK  Name = ZINC40266139
REMARK  2 active torsions:
REMARK  status: ('A' for Active; 'I' for Inactive)
REMARK    1  A    between atoms: C_5  and  C_7
REMARK    2  A    between atoms: N_17  and  C_18
REMARK                            x       y       z     vdW  Elec       q    Type
REMARK                         _______ _______ _______ _____ _____    ______ ____
ROOT
ATOM      1  C   UNL     1       1.228  -2.186  -0.022  0.00  0.00    +0.083 C 
ATOM      2  C   UNL     1       0.515  -2.719   1.224  0.00  0.00    +0.110 C 
ATOM      3  C   UNL     1      -0.976  -2.602   1.096  0.00  0.00    +0.219 C 
ATOM      4  O   UNL     1      -1.631  -2.329   2.080  0.00  0.00    -0.275 OA
ATOM      5  N   UNL     1      -1.613  -2.791  -0.081  0.00  0.00    -0.270 N 
ATOM      6  C   UNL     1      -0.833  -2.970  -1.225  0.00  0.00    +0.133 A 
ATOM      7  C   UNL     1       0.502  -2.696  -1.241  0.00  0.00    +0.089 A 
ATOM      8  N   UNL     1       0.965  -2.960  -2.461  0.00  0.00    -0.238 NA
ATOM      9  C   UNL     1      -0.016  -3.389  -3.213  0.00  0.00    +0.205 A 
ATOM     10  N   UNL     1      -1.164  -3.409  -2.468  0.00  0.00    -0.287 N 
ATOM     11  H   UNL     1      -2.581  -2.803  -0.129  0.00  0.00    +0.156 HD
ENDROOT
BRANCH   1  16
ATOM     12  C   UNL     1      -0.017   1.378   0.010  0.00  0.00    +0.000 A 
ATOM     13  C   UNL     1       1.171   2.087   0.002  0.00  0.00    +0.003 A 
ATOM     14  C   UNL     1       2.377   1.414  -0.013  0.00  0.00    +0.038 A 
ATOM     15  C   UNL     1       2.397   0.029  -0.021  0.00  0.00    +0.127 A 
ATOM     16  C   UNL     1       1.208  -0.679  -0.013  0.00  0.00    -0.003 A 
ATOM     17  C   UNL     1       0.002  -0.004   0.002  0.00  0.00    +0.007 A 
ATOM     18  F   UNL     1       3.577  -0.630  -0.036  0.00  0.00    -0.205 F 
ENDBRANCH   1  16
BRANCH  10  19
ATOM     19  C   UNL     1      -2.437  -3.806  -2.904  0.00  0.00    +0.052 A 
ATOM     20  C   UNL     1      -3.174  -4.716  -2.158  0.00  0.00    +0.026 A 
ATOM     21  C   UNL     1      -4.428  -5.106  -2.587  0.00  0.00    +0.005 A 
ATOM     22  C   UNL     1      -4.949  -4.591  -3.760  0.00  0.00    +0.038 A 
ATOM     23  C   UNL     1      -4.217  -3.684  -4.507  0.00  0.00    +0.125 A 
ATOM     24  C   UNL     1      -2.963  -3.286  -4.077  0.00  0.00    +0.064 A 
ATOM     25  F   UNL     1      -4.729  -3.184  -5.653  0.00  0.00    -0.205 F 
ENDBRANCH  10  19
TORSDOF 2
