REMARK  Name = ZINC67590991
REMARK  3 active torsions:
REMARK  status: ('A' for Active; 'I' for Inactive)
REMARK    1  A    between atoms: C_6  and  C_7
REMARK    2  A    between atoms: N_16  and  C_17
REMARK    3  A    between atoms: C_17  and  C_18
REMARK                            x       y       z     vdW  Elec       q    Type
REMARK                         _______ _______ _______ _____ _____    ______ ____
ROOT
ATOM      1  C   UNL     1      -1.290  -0.774   0.006  0.00  0.00    +0.166 C 
ATOM      2  C   UNL     1      -1.615  -1.250  -1.415  0.00  0.00    +0.145 C 
ATOM      3  N   UNL     1      -2.777  -2.150  -1.348  0.00  0.00    -0.281 N 
ATOM      4  C   UNL     1      -2.742  -3.254  -0.376  0.00  0.00    +0.137 C 
ATOM      5  C   UNL     1      -2.362  -2.680   0.994  0.00  0.00    +0.179 C 
ATOM      6  O   UNL     1      -1.165  -1.908   0.867  0.00  0.00    -0.369 OA
ATOM      7  C   UNL     1      -3.843  -1.968  -2.153  0.00  0.00    +0.303 C 
ATOM      8  O   UNL     1      -3.895  -0.996  -2.881  0.00  0.00    -0.253 OA
ATOM      9  N   UNL     1      -4.850  -2.863  -2.150  0.00  0.00    -0.291 N 
ATOM     10  H   UNL     1      -4.843  -3.599  -1.518  0.00  0.00    +0.151 HD
ENDROOT
BRANCH   1  16
ATOM     11  C   UNL     1      -0.009   1.377  -0.002  0.00  0.00    +0.007 A 
ATOM     12  C   UNL     1       1.180   2.082  -0.013  0.00  0.00    +0.015 A 
ATOM     13  C   UNL     1       2.386   1.403  -0.026  0.00  0.00    +0.018 A 
ATOM     14  C   UNL     1       2.401   0.020  -0.029  0.00  0.00    +0.015 A 
ATOM     15  C   UNL     1       1.212  -0.684  -0.019  0.00  0.00    +0.007 A 
ATOM     16  C   UNL     1       0.007  -0.006  -0.005  0.00  0.00    -0.017 A 
ATOM     17 BR   UNL     1       4.013   2.367  -0.040  0.00  0.00    -0.050 Br
ENDBRANCH   1  16
BRANCH   9  18
ATOM     18  C   UNL     1      -5.956  -2.725  -3.101  0.00  0.00    +0.201 C 
BRANCH  18  19
ATOM     19  C   UNL     1      -6.942  -3.845  -2.891  0.00  0.00    +0.233 C 
ATOM     20  O   UNL     1      -6.741  -4.676  -2.031  0.00  0.00    -0.274 OA
ATOM     21  N   UNL     1      -8.047  -3.922  -3.658  0.00  0.00    -0.300 N 
ATOM     22  C   UNL     1      -8.410  -2.989  -4.735  0.00  0.00    +0.108 C 
ATOM     23  C   UNL     1      -9.762  -3.458  -5.312  0.00  0.00    +0.020 C 
ATOM     24  C   UNL     1     -10.362  -4.297  -4.153  0.00  0.00    +0.020 C 
ATOM     25  C   UNL     1      -9.090  -4.960  -3.561  0.00  0.00    +0.108 C 
ENDBRANCH  18  19
ENDBRANCH   9  18
TORSDOF 3
