REMARK  Name = ZINC30852115
REMARK  5 active torsions:
REMARK  status: ('A' for Active; 'I' for Inactive)
REMARK    1  A    between atoms: C_1  and  C_2
REMARK    2  A    between atoms: C_2  and  C_3
REMARK    3  A    between atoms: C_10  and  C_12
REMARK    4  A    between atoms: C_12  and  N_13
REMARK    5  A    between atoms: C_21  and  C_25
REMARK                            x       y       z     vdW  Elec       q    Type
REMARK                         _______ _______ _______ _____ _____    ______ ____
ROOT
ATOM      1  N   UNL     1       5.132  -0.303  -2.521  0.00  0.00    -0.256 N 
ATOM      2  C   UNL     1       6.308   0.457  -2.453  0.00  0.00    +0.079 A 
ATOM      3  C   UNL     1       6.255   1.826  -2.246  0.00  0.00    +0.027 A 
ATOM      4  C   UNL     1       7.427   2.557  -2.183  0.00  0.00    +0.002 A 
ATOM      5  C   UNL     1       8.649   1.926  -2.326  0.00  0.00    +0.004 A 
ATOM      6  C   UNL     1       8.708   0.562  -2.521  0.00  0.00    +0.047 A 
ATOM      7  C   UNL     1       7.540  -0.177  -2.590  0.00  0.00    +0.143 A 
ATOM      8  O   UNL     1       7.580  -1.521  -2.797  0.00  0.00    -0.478 OA
ATOM      9  C   UNL     1       6.553  -2.298  -2.176  0.00  0.00    +0.256 C 
ATOM     10  C   UNL     1       5.214  -1.647  -2.412  0.00  0.00    +0.261 C 
ATOM     11  O   UNL     1       4.214  -2.328  -2.503  0.00  0.00    -0.271 OA
ATOM     12  C   UNL     1       6.547  -3.706  -2.775  0.00  0.00    +0.062 C 
ENDROOT
BRANCH   1  13
ATOM     13  C   UNL     1       3.834   0.350  -2.714  0.00  0.00    +0.209 C 
BRANCH  13  20
ATOM     14  C   UNL     1      -0.013   1.086   0.008  0.00  0.00    +0.135 C 
ATOM     15  C   UNL     1       1.425   1.617  -0.003  0.00  0.00    +0.139 C 
ATOM     16  N   UNL     1       2.032   1.287  -1.302  0.00  0.00    -0.296 N 
ATOM     17  C   UNL     1       1.290   1.640  -2.522  0.00  0.00    +0.136 C 
ATOM     18  C   UNL     1      -0.141   1.107  -2.389  0.00  0.00    +0.179 C 
ATOM     19  O   UNL     1      -0.699   1.560  -1.153  0.00  0.00    -0.373 OA
ATOM     20  C   UNL     1       3.233   0.678  -1.371  0.00  0.00    +0.234 C 
ATOM     21  O   UNL     1       3.829   0.395  -0.354  0.00  0.00    -0.274 OA
BRANCH  14  23
ATOM     22  C   UNL     1      -2.124   0.951   1.337  0.00  0.00    +0.006 C 
ATOM     23  C   UNL     1      -0.731   1.580   1.265  0.00  0.00    +0.030 C 
ENDBRANCH  14  23
ENDBRANCH  13  20
ENDBRANCH   1  13
TORSDOF 3
