REMARK  Name = ZINC10233108
REMARK  12 active torsions:
REMARK  status: ('A' for Active; 'I' for Inactive)
REMARK    1  A    between atoms: C_1  and  C_2
REMARK    2  A    between atoms: C_7  and  C_8
REMARK    3  A    between atoms: C_14  and  C_23
REMARK    4  A    between atoms: N_16  and  C_19
REMARK    5  A    between atoms: C_19  and  C_20
REMARK    6  A    between atoms: C_20  and  N_62
REMARK    7  A    between atoms: C_21  and  N_62
REMARK    8  A    between atoms: C_22  and  N_62
REMARK    9  A    between atoms: C_27  and  O_29
REMARK   10  A    between atoms: O_29  and  C_30
REMARK   11  A    between atoms: C_30  and  C_31
REMARK   12  A    between atoms: C_30  and  C_32
REMARK                            x       y       z     vdW  Elec       q    Type
REMARK                         _______ _______ _______ _____ _____    ______ ____
ROOT
ATOM      1  C   UNL     1       1.713   8.733   8.701  0.00  0.00    +0.044 C 
ATOM      2  C   UNL     1       0.403   8.753   7.957  0.00  0.00    -0.047 A 
ATOM      3  C   UNL     1       0.303   8.141   6.726  0.00  0.00    +0.019 A 
ATOM      4  C   UNL     1      -0.912   8.164   6.045  0.00  0.00    +0.065 A 
ATOM      5  C   UNL     1      -2.031   8.806   6.604  0.00  0.00    +0.140 A 
ATOM      6  C   UNL     1      -1.906   9.417   7.848  0.00  0.00    +0.050 A 
ATOM      7  C   UNL     1      -0.699   9.387   8.512  0.00  0.00    -0.044 A 
ATOM      8  C   UNL     1      -0.574  10.053   9.859  0.00  0.00    +0.044 C 
ATOM      9  O   UNL     1      -3.205   8.827   5.946  0.00  0.00    -0.450 OA
ATOM     10  C   UNL     1      -3.396   8.255   4.741  0.00  0.00    +0.199 A 
ATOM     11  C   UNL     1      -2.391   7.607   4.103  0.00  0.00    +0.072 A 
ATOM     12  C   UNL     1      -1.067   7.521   4.725  0.00  0.00    +0.199 A 
ATOM     13  O   UNL     1      -0.141   6.947   4.180  0.00  0.00    -0.287 OA
ATOM     14  C   UNL     1      -2.941   7.094   2.797  0.00  0.00    +0.145 C 
ATOM     15  N   UNL     1      -4.348   7.512   2.758  0.00  0.00    -0.285 N 
ATOM     16  C   UNL     1      -4.611   8.187   3.890  0.00  0.00    +0.283 C 
ATOM     17  O   UNL     1      -5.687   8.672   4.176  0.00  0.00    -0.267 OA
ENDROOT
BRANCH  14  18
ATOM     18  C   UNL     1      -2.844   5.591   2.748  0.00  0.00    -0.019 A 
ATOM     19  C   UNL     1      -3.769   4.817   3.425  0.00  0.00    +0.006 A 
ATOM     20  C   UNL     1      -3.683   3.438   3.381  0.00  0.00    +0.004 A 
ATOM     21  C   UNL     1      -2.672   2.830   2.662  0.00  0.00    +0.045 A 
ATOM     22  C   UNL     1      -1.743   3.604   1.983  0.00  0.00    +0.121 A 
ATOM     23  C   UNL     1      -1.828   4.988   2.033  0.00  0.00    +0.051 A 
BRANCH  22  24
ATOM     24  O   UNL     1      -0.748   3.008   1.275  0.00  0.00    -0.489 OA
BRANCH  24  25
ATOM     25  C   UNL     1       0.240   3.864   0.698  0.00  0.00    +0.167 C 
ATOM     26  C   UNL     1       1.539   3.080   0.497  0.00  0.00    +0.051 C 
ATOM     27  C   UNL     1      -0.258   4.381  -0.652  0.00  0.00    +0.051 C 
ENDBRANCH  24  25
ENDBRANCH  22  24
ENDBRANCH  14  18
BRANCH  15  28
ATOM     28  C   UNL     1      -5.297   7.242   1.676  0.00  0.00    +0.090 C 
BRANCH  28  29
ATOM     29  C   UNL     1      -6.011   5.915   1.944  0.00  0.00    -0.060 C 
BRANCH  29  32
ATOM     30  C   UNL     1      -6.262   5.413  -0.412  0.00  0.00    -0.097 C 
ATOM     31  C   UNL     1      -7.834   4.509   1.193  0.00  0.00    -0.097 C 
ATOM     32  N   UNL     1      -6.980   5.667   0.855  0.00  0.00    +0.377 N 
ATOM     33  H   UNL     1      -7.574   6.497   0.741  0.00  0.00    -0.083 HD
ENDBRANCH  29  32
ENDBRANCH  28  29
ENDBRANCH  15  28
TORSDOF 6
