REMARK  Name = ZINC56723171
REMARK  8 active torsions:
REMARK  status: ('A' for Active; 'I' for Inactive)
REMARK    1  A    between atoms: C_1  and  N_2
REMARK    2  A    between atoms: N_2  and  C_3
REMARK    3  A    between atoms: N_2  and  C_4
REMARK    4  A    between atoms: C_7  and  N_11
REMARK    5  A    between atoms: C_19  and  O_26
REMARK    6  A    between atoms: C_20  and  O_24
REMARK    7  A    between atoms: O_24  and  C_25
REMARK    8  A    between atoms: O_26  and  C_27
REMARK                            x       y       z     vdW  Elec       q    Type
REMARK                         _______ _______ _______ _____ _____    ______ ____
ROOT
ATOM      1  N   UNL     1      -0.006  -2.766  -4.842  0.00  0.00    -0.269 N 
ATOM      2  C   UNL     1       1.154  -2.999  -5.487  0.00  0.00    +0.307 C 
ATOM      3  O   UNL     1       2.210  -2.688  -4.970  0.00  0.00    -0.252 OA
ATOM      4  N   UNL     1       1.144  -3.576  -6.705  0.00  0.00    -0.281 N 
ATOM      5  C   UNL     1       2.395  -3.950  -7.386  0.00  0.00    +0.114 C 
ATOM      6  C   UNL     1       2.414  -5.470  -7.532  0.00  0.00    +0.054 C 
ATOM      7  C   UNL     1       1.100  -5.973  -8.071  0.00  0.00    -0.038 A 
ATOM      8  C   UNL     1       1.087  -7.234  -8.657  0.00  0.00    +0.053 A 
ATOM      9  C   UNL     1      -0.086  -7.762  -9.164  0.00  0.00    +0.162 A 
ATOM     10  C   UNL     1      -1.264  -7.025  -9.085  0.00  0.00    +0.162 A 
ATOM     11  C   UNL     1      -1.246  -5.771  -8.504  0.00  0.00    +0.054 A 
ATOM     12  C   UNL     1      -0.065  -5.242  -8.002  0.00  0.00    -0.023 A 
ATOM     13  C   UNL     1      -0.113  -3.862  -7.403  0.00  0.00    +0.144 C 
ATOM     14  H   UNL     1      -0.835  -3.134  -5.187  0.00  0.00    +0.156 HD
ENDROOT
BRANCH   1  18
ATOM     15  C   UNL     1      -0.034  -0.464  -1.361  0.00  0.00    +0.101 A 
ATOM     16  C   UNL     1      -1.135  -0.456  -2.208  0.00  0.00    +0.149 A 
ATOM     17  C   UNL     1      -1.125  -1.220  -3.362  0.00  0.00    +0.063 A 
ATOM     18  C   UNL     1      -0.015  -1.993  -3.673  0.00  0.00    +0.040 A 
ATOM     19  C   UNL     1       1.085  -2.001  -2.827  0.00  0.00    +0.063 A 
ATOM     20  C   UNL     1       1.079  -1.234  -1.676  0.00  0.00    +0.149 A 
ATOM     21  F   UNL     1       2.152  -1.238  -0.856  0.00  0.00    -0.203 F 
ATOM     22  F   UNL     1      -2.216   0.296  -1.905  0.00  0.00    -0.203 F 
BRANCH  15  24
ATOM     23  C   UNL     1       0.446   1.691  -0.223  0.00  0.00    +0.129 C 
ATOM     24  N   UNL     1      -0.043   0.310  -0.192  0.00  0.00    -0.332 N 
ATOM     25  C   UNL     1      -0.542  -0.262   1.062  0.00  0.00    +0.129 C 
ENDBRANCH  15  24
ENDBRANCH   1  18
BRANCH  10  26
ATOM     26  O   UNL     1      -2.425  -7.536  -9.576  0.00  0.00    -0.491 OA
ATOM     27  C   UNL     1      -3.593  -6.721  -9.459  0.00  0.00    +0.277 C 
ENDBRANCH  10  26
BRANCH   9  28
ATOM     28  O   UNL     1      -0.088  -8.995  -9.737  0.00  0.00    -0.491 OA
ATOM     29  C   UNL     1       1.159  -9.692  -9.783  0.00  0.00    +0.277 C 
ENDBRANCH   9  28
TORSDOF 4
