REMARK  Name = ZINC40375488
REMARK  5 active torsions:
REMARK  status: ('A' for Active; 'I' for Inactive)
REMARK    1  A    between atoms: C_1  and  C_2
REMARK    2  A    between atoms: C_5  and  N_9
REMARK    3  A    between atoms: C_13  and  N_17
REMARK    4  A    between atoms: C_18  and  C_26
REMARK    5  A    between atoms: C_23  and  C_25
REMARK                            x       y       z     vdW  Elec       q    Type
REMARK                         _______ _______ _______ _____ _____    ______ ____
ROOT
ATOM      1  N   UNL     1      -1.039  -5.647  -0.200  0.00  0.00    -0.209 N 
ATOM      2  C   UNL     1      -1.744  -6.768  -0.397  0.00  0.00    +0.225 C 
ATOM      3  O   UNL     1      -2.953  -6.840  -0.431  0.00  0.00    -0.275 OA
ATOM      4  C   UNL     1      -0.791  -7.931  -0.571  0.00  0.00    +0.091 C 
ATOM      5  C   UNL     1       0.601  -7.281  -0.439  0.00  0.00    +0.030 C 
ATOM      6  C   UNL     1       0.289  -5.818  -0.210  0.00  0.00    +0.213 C 
ATOM      7  O   UNL     1       1.111  -4.940  -0.057  0.00  0.00    -0.277 OA
ENDROOT
BRANCH   5   8
ATOM      8  N   UNL     1       1.373  -7.456  -1.676  0.00  0.00    +0.391 N 
ATOM      9  C   UNL     1       0.916  -6.485  -2.678  0.00  0.00    -0.070 C 
ATOM     10  C   UNL     1       1.661  -6.716  -3.994  0.00  0.00    -0.016 C 
ATOM     11  C   UNL     1       3.164  -6.543  -3.762  0.00  0.00    -0.003 C 
ATOM     12  C   UNL     1       3.615  -7.509  -2.663  0.00  0.00    -0.016 C 
ATOM     13  C   UNL     1       2.799  -7.249  -1.395  0.00  0.00    -0.070 C 
ATOM     14  C   UNL     1       3.246  -8.212  -0.294  0.00  0.00    -0.013 C 
ATOM     15  C   UNL     1      -0.587  -6.657  -2.906  0.00  0.00    -0.013 C 
ATOM     16  H   UNL     1       1.233  -8.391  -2.029  0.00  0.00    -0.080 HD
ENDBRANCH   5   8
BRANCH   1  21
ATOM     17  C   UNL     1      -3.481  -0.582   0.586  0.00  0.00    +0.044 C 
ATOM     18  C   UNL     1      -2.833  -1.926   0.378  0.00  0.00    -0.048 A 
ATOM     19  C   UNL     1      -2.518  -2.351  -0.900  0.00  0.00    +0.005 A 
ATOM     20  C   UNL     1      -1.924  -3.583  -1.094  0.00  0.00    +0.027 A 
ATOM     21  C   UNL     1      -1.642  -4.395  -0.005  0.00  0.00    +0.079 A 
ATOM     22  C   UNL     1      -1.958  -3.967   1.279  0.00  0.00    +0.145 A 
ATOM     23  C   UNL     1      -2.548  -2.730   1.467  0.00  0.00    +0.043 A 
ATOM     24  F   UNL     1      -1.685  -4.755   2.341  0.00  0.00    -0.204 F 
ENDBRANCH   1  21
TORSDOF 2
