REMARK  Name = ZINC47361328
REMARK  6 active torsions:
REMARK  status: ('A' for Active; 'I' for Inactive)
REMARK    1  A    between atoms: C_1  and  C_2
REMARK    2  A    between atoms: C_3  and  C_12
REMARK    3  A    between atoms: C_14  and  C_15
REMARK    4  A    between atoms: C_14  and  C_17
REMARK    5  A    between atoms: C_17  and  C_19
REMARK    6  A    between atoms: N_21  and  C_28
REMARK                            x       y       z     vdW  Elec       q    Type
REMARK                         _______ _______ _______ _____ _____    ______ ____
ROOT
ATOM      1  C   UNL     1       0.006  -0.305  -2.505  0.00  0.00    +0.209 C 
ATOM      2  O   UNL     1       1.107  -0.450  -3.272  0.00  0.00    -0.286 OA
ATOM      3  C   UNL     1      -1.148   0.270  -3.041  0.00  0.00    +0.146 C 
ENDROOT
BRANCH   1   6
ATOM      4  C   UNL     1      -0.040   1.554   0.007  0.00  0.00    +0.064 C 
ATOM      5  C   UNL     1       0.002   0.048   0.011  0.00  0.00    +0.025 A 
ATOM      6  C   UNL     1       0.022  -0.750  -1.112  0.00  0.00    +0.051 A 
ATOM      7  C   UNL     1       0.062  -2.144  -0.628  0.00  0.00    +0.011 A 
ATOM      8  C   UNL     1       0.095  -3.384  -1.259  0.00  0.00    +0.011 A 
ATOM      9  C   UNL     1       0.128  -4.535  -0.501  0.00  0.00    +0.001 A 
ATOM     10  C   UNL     1       0.129  -4.460   0.884  0.00  0.00    +0.002 A 
ATOM     11  C   UNL     1       0.096  -3.239   1.521  0.00  0.00    +0.026 A 
ATOM     12  C   UNL     1       0.063  -2.066   0.773  0.00  0.00    +0.047 A 
ATOM     13  N   UNL     1       0.032  -0.730   1.119  0.00  0.00    -0.358 N 
ATOM     14  H   UNL     1       0.030  -0.395   2.029  0.00  0.00    +0.166 HD
ENDBRANCH   1   6
BRANCH   3  15
ATOM     15  C   UNL     1      -1.163   0.705  -4.405  0.00  0.00    +0.107 C 
ATOM     16  N   UNL     1      -1.176   1.051  -5.487  0.00  0.00    -0.191 NA
ENDBRANCH   3  15
BRANCH   3  17
ATOM     17  C   UNL     1      -2.342   0.426  -2.209  0.00  0.00    +0.209 C 
ATOM     18  O   UNL     1      -2.368  -0.043  -1.084  0.00  0.00    -0.286 OA
BRANCH  17  19
ATOM     19  C   UNL     1      -3.512   1.151  -2.729  0.00  0.00    +0.048 A 
ATOM     20  C   UNL     1      -3.674   1.638  -3.992  0.00  0.00    +0.098 A 
ATOM     21  N   UNL     1      -4.881   2.247  -4.098  0.00  0.00    -0.349 N 
ATOM     22  C   UNL     1      -5.559   2.180  -2.898  0.00  0.00    +0.050 A 
ATOM     23  C   UNL     1      -4.741   1.489  -1.990  0.00  0.00    +0.011 A 
ATOM     24  C   UNL     1      -5.178   1.266  -0.686  0.00  0.00    +0.011 A 
ATOM     25  C   UNL     1      -6.418   1.724  -0.295  0.00  0.00    +0.001 A 
ATOM     26  C   UNL     1      -7.228   2.403  -1.192  0.00  0.00    +0.002 A 
ATOM     27  C   UNL     1      -6.805   2.639  -2.482  0.00  0.00    +0.026 A 
ATOM     28  C   UNL     1      -5.393   2.884  -5.314  0.00  0.00    +0.149 C 
ENDBRANCH  17  19
ENDBRANCH   3  17
TORSDOF 4
