REMARK  Name = ZINC06760681
REMARK  4 active torsions:
REMARK  status: ('A' for Active; 'I' for Inactive)
REMARK    1  A    between atoms: C_8  and  S_10
REMARK    2  A    between atoms: S_10  and  C_11
REMARK    3  A    between atoms: C_11  and  C_12
REMARK    4  A    between atoms: N_16  and  C_17
REMARK                            x       y       z     vdW  Elec       q    Type
REMARK                         _______ _______ _______ _____ _____    ______ ____
ROOT
ATOM      1  C   UNL     1      -0.421  -6.221  -0.020  0.00  0.00    +0.167 A 
ATOM      2  N   UNL     1      -0.759  -6.921  -1.071  0.00  0.00    -0.112 NA
ATOM      3  N   UNL     1      -1.089  -8.115  -0.734  0.00  0.00    -0.023 NA
ATOM      4  N   UNL     1      -0.986  -8.261   0.543  0.00  0.00    -0.039 NA
ATOM      5  N   UNL     1      -0.540  -7.030   1.055  0.00  0.00    -0.196 N 
ENDROOT
BRANCH   5   6
ATOM      6  C   UNL     1      -0.278  -6.709   2.396  0.00  0.00    +0.069 A 
ATOM      7  C   UNL     1       0.389  -7.615   3.209  0.00  0.00    +0.029 A 
ATOM      8  C   UNL     1       0.651  -7.295   4.527  0.00  0.00    +0.017 A 
ATOM      9  C   UNL     1       0.240  -6.077   5.039  0.00  0.00    +0.018 A 
ATOM     10  C   UNL     1      -0.430  -5.175   4.232  0.00  0.00    +0.017 A 
ATOM     11  C   UNL     1      -0.689  -5.488   2.912  0.00  0.00    +0.029 A 
ATOM     12 BR   UNL     1       0.593  -5.645   6.846  0.00  0.00    -0.050 Br
ENDBRANCH   5   6
BRANCH   1  13
ATOM     13  C   UNL     1       0.026  -4.782  -0.010  0.00  0.00    +0.157 C 
BRANCH  13  14
ATOM     14  S   UNL     1      -1.425  -3.700   0.004  0.00  0.00    -0.059 S 
BRANCH  14  22
ATOM     15  C   UNL     1       0.746   2.168   0.042  0.00  0.00    +0.002 A 
ATOM     16  C   UNL     1       1.987   1.549   0.032  0.00  0.00    +0.004 A 
ATOM     17  C   UNL     1       2.082   0.172   0.021  0.00  0.00    +0.048 A 
ATOM     18  C   UNL     1       0.931  -0.600   0.019  0.00  0.00    +0.156 A 
ATOM     19  C   UNL     1      -0.326   0.022   0.029  0.00  0.00    +0.110 A 
ATOM     20  C   UNL     1      -0.408   1.415   0.040  0.00  0.00    +0.031 A 
ATOM     21  N   UNL     1      -1.254  -0.973   0.025  0.00  0.00    -0.203 NA
ATOM     22  C   UNL     1      -0.633  -2.126   0.013  0.00  0.00    +0.258 A 
ATOM     23  O   UNL     1       0.698  -1.933   0.009  0.00  0.00    -0.431 OA
ENDBRANCH  14  22
ENDBRANCH  13  14
ENDBRANCH   1  13
TORSDOF 4
