REMARK  Name = ZINC58203127
REMARK  9 active torsions:
REMARK  status: ('A' for Active; 'I' for Inactive)
REMARK    1  A    between atoms: C_1  and  C_2
REMARK    2  A    between atoms: C_2  and  N_3
REMARK    3  A    between atoms: C_5  and  C_14
REMARK    4  A    between atoms: C_14  and  N_15
REMARK    5  A    between atoms: N_15  and  C_16
REMARK    6  A    between atoms: C_17  and  C_19
REMARK    7  A    between atoms: C_20  and  C_31
REMARK    8  A    between atoms: C_25  and  C_29
REMARK    9  A    between atoms: C_25  and  C_30
REMARK                            x       y       z     vdW  Elec       q    Type
REMARK                         _______ _______ _______ _____ _____    ______ ____
ROOT
ATOM      1  N   UNL     1       4.812   0.189   3.862  0.00  0.00    -0.294 N 
ATOM      2  C   UNL     1       4.944  -0.452   5.173  0.00  0.00    +0.132 C 
ATOM      3  C   UNL     1       5.388   1.386   3.637  0.00  0.00    +0.282 C 
ATOM      4  O   UNL     1       5.199   1.963   2.582  0.00  0.00    -0.267 OA
ENDROOT
BRANCH   3   5
ATOM      5  C   UNL     1       6.243   1.995   4.663  0.00  0.00    +0.193 A 
ATOM      6  C   UNL     1       6.779   3.249   4.609  0.00  0.00    +0.011 A 
ATOM      7  C   UNL     1       7.519   3.410   5.790  0.00  0.00    +0.062 A 
ATOM      8  C   UNL     1       7.399   2.229   6.514  0.00  0.00    +0.117 A 
ATOM      9  O   UNL     1       6.624   1.406   5.820  0.00  0.00    -0.454 OA
ATOM     10  C   UNL     1       8.067   2.016   7.848  0.00  0.00    +0.082 C 
ATOM     11  C   UNL     1       9.226   3.006   7.997  0.00  0.00    -0.021 C 
ATOM     12  C   UNL     1       8.749   4.440   7.740  0.00  0.00    +0.086 C 
ATOM     13  C   UNL     1       8.309   4.546   6.287  0.00  0.00    +0.167 C 
ATOM     14  O   UNL     1       8.590   5.499   5.590  0.00  0.00    -0.292 OA
ATOM     15  C   UNL     1       9.793   2.910   9.414  0.00  0.00    +0.012 C 
ATOM     16  C   UNL     1      10.323   2.652   6.991  0.00  0.00    +0.012 C 
ATOM     17  C   UNL     1       6.609   4.258   3.503  0.00  0.00    +0.048 C 
ENDBRANCH   3   5
BRANCH   1  18
ATOM     18  C   UNL     1       4.055  -0.472   2.797  0.00  0.00    +0.154 C 
BRANCH  18  21
ATOM     19  N   UNL     1       0.385  -0.322   1.892  0.00  0.00    -0.324 N 
ATOM     20  C   UNL     1       1.793  -0.732   1.754  0.00  0.00    +0.151 C 
ATOM     21  C   UNL     1       2.589  -0.041   2.870  0.00  0.00    +0.208 C 
ATOM     22  O   UNL     1       2.037  -0.421   4.133  0.00  0.00    -0.484 OA
ATOM     23  C   UNL     1       0.691  -0.321   4.292  0.00  0.00    +0.142 A 
ATOM     24  C   UNL     1      -0.154  -0.266   3.188  0.00  0.00    +0.072 A 
ATOM     25  C   UNL     1      -1.524  -0.163   3.366  0.00  0.00    +0.027 A 
ATOM     26  C   UNL     1      -2.050  -0.105   4.644  0.00  0.00    +0.002 A 
ATOM     27  C   UNL     1      -1.210  -0.151   5.741  0.00  0.00    +0.004 A 
ATOM     28  C   UNL     1       0.153  -0.267   5.568  0.00  0.00    +0.047 A 
BRANCH  19  30
ATOM     29  C   UNL     1      -0.286   1.517   0.426  0.00  0.00    +0.024 C 
ATOM     30  C   UNL     1      -0.423   0.021   0.720  0.00  0.00    +0.102 C 
ENDBRANCH  19  30
ENDBRANCH  18  21
ENDBRANCH   1  18
TORSDOF 4
