REMARK  Name = ZINC46582680
REMARK  5 active torsions:
REMARK  status: ('A' for Active; 'I' for Inactive)
REMARK    1  A    between atoms: C_4  and  N_7
REMARK    2  A    between atoms: C_11  and  C_14
REMARK    3  A    between atoms: N_16  and  N_17
REMARK    4  A    between atoms: C_18  and  C_20
REMARK    5  A    between atoms: C_20  and  C_21
REMARK                            x       y       z     vdW  Elec       q    Type
REMARK                         _______ _______ _______ _____ _____    ______ ____
ROOT
ATOM      1  C   UNL     1       4.644  -4.059   1.028  0.00  0.00    +0.234 C 
ATOM      2  O   UNL     1       5.749  -4.546   0.904  0.00  0.00    -0.274 OA
ATOM      3  N   UNL     1       3.560  -4.857   1.096  0.00  0.00    -0.234 N 
ATOM      4  H   UNL     1       2.677  -4.468   1.195  0.00  0.00    +0.173 HD
ENDROOT
BRANCH   1   9
ATOM      5  N   UNL     1       3.563  -0.613  -0.036  0.00  0.00    -0.313 N 
ATOM      6  C   UNL     1       4.832   0.128  -0.040  0.00  0.00    +0.106 C 
ATOM      7  C   UNL     1       5.701  -0.379   1.116  0.00  0.00    +0.020 C 
ATOM      8  C   UNL     1       5.859  -1.897   1.004  0.00  0.00    +0.016 C 
ATOM      9  C   UNL     1       4.485  -2.563   1.105  0.00  0.00    +0.094 C 
ATOM     10  C   UNL     1       3.602  -2.082  -0.045  0.00  0.00    +0.119 C 
BRANCH   5  14
ATOM     11  C   UNL     1      -0.015   1.319  -0.001  0.00  0.00    +0.130 A 
ATOM     12  C   UNL     1       1.162   2.011   0.212  0.00  0.00    +0.132 A 
ATOM     13  N   UNL     1       2.319   1.372   0.198  0.00  0.00    -0.237 NA
ATOM     14  C   UNL     1       2.349   0.063  -0.020  0.00  0.00    +0.140 A 
ATOM     15  C   UNL     1       1.160  -0.631  -0.234  0.00  0.00    +0.154 A 
ATOM     16  N   UNL     1       0.010   0.015  -0.219  0.00  0.00    -0.258 NA
ENDBRANCH   5  14
ENDBRANCH   1   9
BRANCH   3  17
ATOM     17  N   UNL     1       3.709  -6.248   1.024  0.00  0.00    -0.234 N 
ATOM     18  C   UNL     1       2.625  -7.046   1.093  0.00  0.00    +0.230 C 
ATOM     19  O   UNL     1       1.521  -6.560   1.216  0.00  0.00    -0.274 OA
ATOM     20  H   UNL     1       4.592  -6.637   0.925  0.00  0.00    +0.173 HD
BRANCH  18  21
ATOM     21  C   UNL     1       2.784  -8.543   1.015  0.00  0.00    +0.104 C 
BRANCH  21  22
ATOM     22  C   UNL     1       1.410  -9.208   1.116  0.00  0.00    -0.020 C 
ATOM     23  C   UNL     1       0.526  -8.729  -0.037  0.00  0.00    +0.011 C 
ATOM     24  C   UNL     1      -0.848  -9.395   0.064  0.00  0.00    -0.010 C 
ATOM     25  C   UNL     1      -0.686 -10.914  -0.014  0.00  0.00    +0.007 C 
ATOM     26  C   UNL     1       0.198 -11.393   1.139  0.00  0.00    -0.010 C 
ATOM     27  C   UNL     1       1.572 -10.727   1.038  0.00  0.00    +0.011 C 
ATOM     28  C   UNL     1      -0.453 -11.018   2.471  0.00  0.00    +0.007 C 
ATOM     29  C   UNL     1      -0.615  -9.498   2.550  0.00  0.00    -0.010 C 
ATOM     30  C   UNL     1      -1.500  -9.019   1.397  0.00  0.00    +0.007 C 
ATOM     31  C   UNL     1       0.759  -8.833   2.449  0.00  0.00    +0.011 C 
ENDBRANCH  21  22
ENDBRANCH  18  21
ENDBRANCH   3  17
TORSDOF 5
