REMARK  Name = ZINC35637741
REMARK  7 active torsions:
REMARK  status: ('A' for Active; 'I' for Inactive)
REMARK    1  A    between atoms: C_1  and  C_2
REMARK    2  A    between atoms: C_2  and  O_3
REMARK    3  A    between atoms: O_3  and  C_4
REMARK    4  A    between atoms: C_4  and  C_6
REMARK    5  A    between atoms: C_13  and  C_15
REMARK    6  A    between atoms: C_21  and  C_23
REMARK    7  A    between atoms: C_26  and  C_29
REMARK                            x       y       z     vdW  Elec       q    Type
REMARK                         _______ _______ _______ _____ _____    ______ ____
ROOT
ATOM      1  C   UNL     1       3.873  -5.529  -4.492  0.00  0.00    +0.191 C 
ATOM      2  C   UNL     1       4.766  -4.436  -5.131  0.00  0.00    +0.194 C 
ATOM      3  O   UNL     1       5.551  -5.194  -6.081  0.00  0.00    -0.354 OA
ATOM      4  C   UNL     1       5.827  -6.448  -5.438  0.00  0.00    +0.139 C 
ATOM      5  N   UNL     1       4.772  -6.703  -4.441  0.00  0.00    -0.255 N 
ATOM      6  C   UNL     1       4.651  -7.782  -3.643  0.00  0.00    +0.249 C 
ATOM      7  O   UNL     1       5.502  -8.649  -3.659  0.00  0.00    -0.270 OA
ATOM      8  C   UNL     1       7.188  -6.379  -4.744  0.00  0.00    +0.055 C 
ATOM      9  C   UNL     1       7.482  -7.717  -4.062  0.00  0.00    +0.004 C 
ATOM     10  C   UNL     1       7.493  -8.832  -5.109  0.00  0.00    +0.000 C 
ATOM     11  C   UNL     1       6.125  -8.903  -5.792  0.00  0.00    +0.004 C 
ATOM     12  C   UNL     1       5.828  -7.568  -6.479  0.00  0.00    +0.055 C 
ENDROOT
BRANCH   1  19
ATOM     13  C   UNL     1       1.585  -2.607  -1.470  0.00  0.00    +0.115 C 
ATOM     14  C   UNL     1       0.651  -2.154  -2.595  0.00  0.00    +0.018 C 
ATOM     15  C   UNL     1       1.302  -2.446  -3.949  0.00  0.00    +0.020 C 
ATOM     16  C   UNL     1       1.528  -3.955  -4.087  0.00  0.00    +0.108 C 
ATOM     17  N   UNL     1       2.304  -4.425  -2.930  0.00  0.00    -0.299 N 
ATOM     18  C   UNL     1       1.815  -4.117  -1.579  0.00  0.00    +0.122 C 
ATOM     19  C   UNL     1       3.443  -5.124  -3.106  0.00  0.00    +0.238 C 
ATOM     20  O   UNL     1       4.122  -5.427  -2.148  0.00  0.00    -0.273 OA
BRANCH  13  21
ATOM     21  C   UNL     1       0.958  -2.289  -0.137  0.00  0.00    +0.312 C 
ATOM     22  O   UNL     1       0.720  -3.178   0.646  0.00  0.00    -0.250 OA
BRANCH  21  23
ATOM     23  O   UNL     1       0.663  -1.018   0.180  0.00  0.00    -0.465 OA
BRANCH  23  25
ATOM     24  C   UNL     1      -0.192   0.706   1.641  0.00  0.00    +0.048 C 
ATOM     25  C   UNL     1       0.070  -0.790   1.460  0.00  0.00    +0.229 C 
ENDBRANCH  23  25
ENDBRANCH  21  23
ENDBRANCH  13  21
ENDBRANCH   1  19
BRANCH   6  26
ATOM     26  C   UNL     1       3.481  -7.912  -2.747  0.00  0.00    +0.037 A 
ATOM     27  C   UNL     1       2.384  -7.062  -2.900  0.00  0.00    +0.013 A 
ATOM     28  C   UNL     1       1.296  -7.189  -2.061  0.00  0.00    +0.004 A 
ATOM     29  C   UNL     1       1.291  -8.154  -1.070  0.00  0.00    -0.050 A 
ATOM     30  C   UNL     1       2.376  -8.999  -0.913  0.00  0.00    +0.004 A 
ATOM     31  C   UNL     1       3.467  -8.887  -1.749  0.00  0.00    +0.013 A 
ATOM     32  C   UNL     1       0.099  -8.286  -0.157  0.00  0.00    +0.044 C 
ENDBRANCH   6  26
TORSDOF 5
