REMARK  Name = ZINC23991393
REMARK  10 active torsions:
REMARK  status: ('A' for Active; 'I' for Inactive)
REMARK    1  A    between atoms: C_1  and  C_2
REMARK    2  A    between atoms: C_2  and  C_3
REMARK    3  A    between atoms: N_9  and  C_10
REMARK    4  A    between atoms: C_10  and  C_11
REMARK    5  A    between atoms: C_15  and  S_22
REMARK    6  A    between atoms: N_19  and  C_20
REMARK    7  A    between atoms: C_20  and  C_21
REMARK    8  A    between atoms: S_22  and  N_25
REMARK    9  A    between atoms: N_25  and  C_26
REMARK   10  A    between atoms: N_25  and  C_27
REMARK                            x       y       z     vdW  Elec       q    Type
REMARK                         _______ _______ _______ _____ _____    ______ ____
ROOT
ATOM      1  C   UNL     1       1.451   1.751  -0.243  0.00  0.00    +0.094 A 
ATOM      2  N   UNL     1       0.241   1.337  -0.002  0.00  0.00    -0.234 NA
ATOM      3  C   UNL     1       0.185  -0.013  -0.137  0.00  0.00    +0.091 A 
ATOM      4  C   UNL     1      -0.839  -0.954   0.003  0.00  0.00    +0.058 A 
ATOM      5  C   UNL     1      -0.578  -2.279  -0.204  0.00  0.00    +0.108 A 
ATOM      6  C   UNL     1       0.696  -2.704  -0.552  0.00  0.00    +0.030 A 
ATOM      7  C   UNL     1       1.722  -1.794  -0.695  0.00  0.00    +0.030 A 
ATOM      8  C   UNL     1       1.476  -0.443  -0.489  0.00  0.00    +0.069 A 
ATOM      9  N   UNL     1       2.254   0.696  -0.548  0.00  0.00    -0.329 N 
ENDROOT
BRANCH   5  10
ATOM     10  S   UNL     1      -1.873  -3.461  -0.027  0.00  0.00    +0.060 S 
ATOM     11  O   UNL     1      -3.093  -2.760  -0.231  0.00  0.00    -0.153 OA
ATOM     12  O   UNL     1      -1.503  -4.589  -0.807  0.00  0.00    -0.153 OA
BRANCH  10  13
ATOM     13  N   UNL     1      -1.871  -3.956   1.554  0.00  0.00    -0.183 NA
ATOM     14  C   UNL     1      -2.680  -3.243   2.546  0.00  0.00    +0.131 C 
ATOM     15  C   UNL     1      -1.060  -5.107   1.959  0.00  0.00    +0.131 C 
ENDBRANCH  10  13
ENDBRANCH   5  10
BRANCH   9  16
ATOM     16  C   UNL     1       3.680   0.757  -0.878  0.00  0.00    +0.120 C 
ATOM     17  C   UNL     1       3.850   0.796  -2.398  0.00  0.00    +0.027 C 
ENDBRANCH   9  16
BRANCH   1  18
ATOM     18  C   UNL     1       1.897   3.189  -0.192  0.00  0.00    -0.003 C 
BRANCH  18  24
ATOM     19  C   UNL     1       2.756   4.916   1.272  0.00  0.00    -0.068 C 
ATOM     20  C   UNL     1       2.926   5.319   2.738  0.00  0.00    -0.015 C 
ATOM     21  C   UNL     1       3.867   4.327   3.428  0.00  0.00    -0.003 C 
ATOM     22  C   UNL     1       3.294   2.914   3.294  0.00  0.00    -0.019 C 
ATOM     23  C   UNL     1       3.113   2.581   1.812  0.00  0.00    -0.078 C 
ATOM     24  N   UNL     1       2.204   3.557   1.197  0.00  0.00    +0.386 N 
ATOM     25  H   UNL     1       1.264   3.545   1.767  0.00  0.00    -0.081 HD
BRANCH  19  27
ATOM     26  C   UNL     1       2.420   7.291   0.574  0.00  0.00    +0.002 C 
ATOM     27  C   UNL     1       1.800   5.893   0.583  0.00  0.00    -0.019 C 
ENDBRANCH  19  27
ENDBRANCH  18  24
ENDBRANCH   1  18
TORSDOF 6
