REMARK  Name = ZINC00681743
REMARK  5 active torsions:
REMARK  status: ('A' for Active; 'I' for Inactive)
REMARK    1  A    between atoms: C_1  and  C_2
REMARK    2  A    between atoms: C_2  and  C_3
REMARK    3  A    between atoms: C_15  and  C_17
REMARK    4  A    between atoms: C_26  and  C_29
REMARK    5  A    between atoms: C_33  and  N_35
REMARK                            x       y       z     vdW  Elec       q    Type
REMARK                         _______ _______ _______ _____ _____    ______ ____
ROOT
ATOM      1  C   UNL     1       1.707  -3.703   2.147  0.00  0.00    +0.220 C 
ATOM      2  O   UNL     1       0.551  -3.922   2.441  0.00  0.00    -0.275 OA
ATOM      3  N   UNL     1       1.998  -2.870   1.129  0.00  0.00    -0.258 N 
ATOM      4  C   UNL     1       3.332  -2.626   0.800  0.00  0.00    +0.058 A 
ATOM      5  C   UNL     1       4.137  -3.616   0.261  0.00  0.00    +0.025 A 
ATOM      6  C   UNL     1       5.418  -3.299  -0.155  0.00  0.00    +0.002 A 
ATOM      7  C   UNL     1       5.894  -2.006  -0.034  0.00  0.00    +0.002 A 
ATOM      8  C   UNL     1       5.100  -1.019   0.525  0.00  0.00    +0.025 A 
ATOM      9  C   UNL     1       3.824  -1.339   0.958  0.00  0.00    +0.053 A 
ATOM     10  N   UNL     1       2.992  -0.410   1.569  0.00  0.00    -0.316 N 
ATOM     11  C   UNL     1       1.821   0.042   1.051  0.00  0.00    +0.017 C 
ATOM     12  C   UNL     1       0.866  -0.740   0.520  0.00  0.00    +0.037 C 
ATOM     13  C   UNL     1       0.921  -2.243   0.391  0.00  0.00    +0.147 C 
ATOM     14  C   UNL     1      -0.321  -0.165   0.007  0.00  0.00    +0.163 C 
ATOM     15  O   UNL     1      -1.181  -0.898  -0.442  0.00  0.00    -0.292 OA
ATOM     16  C   UNL     1      -0.555   1.316  -0.003  0.00  0.00    +0.088 C 
ATOM     17  C   UNL     1       0.803   2.024  -0.072  0.00  0.00    +0.032 C 
ATOM     18  C   UNL     1       1.635   1.548   1.118  0.00  0.00    +0.059 C 
ATOM     19  H   UNL     1       3.268  -0.057   2.429  0.00  0.00    +0.152 HD
ENDROOT
BRANCH  13  20
ATOM     20  C   UNL     1       1.075  -2.592  -1.067  0.00  0.00    -0.022 A 
ATOM     21  C   UNL     1       2.205  -2.197  -1.757  0.00  0.00    +0.006 A 
ATOM     22  C   UNL     1       2.348  -2.522  -3.093  0.00  0.00    +0.000 A 
ATOM     23  C   UNL     1       1.355  -3.232  -3.742  0.00  0.00    +0.000 A 
ATOM     24  C   UNL     1       0.222  -3.622  -3.053  0.00  0.00    +0.000 A 
ATOM     25  C   UNL     1       0.082  -3.303  -1.715  0.00  0.00    +0.006 A 
ENDBRANCH  13  20
BRANCH  17  26
ATOM     26  C   UNL     1       0.606   3.516   0.007  0.00  0.00    -0.041 A 
ATOM     27  C   UNL     1      -0.002   4.076   1.116  0.00  0.00    +0.004 A 
ATOM     28  C   UNL     1      -0.182   5.444   1.188  0.00  0.00    +0.002 A 
ATOM     29  C   UNL     1       0.244   6.253   0.151  0.00  0.00    +0.033 A 
ATOM     30  C   UNL     1       0.851   5.694  -0.958  0.00  0.00    +0.126 A 
ATOM     31  C   UNL     1       1.037   4.325  -1.027  0.00  0.00    +0.036 A 
BRANCH  30  32
ATOM     32  N   UNL     1       1.308   6.560  -2.067  0.00  0.00    +0.056 N 
ATOM     33  O   UNL     1       1.148   7.766  -2.004  0.00  0.00    -0.126 OA
ATOM     34  O   UNL     1       1.843   6.067  -3.044  0.00  0.00    -0.126 OA
ENDBRANCH  30  32
ENDBRANCH  17  26
BRANCH   1  36
ATOM     35  C   UNL     1       2.222  -5.251   4.016  0.00  0.00    +0.013 C 
ATOM     36  C   UNL     1       2.819  -4.362   2.922  0.00  0.00    +0.093 C 
ENDBRANCH   1  36
TORSDOF 4
