REMARK  Name = ZINC33078935
REMARK  3 active torsions:
REMARK  status: ('A' for Active; 'I' for Inactive)
REMARK    1  A    between atoms: C_1  and  C_2
REMARK    2  A    between atoms: C_6  and  C_18
REMARK    3  A    between atoms: C_10  and  C_11
REMARK                            x       y       z     vdW  Elec       q    Type
REMARK                         _______ _______ _______ _____ _____    ______ ____
ROOT
ATOM      1  C   UNL     1       3.707   0.411  -0.467  0.00  0.00    +0.046 C 
ATOM      2  C   UNL     1       2.219   0.638  -0.411  0.00  0.00    -0.019 A 
ATOM      3  C   UNL     1       1.344  -0.454  -0.331  0.00  0.00    +0.051 A 
ATOM      4  C   UNL     1       1.643  -1.849  -0.289  0.00  0.00    +0.133 A 
ATOM      5  N   UNL     1       0.650  -2.719  -0.211  0.00  0.00    -0.217 NA
ATOM      6  C   UNL     1      -0.616  -2.343  -0.172  0.00  0.00    +0.129 A 
ATOM      7  N   UNL     1      -0.957  -1.069  -0.207  0.00  0.00    -0.225 NA
ATOM      8  C   UNL     1      -0.035  -0.133  -0.284  0.00  0.00    +0.114 A 
ATOM      9  S   UNL     1      -0.043   1.640  -0.354  0.00  0.00    -0.064 S 
ATOM     10  C   UNL     1       1.720   1.905  -0.440  0.00  0.00    +0.080 A 
ATOM     11  C   UNL     1      -1.693  -3.393  -0.085  0.00  0.00    +0.088 C 
ATOM     12  N   UNL     1       2.952  -2.284  -0.327  0.00  0.00    -0.315 N 
ATOM     13  C   UNL     1       3.244  -3.196   0.809  0.00  0.00    +0.106 C 
ATOM     14  C   UNL     1       4.500  -3.967   0.331  0.00  0.00    +0.020 C 
ATOM     15  C   UNL     1       4.230  -4.165  -1.179  0.00  0.00    +0.020 C 
ATOM     16  C   UNL     1       3.213  -3.070  -1.552  0.00  0.00    +0.106 C 
ENDROOT
BRANCH  10  17
ATOM     17  C   UNL     1       2.452   3.175  -0.521  0.00  0.00    +0.254 C 
ATOM     18  O   UNL     1       3.667   3.174  -0.574  0.00  0.00    -0.269 OA
ATOM     19  N   UNL     1       1.777   4.341  -0.537  0.00  0.00    -0.297 N 
ATOM     20  C   UNL     1       0.315   4.487  -0.486  0.00  0.00    +0.108 C 
ATOM     21  C   UNL     1       0.002   5.996  -0.553  0.00  0.00    +0.020 C 
ATOM     22  C   UNL     1       1.275   6.584  -1.217  0.00  0.00    +0.020 C 
ATOM     23  C   UNL     1       2.383   5.683  -0.616  0.00  0.00    +0.108 C 
ENDBRANCH  10  17
TORSDOF 1
