REMARK  Name = ZINC46084932
REMARK  5 active torsions:
REMARK  status: ('A' for Active; 'I' for Inactive)
REMARK    1  A    between atoms: C_5  and  O_7
REMARK    2  A    between atoms: O_7  and  C_8
REMARK    3  A    between atoms: C_8  and  C_9
REMARK    4  A    between atoms: C_9  and  N_10
REMARK    5  A    between atoms: N_20  and  O_21
REMARK                            x       y       z     vdW  Elec       q    Type
REMARK                         _______ _______ _______ _____ _____    ______ ____
ROOT
ATOM      1  N   UNL     1       0.856  -4.626   1.220  0.00  0.00    -0.261 N 
ATOM      2  C   UNL     1       2.237  -4.682   1.391  0.00  0.00    +0.065 A 
ATOM      3  C   UNL     1       2.530  -5.105   2.693  0.00  0.00    +0.033 A 
ATOM      4  C   UNL     1       3.849  -5.242   3.110  0.00  0.00    +0.032 A 
ATOM      5  C   UNL     1       4.878  -4.957   2.232  0.00  0.00    +0.043 A 
ATOM      6  C   UNL     1       4.594  -4.538   0.943  0.00  0.00    +0.042 A 
ATOM      7  C   UNL     1       3.285  -4.399   0.521  0.00  0.00    +0.064 A 
ATOM      8 CL   UNL     1       2.949  -3.873  -1.099  0.00  0.00    -0.082 Cl
ATOM      9 CL   UNL     1       6.528  -5.125   2.746  0.00  0.00    -0.083 Cl
ATOM     10  C   UNL     1       1.226  -5.324   3.366  0.00  0.00    +0.173 C 
ATOM     11  N   UNL     1       1.021  -5.721   4.589  0.00  0.00    -0.082 NA
ATOM     12  C   UNL     1       0.206  -4.984   2.341  0.00  0.00    +0.273 C 
ATOM     13  O   UNL     1      -0.999  -5.026   2.488  0.00  0.00    -0.268 OA
ENDROOT
BRANCH  11  14
ATOM     14  O   UNL     1      -0.301  -5.877   5.070  0.00  0.00    -0.409 OA
ATOM     15  H   UNL     1      -0.353  -6.176   5.989  0.00  0.00    +0.328 HD
ENDBRANCH  11  14
BRANCH   1  16
ATOM     16  C   UNL     1       0.195  -4.221  -0.023  0.00  0.00    +0.155 C 
BRANCH  16  17
ATOM     17  C   UNL     1      -0.029  -2.708  -0.012  0.00  0.00    +0.248 C 
BRANCH  17  18
ATOM     18  O   UNL     1       1.234  -2.039  -0.021  0.00  0.00    -0.489 OA
BRANCH  18  23
ATOM     19  C   UNL     1      -0.017   1.377   0.010  0.00  0.00    +0.004 A 
ATOM     20  C   UNL     1       1.170   2.087   0.002  0.00  0.00    +0.002 A 
ATOM     21  C   UNL     1       2.379   1.416  -0.013  0.00  0.00    +0.023 A 
ATOM     22  C   UNL     1       2.404   0.034  -0.021  0.00  0.00    +0.083 A 
ATOM     23  C   UNL     1       1.213  -0.680  -0.013  0.00  0.00    +0.139 A 
ATOM     24  C   UNL     1       0.002  -0.004   0.002  0.00  0.00    +0.047 A 
ATOM     25 CL   UNL     1       3.922  -0.809  -0.041  0.00  0.00    -0.080 Cl
ENDBRANCH  18  23
ENDBRANCH  17  18
ENDBRANCH  16  17
ENDBRANCH   1  16
TORSDOF 5
