REMARK  Name = ZINC05817606
REMARK  5 active torsions:
REMARK  status: ('A' for Active; 'I' for Inactive)
REMARK    1  A    between atoms: C_1  and  C_2
REMARK    2  A    between atoms: C_2  and  N_3
REMARK    3  A    between atoms: C_14  and  C_25
REMARK    4  A    between atoms: C_20  and  N_24
REMARK    5  A    between atoms: C_21  and  C_22
REMARK                            x       y       z     vdW  Elec       q    Type
REMARK                         _______ _______ _______ _____ _____    ______ ____
ROOT
ATOM      1  N   UNL     1       0.688  -0.476  -1.203  0.00  0.00    -0.270 N 
ATOM      2  C   UNL     1       0.052  -0.731  -2.406  0.00  0.00    +0.041 A 
ATOM      3  C   UNL     1      -1.299  -0.609  -2.737  0.00  0.00    +0.024 A 
ATOM      4  C   UNL     1      -1.666  -0.935  -4.033  0.00  0.00    +0.002 A 
ATOM      5  C   UNL     1      -0.745  -1.364  -4.967  0.00  0.00    +0.000 A 
ATOM      6  C   UNL     1       0.603  -1.491  -4.650  0.00  0.00    +0.007 A 
ATOM      7  C   UNL     1       0.976  -1.168  -3.363  0.00  0.00    -0.001 A 
ATOM      8  C   UNL     1       2.306  -1.185  -2.680  0.00  0.00    +0.145 C 
ATOM      9  C   UNL     1       2.015  -0.709  -1.274  0.00  0.00    +0.240 C 
ATOM     10  O   UNL     1       2.822  -0.566  -0.379  0.00  0.00    -0.274 OA
ATOM     11  C   UNL     1       3.279  -0.257  -3.350  0.00  0.00    +0.061 A 
ATOM     12  C   UNL     1       3.286   1.082  -3.422  0.00  0.00    +0.042 A 
ATOM     13  N   UNL     1       4.374   1.450  -4.138  0.00  0.00    -0.278 N 
ATOM     14  H   UNL     1       4.634   2.360  -4.351  0.00  0.00    +0.189 HD
ATOM     15  N   UNL     1       5.059   0.286  -4.520  0.00  0.00    -0.135 NA
ATOM     16  C   UNL     1       4.409  -0.739  -4.051  0.00  0.00    +0.245 A 
ATOM     17  O   UNL     1       4.677  -2.068  -4.157  0.00  0.00    -0.421 OA
ATOM     18  C   UNL     1       3.990  -2.912  -3.362  0.00  0.00    +0.201 C 
ATOM     19  C   UNL     1       2.890  -2.571  -2.655  0.00  0.00    +0.110 C 
ATOM     20  C   UNL     1       2.266   2.010  -2.815  0.00  0.00    +0.065 C 
ENDROOT
BRANCH  18  21
ATOM     21  N   UNL     1       4.436  -4.207  -3.267  0.00  0.00    -0.328 N 
ATOM     22  H   UNL     1       5.222  -4.487  -3.761  0.00  0.00    +0.145 HD
ATOM     23  H   UNL     1       3.966  -4.841  -2.704  0.00  0.00    +0.145 HD
ENDBRANCH  18  21
BRANCH   1  25
ATOM     24  C   UNL     1      -0.019   1.526   0.010  0.00  0.00    +0.025 C 
ATOM     25  C   UNL     1       0.002  -0.004   0.002  0.00  0.00    +0.110 C 
ENDBRANCH   1  25
BRANCH  19  26
ATOM     26  C   UNL     1       2.256  -3.568  -1.847  0.00  0.00    +0.102 C 
ATOM     27  N   UNL     1       1.753  -4.360  -1.206  0.00  0.00    -0.191 NA
ENDBRANCH  19  26
TORSDOF 3
