REMARK  Name = ZINC51840234
REMARK  3 active torsions:
REMARK  status: ('A' for Active; 'I' for Inactive)
REMARK    1  A    between atoms: C_11  and  C_13
REMARK    2  A    between atoms: C_19  and  C_21
REMARK    3  A    between atoms: N_23  and  C_24
REMARK                            x       y       z     vdW  Elec       q    Type
REMARK                         _______ _______ _______ _____ _____    ______ ____
ROOT
ATOM      1  C   UNL     1       4.636  -5.732  -0.075  0.00  0.00    +0.302 C 
ATOM      2  O   UNL     1       3.782  -6.580   0.085  0.00  0.00    -0.265 OA
ATOM      3  N   UNL     1       5.930  -6.092  -0.192  0.00  0.00    -0.293 N 
ATOM      4  C   UNL     1       6.992  -5.078  -0.191  0.00  0.00    +0.108 C 
ATOM      5  C   UNL     1       8.021  -5.441   0.884  0.00  0.00    +0.020 C 
ATOM      6  C   UNL     1       8.516  -6.870   0.648  0.00  0.00    +0.016 C 
ATOM      7  C   UNL     1       7.340  -7.844   0.756  0.00  0.00    +0.092 C 
ATOM      8  C   UNL     1       6.304  -7.508  -0.315  0.00  0.00    +0.121 C 
ENDROOT
BRANCH   1  19
ATOM      9  C   UNL     1       0.014   1.380   0.216  0.00  0.00    +0.002 A 
ATOM     10  C   UNL     1       1.148   2.104  -0.124  0.00  0.00    +0.001 A 
ATOM     11  C   UNL     1       2.342   1.436  -0.326  0.00  0.00    +0.017 A 
ATOM     12  C   UNL     1       2.387   0.071  -0.188  0.00  0.00    +0.041 A 
ATOM     13  C   UNL     1       1.252  -0.699   0.157  0.00  0.00    +0.080 A 
ATOM     14  C   UNL     1       0.049   0.018   0.356  0.00  0.00    +0.029 A 
ATOM     15  N   UNL     1       1.456  -2.030   0.255  0.00  0.00    -0.225 NA
ATOM     16  C   UNL     1       2.629  -2.581   0.045  0.00  0.00    +0.166 A 
ATOM     17  S   UNL     1       3.651  -1.168  -0.344  0.00  0.00    -0.052 S 
ATOM     18  N   UNL     1       2.983  -3.917   0.108  0.00  0.00    -0.257 N 
ATOM     19  C   UNL     1       4.254  -4.290  -0.144  0.00  0.00    +0.305 C 
ATOM     20  O   UNL     1       5.087  -3.454  -0.426  0.00  0.00    -0.265 OA
ATOM     21  H   UNL     1       2.317  -4.585   0.334  0.00  0.00    +0.157 HD
ENDBRANCH   1  19
BRANCH   7  22
ATOM     22  C   UNL     1       7.835  -9.253   0.555  0.00  0.00    +0.218 C 
ATOM     23  O   UNL     1       9.011  -9.459   0.347  0.00  0.00    -0.275 OA
ATOM     24  N   UNL     1       6.969 -10.285   0.608  0.00  0.00    -0.312 N 
ATOM     25  H   UNL     1       6.027 -10.120   0.774  0.00  0.00    +0.149 HD
BRANCH  24  26
ATOM     26  C   UNL     1       7.449 -11.655   0.413  0.00  0.00    +0.073 C 
ATOM     27  C   UNL     1       6.617 -12.575  -0.483  0.00  0.00    +0.024 C 
ATOM     28  C   UNL     1       6.627 -12.787   1.033  0.00  0.00    +0.024 C 
ENDBRANCH  24  26
ENDBRANCH   7  22
TORSDOF 3
