REMARK  Name = ZINC33118216
REMARK  5 active torsions:
REMARK  status: ('A' for Active; 'I' for Inactive)
REMARK    1  A    between atoms: C_1  and  C_2
REMARK    2  A    between atoms: C_5  and  C_7
REMARK    3  A    between atoms: N_9  and  C_10
REMARK    4  A    between atoms: C_10  and  C_12
REMARK    5  A    between atoms: C_10  and  C_13
REMARK                            x       y       z     vdW  Elec       q    Type
REMARK                         _______ _______ _______ _____ _____    ______ ____
ROOT
ATOM      1  C   UNL     1      -1.290   1.681   0.017  0.00  0.00    +0.100 C 
ATOM      2  C   UNL     1      -1.680   2.047  -1.416  0.00  0.00    +0.033 C 
ENDROOT
BRANCH   1   3
ATOM      3  C   UNL     1      -2.354   0.799   0.618  0.00  0.00    -0.025 A 
ATOM      4  C   UNL     1      -2.382  -0.550   0.317  0.00  0.00    +0.009 A 
ATOM      5  C   UNL     1      -3.355  -1.366   0.864  0.00  0.00    +0.048 A 
ATOM      6  C   UNL     1      -4.304  -0.831   1.717  0.00  0.00    +0.142 A 
ATOM      7  C   UNL     1      -4.276   0.529   2.021  0.00  0.00    +0.076 A 
ATOM      8  C   UNL     1      -3.296   1.341   1.474  0.00  0.00    +0.032 A 
ATOM      9  N   UNL     1      -5.245   1.059   2.885  0.00  0.00    -0.280 N 
ATOM     10  C   UNL     1      -5.976   0.215   3.645  0.00  0.00    +0.255 C 
ATOM     11  O   UNL     1      -6.839   0.649   4.378  0.00  0.00    -0.272 OA
ATOM     12  C   UNL     1      -5.713  -1.268   3.579  0.00  0.00    +0.325 C 
ATOM     13  O   UNL     1      -5.267  -1.619   2.267  0.00  0.00    -0.481 OA
ATOM     14  H   UNL     1      -5.399   2.147   2.937  0.00  0.00    +0.155 HD
ENDBRANCH   1   3
BRANCH   1  17
ATOM     15  C   UNL     1       1.147   1.655   0.000  0.00  0.00    +0.251 C 
ATOM     16  O   UNL     1       1.130   2.872   0.007  0.00  0.00    -0.270 OA
ATOM     17  N   UNL     1      -0.011   0.966   0.007  0.00  0.00    -0.304 N 
ATOM     18  H   UNL     1       0.004  -0.134   0.006  0.00  0.00    +0.150 HD
BRANCH  15  23
ATOM     19  C   UNL     1       5.425  -1.942  -0.058  0.00  0.00    +0.051 C 
ATOM     20  C   UNL     1       4.464  -0.781  -0.043  0.00  0.00    -0.013 A 
ATOM     21  C   UNL     1       4.747   0.548  -0.040  0.00  0.00    +0.011 A 
ATOM     22  C   UNL     1       3.714   1.453  -0.026  0.00  0.00    +0.021 A 
ATOM     23  C   UNL     1       2.426   0.940  -0.016  0.00  0.00    +0.074 A 
ATOM     24  S   UNL     1       2.731  -0.818  -0.021  0.00  0.00    -0.089 S 
ENDBRANCH  15  23
ENDBRANCH   1  17
TORSDOF 3
