REMARK  Name = ZINC05123508
REMARK  4 active torsions:
REMARK  status: ('A' for Active; 'I' for Inactive)
REMARK    1  A    between atoms: C_1  and  C_2
REMARK    2  A    between atoms: C_5  and  N_8
REMARK    3  A    between atoms: C_10  and  N_15
REMARK    4  A    between atoms: N_18  and  C_19
REMARK                            x       y       z     vdW  Elec       q    Type
REMARK                         _______ _______ _______ _____ _____    ______ ____
ROOT
ATOM      1  N   UNL     1      -0.691   1.585   1.183  0.00  0.00    -0.270 N 
ATOM      2  C   UNL     1       0.024   1.092  -0.001  0.00  0.00    +0.136 C 
ATOM      3  C   UNL     1      -0.772   1.621  -1.215  0.00  0.00    +0.101 C 
ATOM      4  C   UNL     1      -2.186   1.795  -0.613  0.00  0.00    +0.120 C 
ATOM      5  C   UNL     1      -1.938   1.981   0.868  0.00  0.00    +0.222 C 
ATOM      6  O   UNL     1      -2.746   2.422   1.657  0.00  0.00    -0.275 OA
ENDROOT
BRANCH   1  11
ATOM      7  C   UNL     1       1.522   1.791   6.402  0.00  0.00    +0.044 C 
ATOM      8  C   UNL     1       0.934   1.736   5.016  0.00  0.00    -0.050 A 
ATOM      9  C   UNL     1      -0.361   2.168   4.798  0.00  0.00    +0.005 A 
ATOM     10  C   UNL     1      -0.903   2.119   3.528  0.00  0.00    +0.024 A 
ATOM     11  C   UNL     1      -0.145   1.635   2.470  0.00  0.00    +0.036 A 
ATOM     12  C   UNL     1       1.153   1.197   2.693  0.00  0.00    +0.024 A 
ATOM     13  C   UNL     1       1.691   1.253   3.964  0.00  0.00    +0.005 A 
ENDBRANCH   1  11
BRANCH   3  14
ATOM     14  N   UNL     1      -0.783   0.639  -2.303  0.00  0.00    -0.294 N 
ATOM     15  C   UNL     1      -0.956   1.046  -3.576  0.00  0.00    +0.304 C 
ATOM     16  O   UNL     1      -1.104   2.227  -3.822  0.00  0.00    -0.252 OA
ATOM     17  N   UNL     1      -0.966   0.143  -4.576  0.00  0.00    -0.267 N 
ATOM     18  H   UNL     1      -0.665  -0.303  -2.106  0.00  0.00    +0.151 HD
ATOM     19  H   UNL     1      -0.784  -0.791  -4.388  0.00  0.00    +0.156 HD
BRANCH  17  20
ATOM     20  C   UNL     1      -1.239   0.553  -5.887  0.00  0.00    +0.070 A 
ATOM     21  C   UNL     1      -0.812   1.797  -6.330  0.00  0.00    +0.026 A 
ATOM     22  C   UNL     1      -1.082   2.199  -7.624  0.00  0.00    +0.002 A 
ATOM     23  C   UNL     1      -1.778   1.364  -8.479  0.00  0.00    +0.003 A 
ATOM     24  C   UNL     1      -2.205   0.123  -8.042  0.00  0.00    +0.040 A 
ATOM     25  C   UNL     1      -1.934  -0.287  -6.750  0.00  0.00    +0.145 A 
ATOM     26  F   UNL     1      -2.347  -1.502  -6.325  0.00  0.00    -0.204 F 
ENDBRANCH  17  20
ENDBRANCH   3  14
TORSDOF 3
