REMARK  Name = ZINC48538255
REMARK  11 active torsions:
REMARK  status: ('A' for Active; 'I' for Inactive)
REMARK    1  A    between atoms: C_1  and  C_2
REMARK    2  A    between atoms: N_5  and  C_11
REMARK    3  A    between atoms: C_7  and  C_10
REMARK    4  A    between atoms: C_14  and  N_18
REMARK    5  A    between atoms: N_21  and  C_22
REMARK    6  A    between atoms: N_21  and  C_23
REMARK    7  A    between atoms: C_23  and  C_24
REMARK    8  A    between atoms: N_26  and  C_27
REMARK    9  A    between atoms: C_27  and  C_28
REMARK   10  A    between atoms: C_27  and  C_29
REMARK   11  A    between atoms: C_27  and  C_30
REMARK                            x       y       z     vdW  Elec       q    Type
REMARK                         _______ _______ _______ _____ _____    ______ ____
ROOT
ATOM      1  C   UNL     1      -2.114  -2.833  -0.662  0.00  0.00    +0.066 A 
ATOM      2  C   UNL     1      -1.500  -3.326  -1.805  0.00  0.00    +0.028 A 
ATOM      3  C   UNL     1      -2.191  -4.175  -2.648  0.00  0.00    +0.025 A 
ATOM      4  C   UNL     1      -3.498  -4.536  -2.353  0.00  0.00    +0.038 A 
ATOM      5  C   UNL     1      -4.114  -4.043  -1.210  0.00  0.00    +0.063 A 
ATOM      6  C   UNL     1      -3.422  -3.199  -0.362  0.00  0.00    +0.146 A 
ATOM      7  F   UNL     1      -4.018  -2.724   0.753  0.00  0.00    -0.203 F 
ENDROOT
BRANCH   1  11
ATOM      8  C   UNL     1      -0.049   1.551  -0.004  0.00  0.00    +0.039 C 
ATOM      9  C   UNL     1      -0.026   0.021  -0.004  0.00  0.00    +0.133 C 
ATOM     10  C   UNL     1      -1.462  -0.513   0.004  0.00  0.00    +0.136 C 
ATOM     11  N   UNL     1      -1.415  -1.972   0.193  0.00  0.00    -0.323 N 
ATOM     12  C   UNL     1      -0.609  -2.499   1.306  0.00  0.00    +0.136 C 
ATOM     13  C   UNL     1       0.786  -1.868   1.235  0.00  0.00    +0.133 C 
ATOM     14  O   UNL     1       0.658  -0.446   1.162  0.00  0.00    -0.371 OA
ATOM     15  C   UNL     1       1.583  -2.247   2.485  0.00  0.00    +0.039 C 
ENDBRANCH   1  11
BRANCH   4  16
ATOM     16  N   UNL     1      -4.198  -5.397  -3.210  0.00  0.00    -0.269 N 
ATOM     17  C   UNL     1      -5.074  -6.287  -2.703  0.00  0.00    +0.307 C 
ATOM     18  O   UNL     1      -5.320  -6.287  -1.512  0.00  0.00    -0.252 OA
ATOM     19  N   UNL     1      -5.677  -7.177  -3.516  0.00  0.00    -0.280 N 
ATOM     20  C   UNL     1      -5.381  -7.177  -4.951  0.00  0.00    +0.134 C 
ATOM     21  H   UNL     1      -4.051  -5.352  -4.168  0.00  0.00    +0.156 HD
BRANCH  19  22
ATOM     22  C   UNL     1      -6.629  -8.144  -2.965  0.00  0.00    +0.204 C 
BRANCH  22  23
ATOM     23  C   UNL     1      -8.017  -7.556  -2.995  0.00  0.00    +0.231 C 
ATOM     24  O   UNL     1      -8.193  -6.440  -3.433  0.00  0.00    -0.274 OA
ATOM     25  N   UNL     1      -9.062  -8.272  -2.534  0.00  0.00    -0.309 N 
ATOM     26  H   UNL     1      -8.921  -9.165  -2.184  0.00  0.00    +0.149 HD
BRANCH  25  27
ATOM     27  C   UNL     1     -10.411  -7.701  -2.564  0.00  0.00    +0.026 C 
ATOM     28  C   UNL     1     -10.794  -7.373  -4.008  0.00  0.00    +0.031 C 
ATOM     29  C   UNL     1     -11.405  -8.711  -1.988  0.00  0.00    +0.031 C 
ATOM     30  C   UNL     1     -10.441  -6.421  -1.725  0.00  0.00    +0.031 C 
ENDBRANCH  25  27
ENDBRANCH  22  23
ENDBRANCH  19  22
ENDBRANCH   4  16
TORSDOF 5
