REMARK  Name = ZINC21690241
REMARK  5 active torsions:
REMARK  status: ('A' for Active; 'I' for Inactive)
REMARK    1  A    between atoms: C_10  and  N_11
REMARK    2  A    between atoms: C_12  and  C_14
REMARK    3  A    between atoms: C_14  and  C_15
REMARK    4  A    between atoms: C_15  and  C_16
REMARK    5  A    between atoms: C_22  and  C_24
REMARK                            x       y       z     vdW  Elec       q    Type
REMARK                         _______ _______ _______ _____ _____    ______ ____
ROOT
ATOM      1  C   UNL     1       4.644   0.899  -0.053  0.00  0.00    +0.051 A 
ATOM      2  C   UNL     1       4.452  -0.443  -0.061  0.00  0.00    +0.071 A 
ATOM      3  S   UNL     1       2.667  -0.523  -0.052  0.00  0.00    -0.060 S 
ATOM      4  C   UNL     1       2.364   1.187  -0.038  0.00  0.00    +0.165 A 
ATOM      5  N   UNL     1       3.585   1.685  -0.047  0.00  0.00    -0.230 NA
ATOM      6  N   UNL     1       1.148   1.858  -0.026  0.00  0.00    -0.261 N 
ATOM      7  C   UNL     1      -0.006   1.161  -0.024  0.00  0.00    +0.251 C 
ATOM      8  O   UNL     1       0.018  -0.055  -0.033  0.00  0.00    -0.270 OA
ATOM      9  H   UNL     1       1.126   2.958  -0.019  0.00  0.00    +0.157 HD
ENDROOT
BRANCH   7  10
ATOM     10  C   UNL     1      -1.297   1.873  -0.018  0.00  0.00    +0.053 A 
ATOM     11  C   UNL     1      -1.331   3.289  -0.009  0.00  0.00    +0.020 A 
ATOM     12  C   UNL     1      -2.536   3.919  -0.003  0.00  0.00    +0.071 A 
ATOM     13  C   UNL     1      -3.718   3.155  -0.007  0.00  0.00    +0.249 A 
ATOM     14  O   UNL     1      -4.801   3.716  -0.002  0.00  0.00    -0.268 OA
ATOM     15  N   UNL     1      -3.663   1.811  -0.016  0.00  0.00    -0.328 N 
ATOM     16  H   UNL     1      -4.592   1.222  -0.014  0.00  0.00    +0.168 HD
ATOM     17  C   UNL     1      -2.482   1.165  -0.027  0.00  0.00    +0.099 A 
ENDBRANCH   7  10
BRANCH   1  18
ATOM     18  C   UNL     1       6.035   1.479  -0.057  0.00  0.00    +0.065 C 
BRANCH  18  19
ATOM     19  C   UNL     1       6.180   2.447  -1.232  0.00  0.00    +0.102 C 
BRANCH  19  21
ATOM     20  N   UNL     1       7.930   3.911  -2.188  0.00  0.00    -0.285 N 
ATOM     21  C   UNL     1       7.571   3.027  -1.236  0.00  0.00    +0.218 C 
ATOM     22  O   UNL     1       8.368   2.699  -0.383  0.00  0.00    -0.275 OA
ATOM     23  H   UNL     1       7.234   4.153  -3.005  0.00  0.00    +0.155 HD
BRANCH  20  33
ATOM     24  C   UNL     1       9.718   8.471  -3.407  0.00  0.00    +0.001 A 
ATOM     25  C   UNL     1       8.457   7.883  -3.466  0.00  0.00    +0.001 A 
ATOM     26  C   UNL     1       8.263   6.598  -3.058  0.00  0.00    +0.010 A 
ATOM     27  C   UNL     1       9.349   5.852  -2.575  0.00  0.00    +0.003 A 
ATOM     28  C   UNL     1      10.632   6.451  -2.510  0.00  0.00    -0.016 A 
ATOM     29  C   UNL     1      10.793   7.779  -2.940  0.00  0.00    +0.008 A 
ATOM     30  C   UNL     1      11.719   5.706  -2.022  0.00  0.00    +0.008 A 
ATOM     31  C   UNL     1      11.533   4.421  -1.612  0.00  0.00    +0.002 A 
ATOM     32  C   UNL     1      10.278   3.824  -1.666  0.00  0.00    +0.024 A 
ATOM     33  C   UNL     1       9.186   4.520  -2.138  0.00  0.00    +0.041 A 
ENDBRANCH  20  33
ENDBRANCH  19  21
ENDBRANCH  18  19
ENDBRANCH   1  18
TORSDOF 5
