REMARK  Name = ZINC01973029
REMARK  8 active torsions:
REMARK  status: ('A' for Active; 'I' for Inactive)
REMARK    1  A    between atoms: C_1  and  C_2
REMARK    2  A    between atoms: C_15  and  S_17
REMARK    3  A    between atoms: S_17  and  C_18
REMARK    4  A    between atoms: C_18  and  C_20
REMARK    5  A    between atoms: C_18  and  C_21
REMARK    6  A    between atoms: C_21  and  O_23
REMARK    7  A    between atoms: O_23  and  C_24
REMARK    8  A    between atoms: C_24  and  C_25
REMARK                            x       y       z     vdW  Elec       q    Type
REMARK                         _______ _______ _______ _____ _____    ______ ____
ROOT
ATOM      1  C   UNL     1       3.546   2.092  -1.323  0.00  0.00    +0.008 C 
ATOM      2  C   UNL     1       2.193   1.397  -1.158  0.00  0.00    -0.009 C 
ATOM      3  C   UNL     1       1.421   2.037  -0.001  0.00  0.00    +0.008 C 
ATOM      4  C   UNL     1      -0.019   1.522   0.010  0.00  0.00    +0.037 C 
ATOM      5  C   UNL     1       0.002  -0.004   0.002  0.00  0.00    -0.023 A 
ATOM      6  C   UNL     1       1.111  -0.674  -0.385  0.00  0.00    -0.004 A 
ATOM      7  S   UNL     1       0.691  -2.393  -0.240  0.00  0.00    -0.073 S 
ATOM      8  C   UNL     1      -0.967  -2.211   0.338  0.00  0.00    +0.117 A 
ATOM      9  C   UNL     1      -1.141  -0.809   0.399  0.00  0.00    +0.075 A 
ATOM     10  C   UNL     1      -2.416  -0.327   0.843  0.00  0.00    +0.261 A 
ATOM     11  O   UNL     1      -2.662   0.864   0.930  0.00  0.00    -0.267 OA
ATOM     12  N   UNL     1      -3.329  -1.275   1.159  0.00  0.00    -0.301 N 
ATOM     13  H   UNL     1      -4.232  -0.982   1.473  0.00  0.00    +0.171 HD
ATOM     14  C   UNL     1      -3.073  -2.610   1.070  0.00  0.00    +0.171 A 
ATOM     15  N   UNL     1      -1.906  -3.090   0.664  0.00  0.00    -0.216 NA
ATOM     16  C   UNL     1       2.413  -0.088  -0.839  0.00  0.00    +0.046 C 
ENDROOT
BRANCH  14  17
ATOM     17  S   UNL     1      -4.346  -3.745   1.512  0.00  0.00    -0.073 S 
BRANCH  17  18
ATOM     18  C   UNL     1      -3.489  -5.311   1.212  0.00  0.00    +0.160 C 
ATOM     19  C   UNL     1      -3.179  -5.445  -0.280  0.00  0.00    +0.031 C 
BRANCH  18  20
ATOM     20  C   UNL     1      -4.367  -6.455   1.648  0.00  0.00    +0.321 C 
ATOM     21  O   UNL     1      -5.567  -6.318   1.681  0.00  0.00    -0.250 OA
BRANCH  20  22
ATOM     22  O   UNL     1      -3.816  -7.628   1.999  0.00  0.00    -0.459 OA
BRANCH  22  23
ATOM     23  C   UNL     1      -4.722  -8.686   2.408  0.00  0.00    +0.267 C 
BRANCH  23  24
ATOM     24  C   UNL     1      -3.929  -9.917   2.763  0.00  0.00    -0.010 A 
ATOM     25  C   UNL     1      -3.644 -10.860   1.793  0.00  0.00    +0.007 A 
ATOM     26  C   UNL     1      -2.912 -11.986   2.118  0.00  0.00    +0.000 A 
ATOM     27  C   UNL     1      -2.475 -12.176   3.415  0.00  0.00    +0.000 A 
ATOM     28  C   UNL     1      -2.764 -11.236   4.387  0.00  0.00    +0.000 A 
ATOM     29  C   UNL     1      -3.491 -10.107   4.061  0.00  0.00    +0.007 A 
ENDBRANCH  23  24
ENDBRANCH  22  23
ENDBRANCH  20  22
ENDBRANCH  18  20
ENDBRANCH  17  18
ENDBRANCH  14  17
TORSDOF 6
