REMARK  Name = ZINC08737551
REMARK  2 active torsions:
REMARK  status: ('A' for Active; 'I' for Inactive)
REMARK    1  A    between atoms: C_1  and  C_2
REMARK    2  A    between atoms: C_8  and  N_10
REMARK                            x       y       z     vdW  Elec       q    Type
REMARK                         _______ _______ _______ _____ _____    ______ ____
ROOT
ATOM      1  N   UNL     1       2.886  -0.467   2.418  0.00  0.00    -0.294 N 
ATOM      2  C   UNL     1       4.011  -1.240   2.268  0.00  0.00    +0.029 A 
ATOM      3  C   UNL     1       4.661  -1.684   3.362  0.00  0.00    +0.003 A 
ATOM      4  C   UNL     1       4.166  -1.342   4.644  0.00  0.00    +0.093 A 
ATOM      5  S   UNL     1       4.969  -1.891   6.053  0.00  0.00    -0.032 S 
ATOM      6  N   UNL     1       3.058  -0.582   4.748  0.00  0.00    -0.301 N 
ATOM      7  H   UNL     1       2.715  -0.345   5.624  0.00  0.00    +0.171 HD
ATOM      8  C   UNL     1       2.430  -0.145   3.641  0.00  0.00    +0.328 A 
ATOM      9  O   UNL     1       1.435   0.544   3.748  0.00  0.00    -0.247 OA
ATOM     10  C   UNL     1       5.863  -2.510   2.962  0.00  0.00    +0.040 C 
ATOM     11  C   UNL     1       5.623  -2.874   1.480  0.00  0.00    +0.011 C 
ATOM     12  C   UNL     1       4.709  -1.720   1.013  0.00  0.00    +0.054 C 
ENDROOT
BRANCH   1  19
ATOM     13  C   UNL     1       0.763  -2.041   1.233  0.00  0.00    +0.009 C 
ATOM     14  C   UNL     1       0.742  -0.511   1.242  0.00  0.00    +0.009 C 
ATOM     15  C   UNL     1       0.002  -0.004   0.002  0.00  0.00    +0.005 C 
ATOM     16  C   UNL     1      -0.019   1.526   0.010  0.00  0.00    +0.000 C 
ATOM     17  C   UNL     1       1.417   2.055  -0.000  0.00  0.00    +0.002 C 
ATOM     18  C   UNL     1       2.157   1.548   1.239  0.00  0.00    +0.025 C 
ATOM     19  C   UNL     1       2.178   0.019   1.231  0.00  0.00    +0.095 C 
ENDBRANCH   1  19
TORSDOF 1
