REMARK  Name = ZINC15449353
REMARK  10 active torsions:
REMARK  status: ('A' for Active; 'I' for Inactive)
REMARK    1  A    between atoms: C_1  and  C_2
REMARK    2  A    between atoms: C_17  and  C_35
REMARK    3  A    between atoms: C_19  and  O_33
REMARK    4  A    between atoms: C_22  and  C_32
REMARK    5  A    between atoms: C_23  and  C_24
REMARK    6  A    between atoms: C_23  and  O_31
REMARK    7  A    between atoms: C_24  and  C_26
REMARK    8  A    between atoms: C_26  and  O_27
REMARK    9  A    between atoms: O_27  and  C_28
REMARK   10  A    between atoms: C_28  and  C_30
REMARK                            x       y       z     vdW  Elec       q    Type
REMARK                         _______ _______ _______ _____ _____    ______ ____
ROOT
ATOM      1  C   UNL     1       6.370   3.944  -2.447  0.00  0.00    +0.011 C 
ATOM      2  C   UNL     1       5.386   4.924  -1.805  0.00  0.00    +0.026 C 
ATOM      3  C   UNL     1       4.002   4.261  -1.664  0.00  0.00    +0.011 C 
ATOM      4  C   UNL     1       3.917   3.834  -0.190  0.00  0.00    +0.005 C 
ATOM      5  C   UNL     1       2.509   3.617   0.270  0.00  0.00    +0.034 C 
ATOM      6  C   UNL     1       2.440   2.555   1.368  0.00  0.00    +0.011 C 
ATOM      7  C   UNL     1       1.006   2.014   1.380  0.00  0.00    +0.032 C 
ATOM      8  C   UNL     1       0.048   3.161   1.550  0.00  0.00    -0.053 C 
ATOM      9  C   UNL     1      -1.218   2.876   1.923  0.00  0.00    +0.051 C 
ATOM     10  C   UNL     1      -2.130   4.045   2.035  0.00  0.00    +0.179 C 
ATOM     11  O   UNL     1      -2.952   4.152   2.926  0.00  0.00    -0.288 OA
ATOM     12  C   UNL     1      -1.962   5.077   0.983  0.00  0.00    +0.047 C 
ATOM     13  C   UNL     1      -0.692   5.333   0.618  0.00  0.00    -0.009 C 
ATOM     14  C   UNL     1       0.415   4.587   1.321  0.00  0.00    +0.044 C 
ATOM     15  C   UNL     1       1.747   4.854   0.668  0.00  0.00    +0.153 C 
ATOM     16  C   UNL     1       2.603   5.747   1.572  0.00  0.00    +0.154 C 
ATOM     17  C   UNL     1       3.869   6.134   0.843  0.00  0.00    +0.044 C 
ATOM     18  C   UNL     1       4.715   4.888   0.576  0.00  0.00    +0.010 C 
ATOM     19  C   UNL     1       5.855   5.292  -0.388  0.00  0.00    +0.135 C 
ATOM     20  C   UNL     1       5.278   4.308   1.875  0.00  0.00    +0.015 C 
ATOM     21  F   UNL     1       1.500   5.583  -0.500  0.00  0.00    -0.238 F 
ATOM     22  C   UNL     1       0.517   5.220   2.710  0.00  0.00    +0.023 C 
ENDROOT
BRANCH  19  23
ATOM     23  C   UNL     1       7.112   4.534  -0.047  0.00  0.00    +0.202 C 
ATOM     24  O   UNL     1       7.040   3.413   0.395  0.00  0.00    -0.291 OA
BRANCH  23  25
ATOM     25  C   UNL     1       8.459   5.176  -0.258  0.00  0.00    +0.309 C 
BRANCH  25  26
ATOM     26  O   UNL     1       9.504   4.250   0.142  0.00  0.00    -0.457 OA
BRANCH  26  27
ATOM     27  C   UNL     1      10.772   4.671   0.016  0.00  0.00    +0.304 C 
ATOM     28  O   UNL     1      11.002   5.776  -0.415  0.00  0.00    -0.251 OA
ATOM     29  C   UNL     1      11.910   3.765   0.411  0.00  0.00    +0.136 C 
ENDBRANCH  26  27
ENDBRANCH  25  26
ENDBRANCH  23  25
ENDBRANCH  19  23
BRANCH  19  30
ATOM     30  O   UNL     1       6.094   6.699  -0.301  0.00  0.00    -0.380 OA
ATOM     31  H   UNL     1       6.785   7.017  -0.898  0.00  0.00    +0.211 HD
ENDBRANCH  19  30
BRANCH  16  32
ATOM     32  O   UNL     1       2.962   5.029   2.754  0.00  0.00    -0.389 OA
ATOM     33  H   UNL     1       3.495   5.540   3.378  0.00  0.00    +0.210 HD
ENDBRANCH  16  32
TORSDOF 6
