REMARK  Name = ZINC18144600
REMARK  5 active torsions:
REMARK  status: ('A' for Active; 'I' for Inactive)
REMARK    1  A    between atoms: C_1  and  C_2
REMARK    2  A    between atoms: C_5  and  N_8
REMARK    3  A    between atoms: N_8  and  C_9
REMARK    4  A    between atoms: C_23  and  C_26
REMARK    5  A    between atoms: C_23  and  C_27
REMARK                            x       y       z     vdW  Elec       q    Type
REMARK                         _______ _______ _______ _____ _____    ______ ____
ROOT
ATOM      1  C   UNL     1       0.075  -4.856   1.156  0.00  0.00    +0.084 C 
ATOM      2  C   UNL     1      -0.010  -6.219   1.151  0.00  0.00    +0.049 C 
ATOM      3  C   UNL     1      -0.113  -6.995   2.415  0.00  0.00    +0.071 A 
ATOM      4  C   UNL     1       0.133  -8.370   2.377  0.00  0.00    +0.133 A 
ATOM      5  C   UNL     1       0.041  -9.126   3.540  0.00  0.00    +0.047 A 
ATOM      6  C   UNL     1      -0.287  -8.533   4.727  0.00  0.00    +0.015 A 
ATOM      7  C   UNL     1      -0.533  -7.157   4.784  0.00  0.00    +0.018 A 
ATOM      8  C   UNL     1      -0.447  -6.374   3.618  0.00  0.00    +0.150 A 
ATOM      9  O   UNL     1      -0.684  -5.048   3.668  0.00  0.00    -0.421 OA
ATOM     10  C   UNL     1      -1.003  -4.455   4.825  0.00  0.00    +0.337 A 
ATOM     11  O   UNL     1      -1.210  -3.254   4.830  0.00  0.00    -0.245 OA
ATOM     12  C   UNL     1      -1.110  -5.168   6.035  0.00  0.00    +0.092 A 
ATOM     13  C   UNL     1      -0.884  -6.507   6.049  0.00  0.00    +0.018 A 
ATOM     14  O   UNL     1       0.465  -8.956   1.199  0.00  0.00    -0.478 OA
ATOM     15  C   UNL     1      -0.140  -8.459   0.006  0.00  0.00    +0.167 C 
ATOM     16  C   UNL     1      -0.009  -6.958  -0.063  0.00  0.00    +0.208 C 
ATOM     17  O   UNL     1       0.098  -6.393  -1.133  0.00  0.00    -0.288 OA
ATOM     18  C   UNL     1       0.545  -9.086  -1.209  0.00  0.00    +0.064 C 
ATOM     19  C   UNL     1      -1.623  -8.834  -0.003  0.00  0.00    +0.064 C 
ENDROOT
BRANCH   1  20
ATOM     20  N   UNL     1      -0.017  -4.163  -0.015  0.00  0.00    -0.320 N 
ATOM     21  H   UNL     1      -0.228  -4.629  -0.839  0.00  0.00    +0.152 HD
BRANCH  20  26
ATOM     22  C   UNL     1       0.827   1.445  -0.065  0.00  0.00    +0.044 C 
ATOM     23  C   UNL     1       0.602  -0.045  -0.051  0.00  0.00    -0.050 A 
ATOM     24  C   UNL     1       0.303  -0.709  -1.228  0.00  0.00    +0.005 A 
ATOM     25  C   UNL     1       0.097  -2.074  -1.219  0.00  0.00    +0.023 A 
ATOM     26  C   UNL     1       0.191  -2.782  -0.027  0.00  0.00    +0.031 A 
ATOM     27  C   UNL     1       0.491  -2.112   1.153  0.00  0.00    +0.023 A 
ATOM     28  C   UNL     1       0.701  -0.747   1.136  0.00  0.00    +0.005 A 
ENDBRANCH  20  26
ENDBRANCH   1  20
TORSDOF 2
