REMARK  Name = ZINC13115488
REMARK  6 active torsions:
REMARK  status: ('A' for Active; 'I' for Inactive)
REMARK    1  A    between atoms: C_1  and  C_2
REMARK    2  A    between atoms: C_2  and  C_21
REMARK    3  A    between atoms: C_3  and  N_10
REMARK    4  A    between atoms: N_8  and  C_9
REMARK    5  A    between atoms: N_10  and  O_20
REMARK    6  A    between atoms: N_13  and  C_14
REMARK                            x       y       z     vdW  Elec       q    Type
REMARK                         _______ _______ _______ _____ _____    ______ ____
ROOT
ATOM      1  N   UNL     1       1.486   1.588   0.230  0.00  0.00    -0.152 N 
ATOM      2  C   UNL     1       2.619   0.904   0.486  0.00  0.00    +0.326 C 
ATOM      3  O   UNL     1       3.665   1.501   0.648  0.00  0.00    -0.250 OA
ATOM      4  N   UNL     1       2.591  -0.441   0.563  0.00  0.00    -0.295 N 
ATOM      5  H   UNL     1       1.664  -0.987   0.335  0.00  0.00    +0.151 HD
ENDROOT
BRANCH   1   8
ATOM      6  C   UNL     1      -0.341   2.695   1.649  0.00  0.00    +0.034 C 
ATOM      7  C   UNL     1       0.420   3.744   0.837  0.00  0.00    +0.060 C 
ATOM      8  C   UNL     1       1.533   3.039   0.036  0.00  0.00    +0.193 C 
ATOM      9  S   UNL     1       1.068   3.493  -1.678  0.00  0.00    -0.075 S 
ATOM     10  C   UNL     1      -0.385   4.466  -1.331  0.00  0.00    +0.111 C 
ATOM     11  S   UNL     1      -1.398   5.251  -2.467  0.00  0.00    -0.028 S 
ATOM     12  N   UNL     1      -0.520   4.456   0.003  0.00  0.00    -0.314 N 
ATOM     13  C   UNL     1      -1.635   5.177   0.622  0.00  0.00    +0.131 C 
ATOM     14  C   UNL     1       1.065   4.736   1.807  0.00  0.00    +0.034 C 
ENDBRANCH   1   8
BRANCH   4  15
ATOM     15  C   UNL     1       3.797  -1.177   0.950  0.00  0.00    +0.074 C 
ATOM     16  C   UNL     1       4.670  -1.412  -0.285  0.00  0.00    +0.022 C 
ATOM     17  C   UNL     1       5.930  -2.181   0.119  0.00  0.00    +0.002 C 
ATOM     18  C   UNL     1       5.532  -3.528   0.726  0.00  0.00    +0.000 C 
ATOM     19  C   UNL     1       4.660  -3.293   1.961  0.00  0.00    +0.002 C 
ATOM     20  C   UNL     1       3.400  -2.524   1.557  0.00  0.00    +0.022 C 
ENDBRANCH   4  15
BRANCH   1  21
ATOM     21  O   UNL     1       0.249   0.903   0.148  0.00  0.00    -0.290 OA
ATOM     22  H   UNL     1       0.213  -0.187   0.294  0.00  0.00    +0.242 HD
ENDBRANCH   1  21
TORSDOF 3
