REMARK  Name = ZINC52887522
REMARK  3 active torsions:
REMARK  status: ('A' for Active; 'I' for Inactive)
REMARK    1  A    between atoms: C_2  and  C_7
REMARK    2  A    between atoms: C_7  and  O_20
REMARK    3  A    between atoms: C_12  and  C_14
REMARK                            x       y       z     vdW  Elec       q    Type
REMARK                         _______ _______ _______ _____ _____    ______ ____
ROOT
ATOM      1  C   UNL     1       1.398   3.275  -0.062  0.00  0.00    +0.097 C 
ATOM      2  C   UNL     1       1.518   3.790  -1.498  0.00  0.00    +0.040 C 
ATOM      3  C   UNL     1       1.232   5.293  -1.526  0.00  0.00    +0.003 C 
ATOM      4  C   UNL     1       2.242   6.021  -0.636  0.00  0.00    +0.000 C 
ATOM      5  C   UNL     1       2.121   5.506   0.799  0.00  0.00    +0.007 C 
ATOM      6  C   UNL     1       2.407   4.003   0.828  0.00  0.00    +0.028 C 
ENDROOT
BRANCH   1   8
ATOM      7  C   UNL     1       0.732   0.901   0.440  0.00  0.00    +0.120 A 
ATOM      8  C   UNL     1       1.679   1.795  -0.034  0.00  0.00    +0.020 A 
ATOM      9  C   UNL     1       2.892   1.295  -0.482  0.00  0.00    +0.120 A 
ATOM     10  N   UNL     1       3.103  -0.011  -0.443  0.00  0.00    -0.243 NA
ATOM     11  C   UNL     1       2.179  -0.831   0.015  0.00  0.00    +0.221 A 
ATOM     12  N   UNL     1       1.014  -0.392   0.448  0.00  0.00    -0.243 NA
ENDBRANCH   1   8
BRANCH   6  13
ATOM     13  C   UNL     1       2.287   3.488   2.263  0.00  0.00    -0.005 C 
ATOM     14  C   UNL     1       0.937   3.912   2.845  0.00  0.00    +0.004 C 
ATOM     15  C   UNL     1       0.817   3.397   4.281  0.00  0.00    +0.000 C 
ATOM     16  C   UNL     1       1.945   3.985   5.130  0.00  0.00    +0.000 C 
ATOM     17  C   UNL     1       3.295   3.561   4.548  0.00  0.00    +0.000 C 
ATOM     18  C   UNL     1       3.416   4.076   3.112  0.00  0.00    +0.004 C 
ENDBRANCH   6  13
BRANCH   1  19
ATOM     19  O   UNL     1       0.075   3.518   0.422  0.00  0.00    -0.384 OA
ATOM     20  H   UNL     1      -0.618   3.086  -0.096  0.00  0.00    +0.211 HD
ENDBRANCH   1  19
TORSDOF 3
