REMARK  Name = ZINC67020539
REMARK  5 active torsions:
REMARK  status: ('A' for Active; 'I' for Inactive)
REMARK    1  A    between atoms: C_1  and  C_2
REMARK    2  A    between atoms: C_2  and  C_3
REMARK    3  A    between atoms: C_2  and  N_4
REMARK    4  A    between atoms: N_4  and  C_5
REMARK    5  A    between atoms: C_12  and  C_14
REMARK                            x       y       z     vdW  Elec       q    Type
REMARK                         _______ _______ _______ _____ _____    ______ ____
ROOT
ATOM      1  N   UNL     1      -2.100   0.511  -0.470  0.00  0.00    -0.265 N 
ATOM      2  C   UNL     1      -2.277   0.289   0.848  0.00  0.00    +0.255 C 
ATOM      3  O   UNL     1      -2.945  -0.656   1.221  0.00  0.00    -0.269 OA
ENDROOT
BRANCH   2   4
ATOM      4  C   UNL     1      -1.659   1.193   1.837  0.00  0.00    +0.081 A 
ATOM      5  C   UNL     1      -0.303   1.522   1.741  0.00  0.00    +0.017 A 
ATOM      6  C   UNL     1       0.270   2.366   2.666  0.00  0.00    +0.003 A 
ATOM      7  C   UNL     1      -0.489   2.896   3.697  0.00  0.00    +0.027 A 
ATOM      8  C   UNL     1      -1.832   2.580   3.806  0.00  0.00    +0.076 A 
ATOM      9  C   UNL     1      -2.427   1.730   2.874  0.00  0.00    +0.154 A 
ATOM     10  O   UNL     1      -3.745   1.430   2.989  0.00  0.00    -0.480 OA
ATOM     11  C   UNL     1      -4.277   1.365   4.315  0.00  0.00    +0.325 C 
ATOM     12  C   UNL     1      -3.816   2.564   5.104  0.00  0.00    +0.255 C 
ATOM     13  O   UNL     1      -4.522   3.028   5.975  0.00  0.00    -0.272 OA
ATOM     14  N   UNL     1      -2.611   3.111   4.844  0.00  0.00    -0.280 N 
ATOM     15  H   UNL     1      -2.293   3.868   5.361  0.00  0.00    +0.155 HD
ENDBRANCH   2   4
BRANCH   1  16
ATOM     16  C   UNL     1      -3.129   0.220  -1.373  0.00  0.00    +0.037 A 
ATOM     17  C   UNL     1      -3.007   0.586  -2.707  0.00  0.00    +0.026 A 
ATOM     18  C   UNL     1      -4.024   0.297  -3.596  0.00  0.00    +0.040 A 
ATOM     19  C   UNL     1      -5.163  -0.357  -3.159  0.00  0.00    +0.124 A 
ATOM     20  C   UNL     1      -5.286  -0.723  -1.829  0.00  0.00    +0.040 A 
ATOM     21  C   UNL     1      -4.270  -0.441  -0.937  0.00  0.00    +0.026 A 
ATOM     22  F   UNL     1      -6.156  -0.639  -4.030  0.00  0.00    -0.205 F 
ENDBRANCH   1  16
BRANCH   1  24
ATOM     23  C   UNL     1      -0.505   2.346  -0.198  0.00  0.00    +0.028 C 
ATOM     24  C   UNL     1      -0.831   1.057  -0.957  0.00  0.00    +0.076 C 
ATOM     25  C   UNL     1       0.285   0.036  -0.729  0.00  0.00    +0.028 C 
ENDBRANCH   1  24
TORSDOF 3
