REMARK  Name = ZINC12345565
REMARK  6 active torsions:
REMARK  status: ('A' for Active; 'I' for Inactive)
REMARK    1  A    between atoms: C_1  and  O_2
REMARK    2  A    between atoms: O_2  and  C_3
REMARK    3  A    between atoms: C_6  and  C_9
REMARK    4  A    between atoms: C_9  and  C_10
REMARK    5  A    between atoms: C_10  and  N_11
REMARK    6  A    between atoms: C_17  and  C_23
REMARK                            x       y       z     vdW  Elec       q    Type
REMARK                         _______ _______ _______ _____ _____    ______ ____
ROOT
ATOM      1  N   UNL     1      -1.740   5.777  -0.217  0.00  0.00    -0.292 N 
ATOM      2  C   UNL     1      -2.432   4.480  -0.158  0.00  0.00    +0.159 C 
ATOM      3  C   UNL     1      -1.326   3.453  -0.065  0.00  0.00    +0.039 C 
ATOM      4  C   UNL     1      -0.167   4.142  -0.074  0.00  0.00    +0.058 C 
ATOM      5  C   UNL     1      -0.419   5.526  -0.165  0.00  0.00    +0.247 C 
ATOM      6  O   UNL     1       0.445   6.383  -0.192  0.00  0.00    -0.270 OA
ATOM      7  C   UNL     1       1.124   3.352   0.009  0.00  0.00    +0.143 C 
ATOM      8  N   UNL     1       1.003   1.887   0.094  0.00  0.00    -0.288 N 
ATOM      9  C   UNL     1      -0.230   1.342   0.092  0.00  0.00    +0.304 C 
ATOM     10  O   UNL     1      -0.339   0.134   0.161  0.00  0.00    -0.252 OA
ATOM     11  N   UNL     1      -1.338   2.090   0.011  0.00  0.00    -0.271 N 
ATOM     12  H   UNL     1       1.793   1.326   0.150  0.00  0.00    +0.151 HD
ATOM     13  H   UNL     1      -2.196   1.638   0.010  0.00  0.00    +0.156 HD
ENDROOT
BRANCH   7  14
ATOM     14  C   UNL     1       1.882   3.827   1.222  0.00  0.00    -0.004 A 
ATOM     15  C   UNL     1       1.204   4.409   2.277  0.00  0.00    +0.007 A 
ATOM     16  C   UNL     1       1.900   4.845   3.389  0.00  0.00    +0.000 A 
ATOM     17  C   UNL     1       3.273   4.698   3.448  0.00  0.00    +0.001 A 
ATOM     18  C   UNL     1       3.952   4.116   2.394  0.00  0.00    +0.020 A 
ATOM     19  C   UNL     1       3.256   3.675   1.282  0.00  0.00    +0.046 A 
ATOM     20 CL   UNL     1       4.106   2.937  -0.039  0.00  0.00    -0.083 Cl
ENDBRANCH   7  14
BRANCH   1  21
ATOM     21  C   UNL     1      -2.372   7.095  -0.314  0.00  0.00    +0.113 C 
BRANCH  21  22
ATOM     22  C   UNL     1      -2.552   7.467  -1.787  0.00  0.00    +0.054 C 
BRANCH  22  26
ATOM     23  C   UNL     1      -4.394  11.312  -2.071  0.00  0.00    +0.120 A 
ATOM     24  C   UNL     1      -3.012  11.206  -2.026  0.00  0.00    +0.046 A 
ATOM     25  C   UNL     1      -2.419   9.962  -1.934  0.00  0.00    +0.007 A 
ATOM     26  C   UNL     1      -3.202   8.823  -1.887  0.00  0.00    -0.046 A 
ATOM     27  C   UNL     1      -4.579   8.926  -1.938  0.00  0.00    +0.007 A 
ATOM     28  C   UNL     1      -5.178  10.168  -2.023  0.00  0.00    +0.046 A 
BRANCH  23  30
ATOM     29  C   UNL     1      -6.408  12.569  -2.204  0.00  0.00    +0.277 C 
ATOM     30  O   UNL     1      -4.980  12.535  -2.162  0.00  0.00    -0.495 OA
ENDBRANCH  23  30
ENDBRANCH  22  26
ENDBRANCH  21  22
ENDBRANCH   1  21
TORSDOF 5
