REMARK  Name = ZINC54319480
REMARK  4 active torsions:
REMARK  status: ('A' for Active; 'I' for Inactive)
REMARK    1  A    between atoms: C_4  and  S_8
REMARK    2  A    between atoms: S_8  and  N_11
REMARK    3  A    between atoms: N_11  and  C_12
REMARK    4  A    between atoms: C_15  and  N_18
REMARK                            x       y       z     vdW  Elec       q    Type
REMARK                         _______ _______ _______ _____ _____    ______ ____
ROOT
ATOM      1  C   UNL     1       5.573  -1.746   1.829  0.00  0.00    +0.074 A 
ATOM      2  C   UNL     1       6.397  -2.183   0.799  0.00  0.00    +0.028 A 
ATOM      3  C   UNL     1       7.575  -2.841   1.090  0.00  0.00    +0.025 A 
ATOM      4  C   UNL     1       7.936  -3.068   2.411  0.00  0.00    +0.038 A 
ATOM      5  C   UNL     1       7.113  -2.632   3.441  0.00  0.00    +0.025 A 
ATOM      6  C   UNL     1       5.938  -1.967   3.151  0.00  0.00    +0.028 A 
ENDROOT
BRANCH   4   7
ATOM      7  N   UNL     1       9.133  -3.737   2.706  0.00  0.00    -0.254 N 
ATOM      8  C   UNL     1       9.685  -3.940   4.053  0.00  0.00    +0.134 C 
ATOM      9  C   UNL     1      10.991  -4.721   3.803  0.00  0.00    +0.125 C 
ATOM     10  N   UNL     1      11.034  -4.874   2.341  0.00  0.00    -0.297 N 
ATOM     11  C   UNL     1       9.950  -4.298   1.806  0.00  0.00    +0.307 C 
ATOM     12  O   UNL     1       9.731  -4.282   0.610  0.00  0.00    -0.252 OA
ATOM     13  H   UNL     1      11.735  -5.325   1.844  0.00  0.00    +0.150 HD
ENDBRANCH   4   7
BRANCH   1  14
ATOM     14  N   UNL     1       4.379  -1.079   1.535  0.00  0.00    -0.098 NA
BRANCH  14  15
ATOM     15  S   UNL     1       3.945  -0.816  -0.041  0.00  0.00    +0.094 S 
ATOM     16  O   UNL     1       3.693  -2.092  -0.612  0.00  0.00    -0.148 OA
ATOM     17  O   UNL     1       4.902   0.085  -0.582  0.00  0.00    -0.148 OA
BRANCH  15  21
ATOM     18  C   UNL     1      -0.014   1.383   0.010  0.00  0.00    +0.003 A 
ATOM     19  C   UNL     1       1.171   2.094   0.017  0.00  0.00    +0.022 A 
ATOM     20  C   UNL     1       2.381   1.423   0.002  0.00  0.00    +0.069 A 
ATOM     21  C   UNL     1       2.404   0.040  -0.021  0.00  0.00    +0.147 A 
ATOM     22  C   UNL     1       1.218  -0.671  -0.028  0.00  0.00    +0.069 A 
ATOM     23  C   UNL     1       0.009   0.001  -0.013  0.00  0.00    +0.022 A 
ATOM     24 CL   UNL     1       1.246  -2.407  -0.057  0.00  0.00    -0.081 Cl
ATOM     25 CL   UNL     1       3.870   2.316   0.010  0.00  0.00    -0.081 Cl
ENDBRANCH  15  21
ENDBRANCH  14  15
ENDBRANCH   1  14
TORSDOF 4
