REMARK  Name = ZINC23873326
REMARK  9 active torsions:
REMARK  status: ('A' for Active; 'I' for Inactive)
REMARK    1  A    between atoms: C_1  and  C_2
REMARK    2  A    between atoms: C_3  and  C_31
REMARK    3  A    between atoms: C_11  and  C_13
REMARK    4  A    between atoms: C_13  and  C_15
REMARK    5  A    between atoms: C_13  and  N_16
REMARK    6  A    between atoms: N_16  and  C_17
REMARK    7  A    between atoms: C_17  and  C_19
REMARK    8  A    between atoms: C_17  and  C_20
REMARK    9  A    between atoms: C_23  and  N_26
REMARK                            x       y       z     vdW  Elec       q    Type
REMARK                         _______ _______ _______ _____ _____    ______ ____
ROOT
ATOM      1  C   UNL     1       0.090  -3.432   4.547  0.00  0.00    +0.118 C 
ATOM      2  C   UNL     1       1.275  -3.097   5.455  0.00  0.00    +0.032 C 
ENDROOT
BRANCH   1  13
ATOM      3  C   UNL     1      -0.018   1.503   0.010  0.00  0.00    +0.045 C 
ATOM      4  C   UNL     1       0.002  -0.004   0.002  0.00  0.00    -0.026 A 
ATOM      5  C   UNL     1       0.006  -0.677  -1.160  0.00  0.00    -0.008 A 
ATOM      6  S   UNL     1       0.032  -2.385  -0.648  0.00  0.00    -0.073 S 
ATOM      7  C   UNL     1       0.037  -2.144   1.110  0.00  0.00    +0.116 A 
ATOM      8  C   UNL     1       0.024  -0.745   1.250  0.00  0.00    +0.075 A 
ATOM      9  C   UNL     1       0.029  -0.257   2.597  0.00  0.00    +0.260 A 
ATOM     10  O   UNL     1       0.014   0.942   2.821  0.00  0.00    -0.267 OA
ATOM     11  N   UNL     1       0.051  -1.142   3.611  0.00  0.00    -0.309 N 
ATOM     12  H   UNL     1       0.054  -0.817   4.525  0.00  0.00    +0.170 HD
ATOM     13  C   UNL     1       0.067  -2.480   3.380  0.00  0.00    +0.128 A 
ATOM     14  N   UNL     1       0.053  -2.956   2.163  0.00  0.00    -0.225 NA
ATOM     15  C   UNL     1      -0.009  -0.122  -2.561  0.00  0.00    +0.052 C 
ENDBRANCH   1  13
BRANCH   1  16
ATOM     16  N   UNL     1       0.225  -4.809   4.053  0.00  0.00    -0.301 NA
ATOM     17  H   UNL     1      -0.212  -4.914   3.150  0.00  0.00    +0.123 HD
BRANCH  16  18
ATOM     18  C   UNL     1      -0.324  -5.771   5.019  0.00  0.00    +0.081 C 
ATOM     19  C   UNL     1      -1.831  -5.910   4.799  0.00  0.00    +0.029 C 
BRANCH  18  20
ATOM     20  C   UNL     1       0.338  -7.111   4.824  0.00  0.00    -0.031 A 
ATOM     21  C   UNL     1       0.606  -7.569   3.548  0.00  0.00    +0.007 A 
ATOM     22  C   UNL     1       1.212  -8.797   3.366  0.00  0.00    +0.026 A 
ATOM     23  C   UNL     1       1.553  -9.571   4.467  0.00  0.00    +0.047 A 
ATOM     24  C   UNL     1       1.283  -9.107   5.748  0.00  0.00    +0.026 A 
ATOM     25  C   UNL     1       0.681  -7.877   5.923  0.00  0.00    +0.007 A 
BRANCH  23  26
ATOM     26  N   UNL     1       2.168 -10.818   4.286  0.00  0.00    -0.306 N 
ATOM     27  C   UNL     1       2.553 -11.687   5.274  0.00  0.00    +0.112 A 
ATOM     28  C   UNL     1       3.098 -12.756   4.662  0.00  0.00    +0.130 A 
ATOM     29  N   UNL     1       3.050 -12.550   3.337  0.00  0.00    -0.244 NA
ATOM     30  C   UNL     1       2.489 -11.395   3.099  0.00  0.00    +0.204 A 
ENDBRANCH  23  26
ENDBRANCH  18  20
ENDBRANCH  16  18
ENDBRANCH   1  16
TORSDOF 5
