REMARK  Name = ZINC04503789
REMARK  7 active torsions:
REMARK  status: ('A' for Active; 'I' for Inactive)
REMARK    1  A    between atoms: C_1  and  C_2
REMARK    2  A    between atoms: C_5  and  C_25
REMARK    3  A    between atoms: C_6  and  N_8
REMARK    4  A    between atoms: C_9  and  C_11
REMARK    5  A    between atoms: C_11  and  S_12
REMARK    6  A    between atoms: S_12  and  C_13
REMARK    7  A    between atoms: C_17  and  C_24
REMARK                            x       y       z     vdW  Elec       q    Type
REMARK                         _______ _______ _______ _____ _____    ______ ____
ROOT
ATOM      1  C   UNL     1      -5.006   0.781   0.072  0.00  0.00    +0.173 C 
ENDROOT
BRANCH   1   3
ATOM      2  N   UNL     1      -7.453   0.422   0.081  0.00  0.00    -0.285 N 
ATOM      3  C   UNL     1      -6.423   1.292   0.078  0.00  0.00    +0.227 C 
ATOM      4  O   UNL     1      -6.638   2.486   0.080  0.00  0.00    -0.275 OA
ATOM      5  H   UNL     1      -7.284  -0.529  -0.002  0.00  0.00    +0.155 HD
BRANCH   2  11
ATOM      6  C   UNL     1     -10.579   3.902   1.594  0.00  0.00    +0.044 C 
ATOM      7  C   UNL     1     -10.309   2.576   0.931  0.00  0.00    -0.049 A 
ATOM      8  C   UNL     1     -11.361   1.821   0.443  0.00  0.00    +0.004 A 
ATOM      9  C   UNL     1     -11.117   0.604  -0.165  0.00  0.00    +0.005 A 
ATOM     10  C   UNL     1      -9.823   0.137  -0.287  0.00  0.00    -0.029 A 
ATOM     11  C   UNL     1      -8.765   0.892   0.202  0.00  0.00    +0.037 A 
ATOM     12  C   UNL     1      -9.013   2.113   0.818  0.00  0.00    +0.027 A 
ATOM     13  C   UNL     1      -9.559  -1.190  -0.950  0.00  0.00    +0.045 C 
ENDBRANCH   2  11
ENDBRANCH   1   3
BRANCH   1  14
ATOM     14  S   UNL     1      -3.860   2.182   0.070  0.00  0.00    -0.076 S 
BRANCH  14  15
ATOM     15  C   UNL     1      -2.323   1.320   0.063  0.00  0.00    +0.195 A 
ATOM     16  N   UNL     1      -1.183   2.007   0.066  0.00  0.00    -0.204 NA
ATOM     17  C   UNL     1      -0.016   1.363   0.056  0.00  0.00    +0.144 A 
ATOM     18  C   UNL     1       1.192   2.079   0.053  0.00  0.00    +0.050 A 
ATOM     19  C   UNL     1       2.372   1.395   0.048  0.00  0.00    -0.046 A 
ATOM     20  C   UNL     1       2.360  -0.007   0.047  0.00  0.00    +0.021 A 
ATOM     21  C   UNL     1       1.185  -0.678   0.051  0.00  0.00    +0.098 A 
ATOM     22  N   UNL     1       0.002  -0.006   0.055  0.00  0.00    -0.252 N 
ATOM     23  C   UNL     1      -1.165  -0.682   0.058  0.00  0.00    +0.356 A 
ATOM     24  O   UNL     1      -1.167  -1.901   0.057  0.00  0.00    -0.244 OA
ATOM     25  N   UNL     1      -2.315  -0.011   0.062  0.00  0.00    -0.167 NA
ATOM     26  C   UNL     1       3.681   2.142   0.044  0.00  0.00    +0.044 C 
ENDBRANCH  14  15
ENDBRANCH   1  14
TORSDOF 4
