REMARK  Name = ZINC36193345
REMARK  3 active torsions:
REMARK  status: ('A' for Active; 'I' for Inactive)
REMARK    1  A    between atoms: C_1  and  C_2
REMARK    2  A    between atoms: C_2  and  C_3
REMARK    3  A    between atoms: N_8  and  C_10
REMARK                            x       y       z     vdW  Elec       q    Type
REMARK                         _______ _______ _______ _____ _____    ______ ____
ROOT
ATOM      1  C   UNL     1       2.547  -3.298  -2.490  0.00  0.00    +0.031 A 
ATOM      2  C   UNL     1       3.205  -3.588  -1.295  0.00  0.00    +0.024 A 
ATOM      3  C   UNL     1       4.316  -4.381  -1.299  0.00  0.00    +0.015 A 
ATOM      4  C   UNL     1       4.796  -4.904  -2.503  0.00  0.00    +0.048 A 
ATOM      5  C   UNL     1       4.140  -4.619  -3.716  0.00  0.00    +0.047 A 
ATOM      6  C   UNL     1       3.011  -3.817  -3.696  0.00  0.00    +0.047 A 
ATOM      7  N   UNL     1       4.804  -5.250  -4.765  0.00  0.00    -0.278 N 
ATOM      8  C   UNL     1       5.869  -5.942  -4.324  0.00  0.00    +0.289 C 
ATOM      9  O   UNL     1       6.635  -6.590  -5.006  0.00  0.00    -0.266 OA
ATOM     10  C   UNL     1       5.938  -5.768  -2.837  0.00  0.00    +0.249 C 
ATOM     11  O   UNL     1       6.758  -6.237  -2.074  0.00  0.00    -0.282 OA
ATOM     12  H   UNL     1       4.533  -5.197  -5.695  0.00  0.00    +0.155 HD
ENDROOT
BRANCH   1  17
ATOM     13  C   UNL     1       0.708  -0.512  -1.239  0.00  0.00    +0.006 C 
ATOM     14  C   UNL     1      -0.089  -0.098  -2.478  0.00  0.00    +0.006 C 
ATOM     15  C   UNL     1       0.653  -0.547  -3.738  0.00  0.00    +0.019 C 
ATOM     16  C   UNL     1       0.782  -2.074  -3.734  0.00  0.00    +0.105 C 
ATOM     17  N   UNL     1       1.418  -2.491  -2.477  0.00  0.00    -0.330 N 
ATOM     18  C   UNL     1       0.837  -2.038  -1.206  0.00  0.00    +0.108 C 
BRANCH  13  20
ATOM     19  C   UNL     1      -0.040   1.496   0.046  0.00  0.00    +0.004 C 
ATOM     20  C   UNL     1      -0.019  -0.034   0.020  0.00  0.00    +0.002 C 
ENDBRANCH  13  20
ENDBRANCH   1  17
TORSDOF 2
