REMARK  Name = ZINC24482011
REMARK  5 active torsions:
REMARK  status: ('A' for Active; 'I' for Inactive)
REMARK    1  A    between atoms: C_1  and  O_2
REMARK    2  A    between atoms: O_2  and  C_3
REMARK    3  A    between atoms: C_3  and  C_5
REMARK    4  A    between atoms: N_16  and  S_17
REMARK    5  A    between atoms: S_17  and  C_20
REMARK                            x       y       z     vdW  Elec       q    Type
REMARK                         _______ _______ _______ _____ _____    ______ ____
ROOT
ATOM      1  C   UNL     1      -2.136   4.880   1.832  0.00  0.00    +0.189 C 
ATOM      2  C   UNL     1      -1.885   4.354   0.392  0.00  0.00    +0.037 C 
ATOM      3  C   UNL     1      -1.307   2.957   0.663  0.00  0.00    +0.010 C 
ATOM      4  C   UNL     1      -0.389   2.414  -0.418  0.00  0.00    +0.005 C 
ATOM      5  C   UNL     1       0.182   1.082   0.093  0.00  0.00    +0.000 C 
ATOM      6  C   UNL     1       0.931   1.264   1.410  0.00  0.00    +0.002 C 
ATOM      7  C   UNL     1       0.044   1.939   2.470  0.00  0.00    +0.021 C 
ATOM      8  C   UNL     1      -0.415   3.263   1.897  0.00  0.00    +0.084 C 
ATOM      9  N   UNL     1      -1.247   4.111   2.735  0.00  0.00    -0.160 NA
ENDROOT
BRANCH   9  10
ATOM     10  S   UNL     1      -1.210   4.200   4.388  0.00  0.00    +0.062 S 
ATOM     11  O   UNL     1      -2.425   4.816   4.790  0.00  0.00    -0.153 OA
ATOM     12  O   UNL     1      -0.815   2.918   4.856  0.00  0.00    -0.153 OA
BRANCH  10  13
ATOM     13  C   UNL     1       0.086   5.314   4.820  0.00  0.00    +0.111 A 
ATOM     14  C   UNL     1       1.385   4.855   4.925  0.00  0.00    +0.067 A 
ATOM     15  C   UNL     1       2.405   5.730   5.260  0.00  0.00    +0.128 A 
ATOM     16  C   UNL     1       2.120   7.063   5.499  0.00  0.00    +0.076 A 
ATOM     17  C   UNL     1       0.818   7.521   5.399  0.00  0.00    +0.128 A 
ATOM     18  C   UNL     1      -0.199   6.645   5.059  0.00  0.00    +0.067 A 
ATOM     19  F   UNL     1       0.539   8.822   5.632  0.00  0.00    -0.205 F 
ATOM     20  F   UNL     1       3.675   5.282   5.358  0.00  0.00    -0.205 F 
ENDBRANCH  10  13
ENDBRANCH   9  10
BRANCH   1  21
ATOM     21  C   UNL     1      -3.576   4.657   2.216  0.00  0.00    +0.326 C 
ATOM     22  O   UNL     1      -3.897   3.646   2.797  0.00  0.00    -0.249 OA
BRANCH  21  24
ATOM     23  C   UNL     1      -5.869   5.299   2.316  0.00  0.00    +0.280 C 
ATOM     24  O   UNL     1      -4.502   5.580   1.915  0.00  0.00    -0.467 OA
ENDBRANCH  21  24
ENDBRANCH   1  21
TORSDOF 4
