REMARK  Name = ZINC00612369
REMARK  1 active torsions:
REMARK  status: ('A' for Active; 'I' for Inactive)
REMARK    1  A    between atoms: C_6  and  C_7
REMARK                            x       y       z     vdW  Elec       q    Type
REMARK                         _______ _______ _______ _____ _____    ______ ____
ROOT
ATOM      1  C   UNL     1       4.025  -2.777   2.814  0.00  0.00    +0.060 C 
ATOM      2  C   UNL     1       4.136  -4.186   2.226  0.00  0.00    +0.109 C 
ATOM      3  C   UNL     1       2.768  -4.816   2.166  0.00  0.00    +0.218 C 
ATOM      4  O   UNL     1       2.646  -6.007   2.361  0.00  0.00    -0.275 OA
ATOM      5  N   UNL     1       1.682  -4.067   1.899  0.00  0.00    -0.285 N 
ATOM      6  C   UNL     1       1.820  -2.698   1.632  0.00  0.00    +0.041 A 
ATOM      7  C   UNL     1       2.946  -2.021   2.081  0.00  0.00    -0.015 A 
ATOM      8  C   UNL     1       3.078  -0.667   1.847  0.00  0.00    +0.055 A 
ATOM      9  C   UNL     1       2.091   0.020   1.155  0.00  0.00    +0.162 A 
ATOM     10  C   UNL     1       0.970  -0.658   0.691  0.00  0.00    +0.164 A 
ATOM     11  C   UNL     1       0.835  -2.017   0.933  0.00  0.00    +0.073 A 
ATOM     12  O   UNL     1       0.002  -0.004   0.002  0.00  0.00    -0.485 OA
ATOM     13  C   UNL     1      -0.017   1.415   0.010  0.00  0.00    +0.270 C 
ATOM     14  C   UNL     1       1.388   1.997  -0.001  0.00  0.00    +0.270 C 
ATOM     15  O   UNL     1       2.230   1.353   0.943  0.00  0.00    -0.485 OA
ATOM     16  H   UNL     1       0.802  -4.475   1.891  0.00  0.00    +0.155 HD
ENDROOT
BRANCH   1  22
ATOM     17  C   UNL     1       5.874  -1.866   1.394  0.00  0.00    +0.007 A 
ATOM     18  C   UNL     1       7.077  -1.204   1.246  0.00  0.00    +0.038 A 
ATOM     19  C   UNL     1       7.755  -0.743   2.361  0.00  0.00    +0.123 A 
ATOM     20  C   UNL     1       7.223  -0.942   3.624  0.00  0.00    +0.038 A 
ATOM     21  C   UNL     1       6.017  -1.600   3.769  0.00  0.00    +0.007 A 
ATOM     22  C   UNL     1       5.341  -2.059   2.655  0.00  0.00    -0.039 A 
ATOM     23  F   UNL     1       8.935  -0.100   2.218  0.00  0.00    -0.205 F 
ENDBRANCH   1  22
TORSDOF 1
