REMARK  Name = ZINC56322379
REMARK  6 active torsions:
REMARK  status: ('A' for Active; 'I' for Inactive)
REMARK    1  A    between atoms: C_4  and  N_7
REMARK    2  A    between atoms: C_9  and  C_12
REMARK    3  A    between atoms: C_12  and  N_13
REMARK    4  A    between atoms: C_14  and  C_16
REMARK    5  A    between atoms: C_16  and  N_17
REMARK    6  A    between atoms: N_20  and  C_21
REMARK                            x       y       z     vdW  Elec       q    Type
REMARK                         _______ _______ _______ _____ _____    ______ ____
ROOT
ATOM      1  N   UNL     1       5.954  -4.041  -1.470  0.00  0.00    -0.310 N 
ATOM      2  C   UNL     1       6.516  -5.237  -1.732  0.00  0.00    +0.231 C 
ATOM      3  O   UNL     1       6.859  -5.958  -0.820  0.00  0.00    -0.274 OA
ATOM      4  H   UNL     1       5.679  -3.463  -2.200  0.00  0.00    +0.149 HD
ENDROOT
BRANCH   1   5
ATOM      5  C   UNL     1       5.757  -3.612  -0.083  0.00  0.00    +0.142 C 
BRANCH   5   8
ATOM      6  N   UNL     1       3.624  -0.652  -0.037  0.00  0.00    -0.240 N 
ATOM      7  C   UNL     1       3.786  -1.994  -0.052  0.00  0.00    +0.119 A 
ATOM      8  C   UNL     1       5.115  -2.248  -0.065  0.00  0.00    +0.007 A 
ATOM      9  C   UNL     1       5.788  -1.022  -0.059  0.00  0.00    +0.140 A 
ATOM     10  N   UNL     1       4.895  -0.065  -0.048  0.00  0.00    -0.174 NA
BRANCH   6  14
ATOM     11  C   UNL     1      -0.017   1.379   0.010  0.00  0.00    +0.000 A 
ATOM     12  C   UNL     1       1.170   2.089   0.002  0.00  0.00    +0.002 A 
ATOM     13  C   UNL     1       2.377   1.419  -0.013  0.00  0.00    +0.028 A 
ATOM     14  C   UNL     1       2.399   0.031  -0.021  0.00  0.00    +0.065 A 
ATOM     15  C   UNL     1       1.207  -0.680  -0.013  0.00  0.00    +0.028 A 
ATOM     16  C   UNL     1       0.002  -0.004   0.002  0.00  0.00    +0.002 A 
ENDBRANCH   6  14
ENDBRANCH   5   8
ENDBRANCH   1   5
BRANCH   2  17
ATOM     17  C   UNL     1       6.718  -5.678  -3.159  0.00  0.00    +0.201 C 
BRANCH  17  18
ATOM     18  N   UNL     1       7.342  -7.003  -3.176  0.00  0.00    -0.291 N 
ATOM     19  C   UNL     1       7.620  -7.602  -4.351  0.00  0.00    +0.300 C 
ATOM     20  O   UNL     1       7.352  -7.043  -5.397  0.00  0.00    -0.253 OA
ATOM     21  N   UNL     1       8.194  -8.822  -4.367  0.00  0.00    -0.297 N 
ATOM     22  H   UNL     1       7.556  -7.450  -2.342  0.00  0.00    +0.151 HD
ATOM     23  H   UNL     1       8.408  -9.268  -3.533  0.00  0.00    +0.151 HD
BRANCH  21  24
ATOM     24  C   UNL     1       8.495  -9.472  -5.645  0.00  0.00    +0.074 C 
ATOM     25  C   UNL     1       7.253 -10.212  -6.146  0.00  0.00    +0.022 C 
ATOM     26  C   UNL     1       7.568 -10.892  -7.480  0.00  0.00    +0.002 C 
ATOM     27  C   UNL     1       8.713 -11.889  -7.287  0.00  0.00    +0.000 C 
ATOM     28  C   UNL     1       9.955 -11.149  -6.785  0.00  0.00    +0.002 C 
ATOM     29  C   UNL     1       9.640 -10.470  -5.452  0.00  0.00    +0.022 C 
ENDBRANCH  21  24
ENDBRANCH  17  18
ENDBRANCH   2  17
TORSDOF 6
