REMARK  Name = ZINC02450035
REMARK  10 active torsions:
REMARK  status: ('A' for Active; 'I' for Inactive)
REMARK    1  A    between atoms: C_1  and  C_2
REMARK    2  A    between atoms: C_5  and  N_8
REMARK    3  A    between atoms: C_9  and  C_27
REMARK    4  A    between atoms: C_12  and  S_13
REMARK    5  A    between atoms: S_13  and  C_14
REMARK    6  A    between atoms: C_14  and  C_15
REMARK    7  A    between atoms: N_17  and  C_18
REMARK    8  A    between atoms: C_23  and  C_24
REMARK    9  A    between atoms: C_24  and  C_25
REMARK   10  A    between atoms: C_24  and  C_26
REMARK                            x       y       z     vdW  Elec       q    Type
REMARK                         _______ _______ _______ _____ _____    ______ ____
ROOT
ATOM      1  N   UNL     1       0.034   1.107   4.089  0.00  0.00    -0.270 N 
ATOM      2  C   UNL     1       1.075   0.397   4.646  0.00  0.00    +0.169 A 
ATOM      3  N   UNL     1       1.782  -0.091   3.654  0.00  0.00    -0.128 NA
ATOM      4  N   UNL     1       1.262   0.254   2.531  0.00  0.00    -0.122 NA
ATOM      5  C   UNL     1       0.188   0.985   2.736  0.00  0.00    +0.197 A 
ENDROOT
BRANCH   1  10
ATOM      6  C   UNL     1      -4.047   3.937   6.837  0.00  0.00    +0.044 C 
ATOM      7  C   UNL     1      -2.964   3.185   6.107  0.00  0.00    -0.050 A 
ATOM      8  C   UNL     1      -3.286   2.081   5.341  0.00  0.00    +0.005 A 
ATOM      9  C   UNL     1      -2.295   1.390   4.671  0.00  0.00    +0.026 A 
ATOM     10  C   UNL     1      -0.974   1.806   4.768  0.00  0.00    +0.051 A 
ATOM     11  C   UNL     1      -0.653   2.912   5.542  0.00  0.00    +0.026 A 
ATOM     12  C   UNL     1      -1.649   3.602   6.206  0.00  0.00    +0.005 A 
ENDBRANCH   1  10
BRANCH   2  13
ATOM     13  C   UNL     1       1.347   0.223   6.089  0.00  0.00    +0.020 A 
ATOM     14  C   UNL     1       0.363   0.529   7.030  0.00  0.00    +0.011 A 
ATOM     15  C   UNL     1       0.622   0.360   8.374  0.00  0.00    +0.001 A 
ATOM     16  C   UNL     1       1.858  -0.102   8.791  0.00  0.00    +0.000 A 
ATOM     17  C   UNL     1       2.840  -0.402   7.863  0.00  0.00    +0.001 A 
ATOM     18  C   UNL     1       2.592  -0.242   6.516  0.00  0.00    +0.011 A 
ENDBRANCH   2  13
BRANCH   5  19
ATOM     19  S   UNL     1      -0.852   1.684   1.497  0.00  0.00    -0.076 S 
BRANCH  19  20
ATOM     20  C   UNL     1      -0.006   1.097   0.008  0.00  0.00    +0.173 C 
BRANCH  20  21
ATOM     21  C   UNL     1      -0.740   1.588  -1.213  0.00  0.00    +0.227 C 
ATOM     22  O   UNL     1      -1.737   2.268  -1.089  0.00  0.00    -0.275 OA
ATOM     23  N   UNL     1      -0.289   1.272  -2.443  0.00  0.00    -0.285 N 
ATOM     24  H   UNL     1       0.544   0.785  -2.544  0.00  0.00    +0.155 HD
BRANCH  23  25
ATOM     25  C   UNL     1      -1.022   1.646  -3.575  0.00  0.00    +0.037 A 
ATOM     26  C   UNL     1      -1.723   2.845  -3.585  0.00  0.00    +0.023 A 
ATOM     27  C   UNL     1      -2.441   3.214  -4.705  0.00  0.00    +0.002 A 
ATOM     28  C   UNL     1      -2.471   2.386  -5.812  0.00  0.00    +0.000 A 
ATOM     29  C   UNL     1      -1.779   1.189  -5.803  0.00  0.00    +0.006 A 
ATOM     30  C   UNL     1      -1.054   0.817  -4.688  0.00  0.00    -0.024 A 
BRANCH  30  31
ATOM     31  C   UNL     1      -0.301  -0.488  -4.679  0.00  0.00    +0.015 C 
ATOM     32  C   UNL     1      -1.260  -1.633  -5.009  0.00  0.00    +0.012 C 
ATOM     33  C   UNL     1       0.815  -0.440  -5.724  0.00  0.00    +0.012 C 
ENDBRANCH  30  31
ENDBRANCH  23  25
ENDBRANCH  20  21
ENDBRANCH  19  20
ENDBRANCH   5  19
TORSDOF 7
