REMARK  Name = ZINC48872509
REMARK  4 active torsions:
REMARK  status: ('A' for Active; 'I' for Inactive)
REMARK    1  A    between atoms: C_1  and  C_2
REMARK    2  A    between atoms: N_4  and  C_5
REMARK    3  A    between atoms: C_8  and  C_11
REMARK    4  A    between atoms: C_11  and  N_12
REMARK                            x       y       z     vdW  Elec       q    Type
REMARK                         _______ _______ _______ _____ _____    ______ ____
ROOT
ATOM      1  C   UNL     1       0.418   1.459  -0.022  0.00  0.00    +0.110 C 
ATOM      2  C   UNL     1       0.209  -0.033  -0.019  0.00  0.00    +0.218 C 
ATOM      3  O   UNL     1       0.321  -0.659   1.014  0.00  0.00    -0.276 OA
ATOM      4  N   UNL     1      -0.102  -0.673  -1.163  0.00  0.00    -0.254 N 
ATOM      5  C   UNL     1      -0.124   0.062  -2.430  0.00  0.00    +0.140 C 
ATOM      6  C   UNL     1      -0.401  -2.030  -1.142  0.00  0.00    +0.167 A 
ATOM      7  N   UNL     1      -0.719  -2.813  -2.150  0.00  0.00    -0.228 NA
ATOM      8  C   UNL     1      -0.978  -4.094  -1.964  0.00  0.00    +0.072 A 
ATOM      9  C   UNL     1      -0.902  -4.560  -0.693  0.00  0.00    +0.073 A 
ATOM     10  S   UNL     1      -0.439  -3.072   0.179  0.00  0.00    -0.060 S 
ENDROOT
BRANCH   8  11
ATOM     11  C   UNL     1      -1.343  -4.999  -3.113  0.00  0.00    +0.203 C 
BRANCH  11  12
ATOM     12  N   UNL     1      -2.781  -4.902  -3.373  0.00  0.00    -0.222 N 
ATOM     13  C   UNL     1      -3.229  -3.982  -4.248  0.00  0.00    +0.287 A 
ATOM     14  O   UNL     1      -2.445  -3.239  -4.817  0.00  0.00    -0.265 OA
ATOM     15  C   UNL     1      -4.614  -3.886  -4.502  0.00  0.00    +0.126 A 
ATOM     16  C   UNL     1      -5.446  -4.745  -3.836  0.00  0.00    +0.084 A 
ATOM     17  C   UNL     1      -4.873  -5.667  -2.942  0.00  0.00    +0.154 A 
ATOM     18  N   UNL     1      -3.582  -5.700  -2.764  0.00  0.00    -0.175 NA
ATOM     19 CL   UNL     1      -7.163  -4.696  -4.086  0.00  0.00    -0.080 Cl
ATOM     20 CL   UNL     1      -5.242  -2.717  -5.621  0.00  0.00    -0.076 Cl
ENDBRANCH  11  12
ENDBRANCH   8  11
TORSDOF 2
