REMARK  Name = ZINC35375863
REMARK  3 active torsions:
REMARK  status: ('A' for Active; 'I' for Inactive)
REMARK    1  A    between atoms: C_4  and  C_7
REMARK    2  A    between atoms: N_10  and  S_13
REMARK    3  A    between atoms: S_13  and  C_16
REMARK                            x       y       z     vdW  Elec       q    Type
REMARK                         _______ _______ _______ _____ _____    ______ ____
ROOT
ATOM      1  C   UNL     1       5.284  -4.773   0.697  0.00  0.00    +0.106 A 
ATOM      2  C   UNL     1       4.896  -4.925   2.018  0.00  0.00    +0.030 A 
ATOM      3  C   UNL     1       3.852  -5.764   2.351  0.00  0.00    +0.026 A 
ATOM      4  C   UNL     1       3.177  -6.467   1.359  0.00  0.00    +0.042 A 
ATOM      5  C   UNL     1       3.573  -6.310   0.026  0.00  0.00    +0.010 A 
ATOM      6  C   UNL     1       4.621  -5.459  -0.301  0.00  0.00    +0.039 A 
ATOM      7  C   UNL     1       2.677  -7.175  -0.782  0.00  0.00    +0.045 C 
ATOM      8  C   UNL     1       2.687  -7.346  -2.115  0.00  0.00    -0.057 C 
ATOM      9  C   UNL     1       3.632  -6.687  -3.098  0.00  0.00    +0.031 C 
ATOM     10  C   UNL     1       3.240  -7.191  -4.502  0.00  0.00    +0.005 C 
ATOM     11  C   UNL     1       1.761  -7.625  -4.339  0.00  0.00    +0.005 C 
ATOM     12  C   UNL     1       1.755  -8.240  -2.914  0.00  0.00    +0.031 C 
ATOM     13  C   UNL     1       1.773  -7.810   0.203  0.00  0.00    +0.249 C 
ATOM     14  O   UNL     1       0.881  -8.599  -0.047  0.00  0.00    -0.270 OA
ATOM     15  N   UNL     1       2.112  -7.360   1.423  0.00  0.00    -0.281 N 
ATOM     16  H   UNL     1       1.671  -7.625   2.245  0.00  0.00    +0.155 HD
ENDROOT
BRANCH   1  17
ATOM     17  S   UNL     1       6.619  -3.697   0.290  0.00  0.00    +0.061 S 
ATOM     18  O   UNL     1       7.134  -4.144  -0.957  0.00  0.00    -0.153 OA
ATOM     19  O   UNL     1       7.426  -3.592   1.455  0.00  0.00    -0.153 OA
BRANCH  17  23
ATOM     20  C   UNL     1       3.695  -0.685  -0.038  0.00  0.00    -0.042 C 
ATOM     21  C   UNL     1       4.476  -0.564   1.008  0.00  0.00    -0.006 C 
ATOM     22  C   UNL     1       5.823  -1.224   1.117  0.00  0.00    +0.137 C 
ATOM     23  N   UNL     1       5.973  -2.195   0.024  0.00  0.00    -0.173 NA
ATOM     24  C   UNL     1       5.529  -1.779  -1.317  0.00  0.00    +0.114 C 
ATOM     25  C   UNL     1       4.021  -1.508  -1.249  0.00  0.00    +0.052 C 
BRANCH  20  29
ATOM     26  C   UNL     1      -0.017   1.379   0.010  0.00  0.00    +0.000 A 
ATOM     27  C   UNL     1       1.168   2.093   0.002  0.00  0.00    +0.001 A 
ATOM     28  C   UNL     1       2.377   1.429  -0.013  0.00  0.00    +0.008 A 
ATOM     29  C   UNL     1       2.403   0.034  -0.021  0.00  0.00    -0.022 A 
ATOM     30  C   UNL     1       1.204  -0.681  -0.013  0.00  0.00    +0.008 A 
ATOM     31  C   UNL     1       0.002  -0.004   0.002  0.00  0.00    +0.001 A 
ENDBRANCH  20  29
ENDBRANCH  17  23
ENDBRANCH   1  17
TORSDOF 3
