REMARK  Name = ZINC22914513
REMARK  6 active torsions:
REMARK  status: ('A' for Active; 'I' for Inactive)
REMARK    1  A    between atoms: C_1  and  O_2
REMARK    2  A    between atoms: O_2  and  C_3
REMARK    3  A    between atoms: C_6  and  N_9
REMARK    4  A    between atoms: N_12  and  C_15
REMARK    5  A    between atoms: N_20  and  C_22
REMARK    6  A    between atoms: C_22  and  C_23
REMARK                            x       y       z     vdW  Elec       q    Type
REMARK                         _______ _______ _______ _____ _____    ______ ____
ROOT
ATOM      1  C   UNL     1       0.771  -0.489  -1.230  0.00  0.00    -0.054 C 
ATOM      2  C   UNL     1       0.002  -0.004   0.002  0.00  0.00    -0.013 C 
ATOM      3  C   UNL     1      -0.019   1.527   0.010  0.00  0.00    +0.014 C 
ATOM      4  C   UNL     1       1.419   2.052  -0.001  0.00  0.00    +0.084 C 
ATOM      5  N   UNL     1       2.112   1.560  -1.198  0.00  0.00    -0.300 NA
ATOM      6  C   UNL     1       2.186   0.094  -1.205  0.00  0.00    +0.069 C 
ENDROOT
BRANCH   1  10
ATOM      7  N   UNL     1       0.427  -4.572  -2.260  0.00  0.00    -0.333 N 
ATOM      8  C   UNL     1      -0.382  -4.074  -1.139  0.00  0.00    +0.086 C 
ATOM      9  C   UNL     1      -0.499  -2.551  -1.235  0.00  0.00    -0.059 C 
ATOM     10  N   UNL     1       0.844  -1.957  -1.216  0.00  0.00    +0.384 N 
ATOM     11  C   UNL     1       1.653  -2.454  -2.337  0.00  0.00    -0.059 C 
ATOM     12  C   UNL     1       1.771  -3.977  -2.241  0.00  0.00    +0.086 C 
ATOM     13  H   UNL     1       1.337  -2.260  -0.280  0.00  0.00    -0.081 HD
BRANCH   7  17
ATOM     14  C   UNL     1       0.635  -8.735  -2.220  0.00  0.00    +0.120 A 
ATOM     15  C   UNL     1       1.286  -8.018  -3.213  0.00  0.00    +0.047 A 
ATOM     16  C   UNL     1       1.218  -6.639  -3.227  0.00  0.00    +0.027 A 
ATOM     17  C   UNL     1       0.497  -5.970  -2.247  0.00  0.00    +0.030 A 
ATOM     18  C   UNL     1      -0.150  -6.688  -1.250  0.00  0.00    +0.027 A 
ATOM     19  C   UNL     1      -0.085  -8.067  -1.240  0.00  0.00    +0.047 A 
BRANCH  14  21
ATOM     20  C   UNL     1       0.010 -10.767  -1.154  0.00  0.00    +0.277 C 
ATOM     21  O   UNL     1       0.704 -10.093  -2.206  0.00  0.00    -0.495 OA
ENDBRANCH  14  21
ENDBRANCH   7  17
ENDBRANCH   1  10
BRANCH   5  22
ATOM     22  C   UNL     1       3.450   2.156  -1.314  0.00  0.00    +0.123 C 
BRANCH  22  23
ATOM     23  C   UNL     1       3.364   3.638  -1.059  0.00  0.00    +0.012 A 
ATOM     24  C   UNL     1       3.353   4.523  -2.122  0.00  0.00    +0.009 A 
ATOM     25  C   UNL     1       3.267   5.883  -1.891  0.00  0.00    +0.004 A 
ATOM     26  C   UNL     1       3.206   6.366  -0.597  0.00  0.00    +0.049 A 
ATOM     27  C   UNL     1       3.223   5.486   0.472  0.00  0.00    +0.167 A 
ATOM     28  C   UNL     1       3.302   4.115   0.240  0.00  0.00    +0.171 A 
ATOM     29  O   UNL     1       3.303   3.468   1.442  0.00  0.00    -0.452 OA
ATOM     30  C   UNL     1       3.635   4.473   2.419  0.00  0.00    +0.466 C 
ATOM     31  O   UNL     1       3.174   5.698   1.820  0.00  0.00    -0.453 OA
ENDBRANCH  22  23
ENDBRANCH   5  22
TORSDOF 5
