REMARK  Name = ZINC64391479
REMARK  9 active torsions:
REMARK  status: ('A' for Active; 'I' for Inactive)
REMARK    1  A    between atoms: C_1  and  C_2
REMARK    2  A    between atoms: N_14  and  C_17
REMARK    3  A    between atoms: C_17  and  C_18
REMARK    4  A    between atoms: C_18  and  C_19
REMARK    5  A    between atoms: N_21  and  C_22
REMARK    6  A    between atoms: C_22  and  C_23
REMARK    7  A    between atoms: C_24  and  C_30
REMARK    8  A    between atoms: N_26  and  C_29
REMARK    9  A    between atoms: C_27  and  C_28
REMARK                            x       y       z     vdW  Elec       q    Type
REMARK                         _______ _______ _______ _____ _____    ______ ____
ROOT
ATOM      1  C   UNL     1      -0.018   1.503   0.010  0.00  0.00    +0.044 C 
ATOM      2  C   UNL     1       0.002  -0.004   0.002  0.00  0.00    -0.050 A 
ATOM      3  C   UNL     1       0.005  -0.679  -1.221  0.00  0.00    +0.005 A 
ATOM      4  C   UNL     1       0.028  -2.033  -1.288  0.00  0.00    +0.026 A 
ATOM      5  C   UNL     1       0.052  -2.800  -0.098  0.00  0.00    +0.045 A 
ATOM      6  N   UNL     1       0.035  -4.111   0.101  0.00  0.00    -0.368 N 
ATOM      7  C   UNL     1       0.232  -4.358   1.514  0.00  0.00    +0.216 C 
ATOM      8  C   UNL     1       0.040  -3.026   2.208  0.00  0.00    +0.083 C 
ATOM      9  C   UNL     1       0.036  -2.084   1.193  0.00  0.00    +0.022 A 
ATOM     10  C   UNL     1       0.022  -0.673   1.183  0.00  0.00    +0.015 A 
ATOM     11  N   UNL     1      -0.244  -2.922   3.501  0.00  0.00    -0.241 NA
ATOM     12  C   UNL     1      -0.664  -4.004   4.127  0.00  0.00    +0.191 C 
ATOM     13  N   UNL     1      -0.973  -5.154   3.475  0.00  0.00    -0.260 N 
ATOM     14  C   UNL     1      -0.710  -5.324   2.166  0.00  0.00    +0.249 C 
ATOM     15  O   UNL     1      -1.207  -6.240   1.546  0.00  0.00    -0.273 OA
ATOM     16  H   UNL     1      -0.089  -4.789  -0.582  0.00  0.00    +0.161 HD
ENDROOT
BRANCH  13  17
ATOM     17  C   UNL     1      -1.631  -6.231   4.218  0.00  0.00    +0.124 C 
BRANCH  17  18
ATOM     18  C   UNL     1      -3.149  -6.061   4.127  0.00  0.00    +0.115 C 
BRANCH  18  19
ATOM     19  C   UNL     1      -3.826  -7.169   4.892  0.00  0.00    +0.215 C 
ATOM     20  O   UNL     1      -3.160  -8.012   5.455  0.00  0.00    -0.276 OA
ATOM     21  N   UNL     1      -5.171  -7.223   4.950  0.00  0.00    -0.311 N 
ATOM     22  H   UNL     1      -5.704  -6.549   4.500  0.00  0.00    +0.149 HD
BRANCH  21  23
ATOM     23  C   UNL     1      -5.829  -8.300   5.694  0.00  0.00    +0.143 C 
BRANCH  23  24
ATOM     24  C   UNL     1      -7.324  -8.133   5.604  0.00  0.00    +0.013 A 
ATOM     25  C   UNL     1      -8.125  -7.400   6.486  0.00  0.00    +0.065 A 
ATOM     26  N   UNL     1      -9.366  -7.488   6.081  0.00  0.00    -0.176 NA
ATOM     27  N   UNL     1      -9.394  -8.281   4.927  0.00  0.00    -0.271 N 
ATOM     28  C   UNL     1      -8.129  -8.659   4.652  0.00  0.00    +0.041 A 
ATOM     29  C   UNL     1      -7.690  -9.518   3.493  0.00  0.00    +0.065 C 
ATOM     30  C   UNL     1     -10.587  -8.632   4.152  0.00  0.00    +0.172 C 
ATOM     31  C   UNL     1      -7.641  -6.640   7.694  0.00  0.00    +0.068 C 
ENDBRANCH  23  24
ENDBRANCH  21  23
ENDBRANCH  18  19
ENDBRANCH  17  18
ENDBRANCH  13  17
TORSDOF 5
