REMARK  Name = ZINC03092279
REMARK  3 active torsions:
REMARK  status: ('A' for Active; 'I' for Inactive)
REMARK    1  A    between atoms: C_3  and  O_26
REMARK    2  A    between atoms: C_6  and  C_7
REMARK    3  A    between atoms: N_8  and  N_9
REMARK                            x       y       z     vdW  Elec       q    Type
REMARK                         _______ _______ _______ _____ _____    ______ ____
ROOT
ATOM      1  N   UNL     1      -1.248  -0.636  -0.032  0.00  0.00    -0.119 N 
ATOM      2  C   UNL     1      -2.353   0.137  -0.082  0.00  0.00    +0.274 C 
ATOM      3  O   UNL     1      -2.247   1.349  -0.096  0.00  0.00    -0.268 OA
ATOM      4  C   UNL     1      -3.682  -0.485  -0.124  0.00  0.00    +0.047 A 
ATOM      5  C   UNL     1      -4.877   0.218  -0.181  0.00  0.00    +0.014 A 
ATOM      6  C   UNL     1      -6.106  -0.444  -0.214  0.00  0.00    +0.005 A 
ATOM      7  C   UNL     1      -6.179  -1.808  -0.190  0.00  0.00    -0.039 A 
ATOM      8  C   UNL     1      -4.987  -2.524  -0.133  0.00  0.00    -0.010 A 
ATOM      9  C   UNL     1      -3.744  -1.896  -0.099  0.00  0.00    +0.007 A 
ATOM     10  C   UNL     1      -2.573  -2.685  -0.042  0.00  0.00    +0.047 A 
ATOM     11  C   UNL     1      -2.718  -4.064  -0.021  0.00  0.00    +0.014 A 
ATOM     12  C   UNL     1      -3.980  -4.661  -0.056  0.00  0.00    +0.005 A 
ATOM     13  C   UNL     1      -5.120  -3.910  -0.111  0.00  0.00    -0.039 A 
ATOM     14  C   UNL     1      -6.599  -4.204  -0.158  0.00  0.00    +0.040 C 
ATOM     15  C   UNL     1      -7.295  -2.824  -0.210  0.00  0.00    +0.040 C 
ATOM     16  C   UNL     1      -1.284  -1.984  -0.008  0.00  0.00    +0.274 C 
ATOM     17  O   UNL     1      -0.247  -2.619   0.042  0.00  0.00    -0.268 OA
ENDROOT
BRANCH   1  19
ATOM     18  C   UNL     1       0.822  -0.133  -0.996  0.00  0.00    +0.139 C 
ATOM     19  N   UNL     1       0.002  -0.004   0.002  0.00  0.00    -0.177 NA
BRANCH  18  25
ATOM     20  C   UNL     1       2.584   1.118   0.237  0.00  0.00    +0.013 A 
ATOM     21  C   UNL     1       3.856   1.643   0.312  0.00  0.00    +0.046 A 
ATOM     22  C   UNL     1       4.732   1.503  -0.757  0.00  0.00    +0.117 A 
ATOM     23  C   UNL     1       4.332   0.830  -1.905  0.00  0.00    +0.046 A 
ATOM     24  C   UNL     1       3.064   0.297  -1.986  0.00  0.00    +0.013 A 
ATOM     25  C   UNL     1       2.179   0.435  -0.913  0.00  0.00    -0.005 A 
BRANCH  22  26
ATOM     26  O   UNL     1       5.982   2.027  -0.681  0.00  0.00    -0.507 OA
ATOM     27  H   UNL     1       6.048   2.937  -1.001  0.00  0.00    +0.292 HD
ENDBRANCH  22  26
ENDBRANCH  18  25
ENDBRANCH   1  19
TORSDOF 3
