REMARK  Name = ZINC12313864
REMARK  6 active torsions:
REMARK  status: ('A' for Active; 'I' for Inactive)
REMARK    1  A    between atoms: C_1  and  O_2
REMARK    2  A    between atoms: O_2  and  C_3
REMARK    3  A    between atoms: C_8  and  C_9
REMARK    4  A    between atoms: C_9  and  N_10
REMARK    5  A    between atoms: C_15  and  C_23
REMARK    6  A    between atoms: N_26  and  C_28
REMARK                            x       y       z     vdW  Elec       q    Type
REMARK                         _______ _______ _______ _____ _____    ______ ____
ROOT
ATOM      1  N   UNL     1       2.006   0.073  -2.792  0.00  0.00    -0.298 N 
ATOM      2  C   UNL     1       2.880   0.837  -1.896  0.00  0.00    +0.110 C 
ATOM      3  C   UNL     1       1.981   1.865  -1.186  0.00  0.00    +0.003 C 
ATOM      4  C   UNL     1       1.499   1.324   0.167  0.00  0.00    -0.007 C 
ATOM      5  C   UNL     1      -0.013   1.086   0.008  0.00  0.00    -0.033 C 
ATOM      6  C   UNL     1       0.731   1.898  -2.086  0.00  0.00    +0.018 C 
ATOM      7  C   UNL     1       0.816   0.680  -2.954  0.00  0.00    +0.206 C 
ATOM      8  O   UNL     1      -0.062   0.297  -3.697  0.00  0.00    -0.277 OA
ATOM      9  C   UNL     1       0.618   3.208  -2.861  0.00  0.00    -0.004 C 
ATOM     10  C   UNL     1      -0.135   4.151  -1.897  0.00  0.00    -0.019 C 
ATOM     11  C   UNL     1      -0.769   3.237  -0.833  0.00  0.00    -0.077 C 
ATOM     12  N   UNL     1      -0.407   1.851  -1.188  0.00  0.00    +0.394 N 
ATOM     13  H   UNL     1      -1.204   1.393  -1.646  0.00  0.00    -0.079 HD
ENDROOT
BRANCH   5  14
ATOM     14  C   UNL     1      -0.745   1.585   1.227  0.00  0.00    -0.023 A 
ATOM     15  C   UNL     1      -0.170   1.887   2.466  0.00  0.00    +0.136 A 
ATOM     16  N   UNL     1      -1.120   2.292   3.271  0.00  0.00    -0.175 NA
ATOM     17  N   UNL     1      -2.333   2.252   2.571  0.00  0.00    -0.240 N 
ATOM     18  C   UNL     1      -2.075   1.814   1.318  0.00  0.00    +0.116 A 
BRANCH  17  19
ATOM     19  C   UNL     1      -3.591   2.604   3.080  0.00  0.00    +0.065 A 
ATOM     20  C   UNL     1      -4.716   2.523   2.271  0.00  0.00    +0.028 A 
ATOM     21  C   UNL     1      -5.955   2.865   2.777  0.00  0.00    +0.002 A 
ATOM     22  C   UNL     1      -6.073   3.300   4.084  0.00  0.00    +0.000 A 
ATOM     23  C   UNL     1      -4.953   3.387   4.891  0.00  0.00    +0.002 A 
ATOM     24  C   UNL     1      -3.713   3.041   4.392  0.00  0.00    +0.028 A 
ENDBRANCH  17  19
ENDBRANCH   5  14
BRANCH   1  25
ATOM     25  C   UNL     1       2.380  -1.192  -3.430  0.00  0.00    +0.146 C 
BRANCH  25  31
ATOM     26  C   UNL     1       4.355  -0.521  -4.822  0.00  0.00    +0.125 A 
ATOM     27  C   UNL     1       4.947  -0.268  -6.051  0.00  0.00    +0.046 A 
ATOM     28  C   UNL     1       4.208  -0.393  -7.211  0.00  0.00    +0.004 A 
ATOM     29  C   UNL     1       2.881  -0.776  -7.149  0.00  0.00    +0.001 A 
ATOM     30  C   UNL     1       2.290  -1.035  -5.926  0.00  0.00    +0.009 A 
ATOM     31  C   UNL     1       3.025  -0.910  -4.763  0.00  0.00    +0.011 A 
BRANCH  26  33
ATOM     32  C   UNL     1       6.441   0.013  -3.815  0.00  0.00    +0.277 C 
ATOM     33  O   UNL     1       5.078  -0.392  -3.678  0.00  0.00    -0.495 OA
ENDBRANCH  26  33
ENDBRANCH  25  31
ENDBRANCH   1  25
TORSDOF 5
