REMARK  Name = ZINC44365516
REMARK  5 active torsions:
REMARK  status: ('A' for Active; 'I' for Inactive)
REMARK    1  A    between atoms: C_1  and  C_2
REMARK    2  A    between atoms: C_2  and  C_19
REMARK    3  A    between atoms: C_4  and  N_6
REMARK    4  A    between atoms: C_7  and  C_9
REMARK    5  A    between atoms: C_11  and  N_16
REMARK                            x       y       z     vdW  Elec       q    Type
REMARK                         _______ _______ _______ _____ _____    ______ ____
ROOT
ATOM      1  C   UNL     1       3.151  -3.606   1.372  0.00  0.00    +0.057 A 
ATOM      2  C   UNL     1       2.785  -4.382   0.271  0.00  0.00    +0.047 A 
ATOM      3  C   UNL     1       3.461  -5.553   0.001  0.00  0.00    +0.127 A 
ATOM      4  C   UNL     1       4.500  -5.961   0.819  0.00  0.00    +0.034 A 
ATOM      5  C   UNL     1       4.869  -5.198   1.912  0.00  0.00    +0.023 A 
ATOM      6  C   UNL     1       4.205  -4.019   2.191  0.00  0.00    +0.053 A 
ATOM      7 CL   UNL     1       4.673  -3.059   3.559  0.00  0.00    -0.083 Cl
ENDROOT
BRANCH   1   9
ATOM      8  N   UNL     1       1.415  -1.953   0.875  0.00  0.00    -0.308 N 
ATOM      9  C   UNL     1       2.431  -2.349   1.667  0.00  0.00    +0.246 C 
ATOM     10  O   UNL     1       2.755  -1.673   2.623  0.00  0.00    -0.270 OA
ATOM     11  H   UNL     1       1.156  -2.493   0.112  0.00  0.00    +0.149 HD
BRANCH   8  15
ATOM     12  C   UNL     1      -0.019   1.526   0.010  0.00  0.00    +0.013 C 
ATOM     13  C   UNL     1       0.002  -0.004   0.002  0.00  0.00    -0.015 C 
ATOM     14  C   UNL     1      -0.825  -0.728   1.066  0.00  0.00    +0.031 C 
ATOM     15  C   UNL     1       0.701  -0.708   1.167  0.00  0.00    +0.080 C 
ATOM     16  C   UNL     1       0.102  -0.655  -1.379  0.00  0.00    +0.013 C 
ENDBRANCH   8  15
ENDBRANCH   1   9
BRANCH   3  17
ATOM     17  N   UNL     1       3.074  -6.377  -1.166  0.00  0.00    +0.056 N 
ATOM     18  O   UNL     1       2.166  -6.023  -1.882  0.00  0.00    -0.126 OA
ATOM     19  O   UNL     1       3.666  -7.404  -1.404  0.00  0.00    -0.126 OA
ENDBRANCH   3  17
TORSDOF 3
