REMARK  Name = ZINC15297200
REMARK  8 active torsions:
REMARK  status: ('A' for Active; 'I' for Inactive)
REMARK    1  A    between atoms: C_1  and  N_57
REMARK    2  A    between atoms: C_2  and  C_3
REMARK    3  A    between atoms: C_2  and  N_57
REMARK    4  A    between atoms: C_14  and  C_15
REMARK    5  A    between atoms: C_14  and  N_57
REMARK    6  A    between atoms: N_17  and  C_18
REMARK    7  A    between atoms: N_17  and  C_24
REMARK    8  A    between atoms: C_18  and  C_19
REMARK                            x       y       z     vdW  Elec       q    Type
REMARK                         _______ _______ _______ _____ _____    ______ ____
ROOT
ATOM      1  C   UNL     1      -2.871   1.789  -2.376  0.00  0.00    +0.019 C 
ENDROOT
BRANCH   1   3
ATOM      2  C   UNL     1      -2.970   2.214   0.005  0.00  0.00    -0.095 C 
ATOM      3  N   UNL     1      -2.241   1.507  -1.069  0.00  0.00    +0.386 N 
ATOM      4  H   UNL     1      -2.281   0.497  -0.891  0.00  0.00    -0.081 HD
BRANCH   3   5
ATOM      5  C   UNL     1      -0.827   1.936  -1.087  0.00  0.00    -0.030 C 
BRANCH   5   6
ATOM      6  C   UNL     1      -0.143   1.434   0.186  0.00  0.00    +0.194 C 
ATOM      7  C   UNL     1       1.309   1.929   0.225  0.00  0.00    +0.271 C 
ATOM      8  O   UNL     1       1.921   1.431   1.419  0.00  0.00    -0.485 OA
ATOM      9  C   UNL     1       1.721   0.116   1.706  0.00  0.00    +0.162 A 
ATOM     10  C   UNL     1       2.551  -0.515   2.620  0.00  0.00    +0.049 A 
ATOM     11  C   UNL     1       2.357  -1.849   2.927  0.00  0.00    +0.004 A 
ATOM     12  C   UNL     1       1.335  -2.557   2.323  0.00  0.00    +0.004 A 
ATOM     13  C   UNL     1       0.505  -1.935   1.410  0.00  0.00    +0.049 A 
ATOM     14  C   UNL     1       0.695  -0.597   1.097  0.00  0.00    +0.162 A 
ATOM     15  O   UNL     1      -0.129   0.002   0.194  0.00  0.00    -0.484 OA
ENDBRANCH   5   6
ENDBRANCH   3   5
ENDBRANCH   1   3
BRANCH   1  16
ATOM     16  C   UNL     1      -4.234   1.148  -2.408  0.00  0.00    +0.203 C 
ATOM     17  O   UNL     1      -4.598   0.452  -1.484  0.00  0.00    -0.277 OA
ATOM     18  N   UNL     1      -5.050   1.349  -3.462  0.00  0.00    -0.270 N 
BRANCH  18  19
ATOM     19  C   UNL     1      -4.591   2.055  -4.572  0.00  0.00    +0.010 C 
ATOM     20  C   UNL     1      -3.627   1.530  -5.276  0.00  0.00    -0.008 C 
ATOM     21  C   UNL     1      -3.027   2.179  -6.489  0.00  0.00    +0.029 C 
ATOM     22  C   UNL     1      -3.956   3.276  -7.014  0.00  0.00    +0.004 C 
ATOM     23  C   UNL     1      -4.353   4.178  -5.840  0.00  0.00    +0.006 C 
ATOM     24  C   UNL     1      -5.241   3.370  -4.889  0.00  0.00    +0.051 C 
ENDBRANCH  18  19
BRANCH  18  25
ATOM     25  C   UNL     1      -6.418   0.826  -3.441  0.00  0.00    +0.187 C 
BRANCH  25  26
ATOM     26  C   UNL     1      -7.318   1.802  -2.729  0.00  0.00    +0.122 A 
ATOM     27  C   UNL     1      -7.995   2.812  -3.305  0.00  0.00    +0.046 A 
ATOM     28  C   UNL     1      -8.707   3.468  -2.275  0.00  0.00    +0.041 A 
ATOM     29  C   UNL     1      -8.423   2.820  -1.131  0.00  0.00    +0.195 A 
ATOM     30  O   UNL     1      -7.586   1.808  -1.413  0.00  0.00    -0.466 OA
ENDBRANCH  25  26
ENDBRANCH  18  25
ENDBRANCH   1  16
TORSDOF 7
