REMARK  Name = ZINC05123090
REMARK  4 active torsions:
REMARK  status: ('A' for Active; 'I' for Inactive)
REMARK    1  A    between atoms: C_1  and  C_2
REMARK    2  A    between atoms: C_8  and  N_10
REMARK    3  A    between atoms: N_13  and  C_14
REMARK    4  A    between atoms: N_19  and  C_21
REMARK                            x       y       z     vdW  Elec       q    Type
REMARK                         _______ _______ _______ _____ _____    ______ ____
ROOT
ATOM      1  N   UNL     1       0.005   1.355   0.027  0.00  0.00    -0.296 N 
ATOM      2  C   UNL     1       0.018   0.008   0.009  0.00  0.00    +0.300 C 
ATOM      3  O   UNL     1      -1.029  -0.610   0.001  0.00  0.00    -0.253 OA
ATOM      4  N   UNL     1       1.192  -0.654  -0.001  0.00  0.00    -0.295 N 
ATOM      5  H   UNL     1       0.840   1.849   0.033  0.00  0.00    +0.151 HD
ATOM      6  H   UNL     1       2.027  -0.161   0.005  0.00  0.00    +0.151 HD
ENDROOT
BRANCH   1  13
ATOM      7  C   UNL     1      -0.558   3.351  -1.995  0.00  0.00    +0.009 C 
ATOM      8  C   UNL     1      -1.070   3.473  -0.558  0.00  0.00    +0.006 C 
ATOM      9  C   UNL     1      -2.402   4.225  -0.554  0.00  0.00    +0.005 C 
ATOM     10  C   UNL     1      -2.914   4.346   0.883  0.00  0.00    +0.000 C 
ATOM     11  C   UNL     1      -3.115   2.949   1.473  0.00  0.00    +0.002 C 
ATOM     12  C   UNL     1      -1.783   2.197   1.468  0.00  0.00    +0.022 C 
ATOM     13  C   UNL     1      -1.271   2.075   0.031  0.00  0.00    +0.077 C 
ENDBRANCH   1  13
BRANCH   4  14
ATOM     14  C   UNL     1       1.206  -2.119  -0.021  0.00  0.00    +0.101 C 
ATOM     15  C   UNL     1       1.278  -2.692   1.413  0.00  0.00    +0.120 C 
ATOM     16  C   UNL     1       2.170  -3.906   1.284  0.00  0.00    +0.222 C 
ATOM     17  O   UNL     1       2.261  -4.793   2.107  0.00  0.00    -0.275 OA
ATOM     18  N   UNL     1       2.848  -3.861   0.124  0.00  0.00    -0.270 N 
ATOM     19  C   UNL     1       2.518  -2.651  -0.639  0.00  0.00    +0.136 C 
BRANCH  18  20
ATOM     20  C   UNL     1       3.752  -4.840  -0.302  0.00  0.00    +0.036 A 
ATOM     21  C   UNL     1       4.093  -5.887   0.545  0.00  0.00    +0.023 A 
ATOM     22  C   UNL     1       4.981  -6.856   0.119  0.00  0.00    +0.002 A 
ATOM     23  C   UNL     1       5.539  -6.778  -1.143  0.00  0.00    +0.000 A 
ATOM     24  C   UNL     1       5.206  -5.734  -1.986  0.00  0.00    +0.002 A 
ATOM     25  C   UNL     1       4.314  -4.765  -1.569  0.00  0.00    +0.023 A 
ENDBRANCH  18  20
ENDBRANCH   4  14
TORSDOF 3
