REMARK  Name = ZINC24493236
REMARK  8 active torsions:
REMARK  status: ('A' for Active; 'I' for Inactive)
REMARK    1  A    between atoms: C_1  and  C_2
REMARK    2  A    between atoms: C_3  and  C_12
REMARK    3  A    between atoms: C_5  and  C_7
REMARK    4  A    between atoms: C_12  and  C_13
REMARK    5  A    between atoms: N_15  and  C_16
REMARK    6  A    between atoms: C_16  and  C_17
REMARK    7  A    between atoms: C_17  and  C_19
REMARK    8  A    between atoms: C_17  and  N_24
REMARK                            x       y       z     vdW  Elec       q    Type
REMARK                         _______ _______ _______ _____ _____    ______ ____
ROOT
ATOM      1  C   UNL     1       2.352   2.479   2.013  0.00  0.00    +0.219 C 
ATOM      2  O   UNL     1       1.669   3.304   1.443  0.00  0.00    -0.275 OA
ATOM      3  N   UNL     1       3.560   2.823   2.499  0.00  0.00    -0.316 N 
ATOM      4  H   UNL     1       4.179   2.075   3.016  0.00  0.00    +0.149 HD
ENDROOT
BRANCH   1   5
ATOM      5  C   UNL     1       1.847   1.068   2.178  0.00  0.00    +0.154 C 
BRANCH   5   8
ATOM      6  C   UNL     1       1.244   0.281  -0.785  0.00  0.00    +0.088 C 
ATOM      7  C   UNL     1       0.224   0.607   0.276  0.00  0.00    +0.126 A 
ATOM      8  C   UNL     1       0.482   0.946   1.552  0.00  0.00    +0.091 A 
ATOM      9  N   UNL     1      -0.691   1.156   2.168  0.00  0.00    -0.213 NA
ATOM     10  C   UNL     1      -1.662   0.954   1.303  0.00  0.00    +0.234 A 
ATOM     11  O   UNL     1      -1.116   0.618   0.120  0.00  0.00    -0.440 OA
BRANCH  10  12
ATOM     12  C   UNL     1      -3.100   1.081   1.581  0.00  0.00    +0.074 A 
ATOM     13  C   UNL     1      -4.172   0.887   0.730  0.00  0.00    +0.021 A 
ATOM     14  C   UNL     1      -5.442   1.067   1.226  0.00  0.00    +0.008 A 
ATOM     15  C   UNL     1      -5.603   1.428   2.526  0.00  0.00    +0.046 A 
ATOM     16  S   UNL     1      -3.918   1.519   3.106  0.00  0.00    -0.092 S 
ENDBRANCH  10  12
ENDBRANCH   5   8
ENDBRANCH   1   5
BRANCH   3  17
ATOM     17  C   UNL     1       4.050   4.195   2.338  0.00  0.00    +0.096 C 
BRANCH  17  18
ATOM     18  C   UNL     1       5.486   4.287   2.859  0.00  0.00    +0.016 C 
BRANCH  18  19
ATOM     19  N   UNL     1       5.539   3.788   4.239  0.00  0.00    +0.387 N 
ATOM     20  C   UNL     1       4.646   4.559   5.113  0.00  0.00    -0.078 C 
ATOM     21  C   UNL     1       4.616   3.922   6.505  0.00  0.00    -0.019 C 
ATOM     22  C   UNL     1       6.034   3.904   7.082  0.00  0.00    -0.004 C 
ATOM     23  C   UNL     1       6.955   3.136   6.130  0.00  0.00    -0.019 C 
ATOM     24  C   UNL     1       6.917   3.795   4.749  0.00  0.00    -0.078 C 
ATOM     25  H   UNL     1       5.188   2.745   4.237  0.00  0.00    -0.081 HD
ENDBRANCH  18  19
BRANCH  18  26
ATOM     26  C   UNL     1       6.391   3.455   1.988  0.00  0.00    +0.093 A 
ATOM     27  C   UNL     1       7.186   3.921   1.008  0.00  0.00    +0.043 A 
ATOM     28  C   UNL     1       7.854   2.803   0.457  0.00  0.00    +0.041 A 
ATOM     29  C   UNL     1       7.426   1.721   1.132  0.00  0.00    +0.195 A 
ATOM     30  O   UNL     1       6.545   2.123   2.063  0.00  0.00    -0.469 OA
ENDBRANCH  18  26
ENDBRANCH  17  18
ENDBRANCH   3  17
TORSDOF 7
