REMARK  Name = ZINC63341176
REMARK  10 active torsions:
REMARK  status: ('A' for Active; 'I' for Inactive)
REMARK    1  A    between atoms: C_1  and  C_2
REMARK    2  A    between atoms: C_2  and  C_3
REMARK    3  A    between atoms: C_3  and  C_4
REMARK    4  A    between atoms: C_3  and  C_5
REMARK    5  A    between atoms: C_5  and  C_6
REMARK    6  A    between atoms: C_5  and  N_24
REMARK    7  A    between atoms: C_11  and  C_14
REMARK    8  A    between atoms: N_16  and  C_17
REMARK    9  A    between atoms: C_17  and  C_18
REMARK   10  A    between atoms: C_18  and  C_19
REMARK                            x       y       z     vdW  Elec       q    Type
REMARK                         _______ _______ _______ _____ _____    ______ ____
ROOT
ATOM      1  C   UNL     1       1.210  -2.504   2.762  0.00  0.00    +0.236 C 
ATOM      2  O   UNL     1       2.326  -2.784   3.144  0.00  0.00    -0.274 OA
ATOM      3  N   UNL     1       0.165  -2.595   3.609  0.00  0.00    -0.300 N 
ATOM      4  C   UNL     1      -1.194  -2.266   3.159  0.00  0.00    +0.108 C 
ATOM      5  C   UNL     1      -1.791  -1.227   4.113  0.00  0.00    +0.032 C 
ATOM      6  C   UNL     1      -1.715  -1.754   5.547  0.00  0.00    +0.078 C 
ATOM      7  C   UNL     1      -0.251  -1.978   5.933  0.00  0.00    +0.032 C 
ATOM      8  C   UNL     1       0.363  -3.031   4.998  0.00  0.00    +0.108 C 
ENDROOT
BRANCH   6   9
ATOM      9  C   UNL     1      -2.332  -0.748   6.485  0.00  0.00    +0.216 C 
ATOM     10  O   UNL     1      -2.788   0.287   6.049  0.00  0.00    -0.276 OA
ATOM     11  N   UNL     1      -2.377  -1.000   7.808  0.00  0.00    -0.315 N 
ATOM     12  H   UNL     1      -2.012  -1.828   8.157  0.00  0.00    +0.149 HD
BRANCH  11  13
ATOM     13  C   UNL     1      -2.977  -0.023   8.720  0.00  0.00    +0.109 C 
BRANCH  13  14
ATOM     14  C   UNL     1      -2.901  -0.549  10.154  0.00  0.00    +0.061 C 
BRANCH  14  15
ATOM     15  C   UNL     1      -3.518   0.456  11.092  0.00  0.00    -0.009 A 
ATOM     16  C   UNL     1      -4.804   0.558  11.507  0.00  0.00    +0.011 A 
ATOM     17  C   UNL     1      -5.148   1.573  12.381  0.00  0.00    +0.008 A 
ATOM     18  C   UNL     1      -4.189   2.435  12.797  0.00  0.00    +0.045 A 
ATOM     19  S   UNL     1      -2.744   1.817  11.950  0.00  0.00    -0.102 S 
ENDBRANCH  14  15
ENDBRANCH  13  14
ENDBRANCH  11  13
ENDBRANCH   6   9
BRANCH   1  20
ATOM     20  C   UNL     1       0.990  -2.056   1.340  0.00  0.00    +0.163 C 
BRANCH  20  21
ATOM     21  N   UNL     1       2.122  -2.481   0.513  0.00  0.00    -0.288 N 
ATOM     22  C   UNL     1       2.141  -3.720  -0.018  0.00  0.00    +0.298 C 
ATOM     23  O   UNL     1       1.265  -4.515   0.263  0.00  0.00    -0.253 OA
ATOM     24  N   UNL     1       3.130  -4.076  -0.861  0.00  0.00    -0.313 N 
ATOM     25  H   UNL     1       2.859  -1.871   0.348  0.00  0.00    +0.151 HD
ATOM     26  H   UNL     1       3.829  -3.442  -1.085  0.00  0.00    +0.146 HD
ATOM     27  H   UNL     1       3.144  -4.968  -1.243  0.00  0.00    +0.146 HD
ENDBRANCH  20  21
BRANCH  20  28
ATOM     28  C   UNL     1       0.873  -0.531   1.299  0.00  0.00    +0.015 C 
ATOM     29  C   UNL     1       2.171   0.095   1.815  0.00  0.00    +0.010 C 
BRANCH  28  31
ATOM     30  C   UNL     1       0.385   1.434  -0.166  0.00  0.00    +0.004 C 
ATOM     31  C   UNL     1       0.626  -0.077  -0.141  0.00  0.00    +0.002 C 
ENDBRANCH  28  31
ENDBRANCH  20  28
ENDBRANCH   1  20
TORSDOF 8
