REMARK  Name = ZINC23128785
REMARK  6 active torsions:
REMARK  status: ('A' for Active; 'I' for Inactive)
REMARK    1  A    between atoms: C_1  and  C_2
REMARK    2  A    between atoms: C_2  and  C_3
REMARK    3  A    between atoms: C_10  and  C_12
REMARK    4  A    between atoms: C_15  and  C_17
REMARK    5  A    between atoms: C_17  and  N_18
REMARK    6  A    between atoms: N_21  and  C_24
REMARK                            x       y       z     vdW  Elec       q    Type
REMARK                         _______ _______ _______ _____ _____    ______ ____
ROOT
ATOM      1  C   UNL     1       2.766   3.276   1.730  0.00  0.00    +0.164 A 
ATOM      2  C   UNL     1       3.133   3.909   2.878  0.00  0.00    +0.230 A 
ATOM      3  O   UNL     1       4.319   4.492   2.642  0.00  0.00    -0.449 OA
ATOM      4  C   UNL     1       4.673   4.224   1.377  0.00  0.00    +0.179 A 
ATOM      5  N   UNL     1       3.755   3.492   0.821  0.00  0.00    -0.210 NA
ENDROOT
BRANCH   1  12
ATOM      6  C   UNL     1       0.086   1.142   0.080  0.00  0.00    +0.076 C 
ATOM      7  C   UNL     1      -0.407   1.602  -1.296  0.00  0.00    +0.022 C 
ATOM      8  C   UNL     1       0.685   1.348  -2.337  0.00  0.00    +0.003 C 
ATOM      9  C   UNL     1       1.934   2.155  -1.976  0.00  0.00    +0.019 C 
ATOM     10  C   UNL     1       2.454   1.701  -0.608  0.00  0.00    +0.108 C 
ATOM     11  N   UNL     1       1.363   1.806   0.371  0.00  0.00    -0.293 N 
ATOM     12  C   UNL     1       1.532   2.499   1.515  0.00  0.00    +0.268 C 
ATOM     13  O   UNL     1       0.667   2.482   2.369  0.00  0.00    -0.268 OA
BRANCH   6  15
ATOM     14  C   UNL     1      -2.283   0.856   0.820  0.00  0.00    +0.006 C 
ATOM     15  C   UNL     1      -0.943   1.516   1.149  0.00  0.00    +0.019 C 
ENDBRANCH   6  15
ENDBRANCH   1  12
BRANCH   4  16
ATOM     16  C   UNL     1       5.939   4.693   0.708  0.00  0.00    +0.019 C 
BRANCH  16  17
ATOM     17  N   UNL     1       5.702   5.993   0.066  0.00  0.00    +0.388 N 
ATOM     18  C   UNL     1       4.749   5.865  -1.046  0.00  0.00    -0.059 C 
ATOM     19  C   UNL     1       4.469   7.250  -1.635  0.00  0.00    +0.086 C 
ATOM     20  N   UNL     1       5.730   7.850  -2.092  0.00  0.00    -0.331 N 
ATOM     21  C   UNL     1       6.683   7.977  -0.980  0.00  0.00    +0.086 C 
ATOM     22  C   UNL     1       6.963   6.593  -0.391  0.00  0.00    -0.059 C 
ATOM     23  H   UNL     1       5.259   6.664   0.818  0.00  0.00    -0.081 HD
BRANCH  20  24
ATOM     24  C   UNL     1       5.504   9.087  -2.703  0.00  0.00    +0.065 A 
ATOM     25  C   UNL     1       6.561   9.786  -3.270  0.00  0.00    +0.026 A 
ATOM     26  C   UNL     1       6.334  11.007  -3.876  0.00  0.00    +0.002 A 
ATOM     27  C   UNL     1       5.057  11.538  -3.910  0.00  0.00    +0.003 A 
ATOM     28  C   UNL     1       4.002  10.848  -3.342  0.00  0.00    +0.040 A 
ATOM     29  C   UNL     1       4.221   9.623  -2.738  0.00  0.00    +0.144 A 
ATOM     30  F   UNL     1       3.191   8.949  -2.182  0.00  0.00    -0.204 F 
ENDBRANCH  20  24
ENDBRANCH  16  17
ENDBRANCH   4  16
TORSDOF 5
