REMARK  Name = ZINC67287699
REMARK  5 active torsions:
REMARK  status: ('A' for Active; 'I' for Inactive)
REMARK    1  A    between atoms: C_1  and  C_2
REMARK    2  A    between atoms: C_2  and  C_4
REMARK    3  A    between atoms: C_2  and  N_14
REMARK    4  A    between atoms: N_17  and  C_18
REMARK    5  A    between atoms: C_21  and  N_25
REMARK                            x       y       z     vdW  Elec       q    Type
REMARK                         _______ _______ _______ _____ _____    ______ ____
ROOT
ATOM      1  N   UNL     1       0.713  -0.468   1.195  0.00  0.00    -0.293 N 
ATOM      2  C   UNL     1       2.055  -0.591   1.176  0.00  0.00    +0.304 C 
ATOM      3  O   UNL     1       2.679  -0.292   0.177  0.00  0.00    -0.252 OA
ATOM      4  N   UNL     1       2.706  -1.046   2.266  0.00  0.00    -0.269 N 
ATOM      5  H   UNL     1       0.215  -0.707   1.993  0.00  0.00    +0.151 HD
ATOM      6  H   UNL     1       2.216  -1.225   3.083  0.00  0.00    +0.156 HD
ENDROOT
BRANCH   4   7
ATOM      7  C   UNL     1       4.089  -1.261   2.216  0.00  0.00    +0.036 A 
ATOM      8  C   UNL     1       4.653  -2.319   2.917  0.00  0.00    +0.025 A 
ATOM      9  C   UNL     1       6.016  -2.531   2.869  0.00  0.00    +0.031 A 
ATOM     10  C   UNL     1       6.824  -1.686   2.121  0.00  0.00    +0.084 A 
ATOM     11  C   UNL     1       6.260  -0.627   1.419  0.00  0.00    +0.068 A 
ATOM     12  C   UNL     1       4.895  -0.419   1.463  0.00  0.00    +0.045 A 
ATOM     13 CL   UNL     1       7.271   0.430   0.484  0.00  0.00    -0.081 Cl
BRANCH  10  14
ATOM     14  N   UNL     1       8.210  -1.901   2.073  0.00  0.00    -0.238 N 
ATOM     15  C   UNL     1       8.824  -3.075   1.808  0.00  0.00    +0.114 A 
ATOM     16  C   UNL     1      10.159  -2.862   1.857  0.00  0.00    +0.041 A 
ATOM     17  C   UNL     1      10.369  -1.513   2.162  0.00  0.00    +0.135 A 
ATOM     18  N   UNL     1       9.201  -0.935   2.286  0.00  0.00    -0.175 NA
ENDBRANCH  10  14
ENDBRANCH   4   7
BRANCH   1  20
ATOM     19  C   UNL     1      -0.000   1.556   0.023  0.00  0.00    +0.033 C 
ATOM     20  C   UNL     1       0.006   0.026   0.011  0.00  0.00    +0.102 C 
BRANCH  20  21
ATOM     21  C   UNL     1      -1.413  -0.482   0.025  0.00  0.00    -0.027 A 
ATOM     22  C   UNL     1      -2.123  -0.524   1.211  0.00  0.00    +0.007 A 
ATOM     23  C   UNL     1      -3.422  -0.988   1.230  0.00  0.00    +0.024 A 
ATOM     24  C   UNL     1      -4.028  -1.418   0.051  0.00  0.00    +0.037 A 
ATOM     25  C   UNL     1      -3.304  -1.371  -1.134  0.00  0.00    -0.017 A 
ATOM     26  C   UNL     1      -2.010  -0.903  -1.151  0.00  0.00    +0.011 A 
ATOM     27  C   UNL     1      -4.222  -1.895  -2.214  0.00  0.00    +0.133 C 
ATOM     28  C   UNL     1      -5.504  -2.225  -1.480  0.00  0.00    +0.222 C 
ATOM     29  O   UNL     1      -6.518  -2.677  -1.968  0.00  0.00    -0.275 OA
ATOM     30  N   UNL     1      -5.308  -1.921  -0.185  0.00  0.00    -0.285 N 
ATOM     31  H   UNL     1      -5.979  -2.038   0.505  0.00  0.00    +0.155 HD
ENDBRANCH  20  21
ENDBRANCH   1  20
TORSDOF 4
