REMARK  Name = ZINC67054884
REMARK  3 active torsions:
REMARK  status: ('A' for Active; 'I' for Inactive)
REMARK    1  A    between atoms: C_1  and  C_2
REMARK    2  A    between atoms: C_5  and  N_22
REMARK    3  A    between atoms: C_7  and  C_8
REMARK                            x       y       z     vdW  Elec       q    Type
REMARK                         _______ _______ _______ _____ _____    ______ ____
ROOT
ATOM      1  C   UNL     1       0.141  -0.146   2.576  0.00  0.00    +0.247 C 
ATOM      2  O   UNL     1       0.026   1.060   2.674  0.00  0.00    -0.270 OA
ATOM      3  N   UNL     1       0.339  -0.896   3.678  0.00  0.00    -0.290 N 
ATOM      4  C   UNL     1       0.611  -2.339   3.580  0.00  0.00    +0.136 C 
ATOM      5  C   UNL     1       1.862  -2.659   4.406  0.00  0.00    +0.179 C 
ATOM      6  O   UNL     1       1.710  -2.125   5.724  0.00  0.00    -0.373 OA
ATOM      7  C   UNL     1       1.571  -0.705   5.762  0.00  0.00    +0.139 C 
ATOM      8  C   UNL     1       0.297  -0.298   5.026  0.00  0.00    +0.105 C 
ATOM      9  C   UNL     1      -0.919  -0.863   5.764  0.00  0.00    +0.025 C 
ATOM     10  C   UNL     1      -0.943  -0.338   7.200  0.00  0.00    +0.002 C 
ATOM     11  C   UNL     1       0.329  -0.787   7.924  0.00  0.00    +0.003 C 
ATOM     12  C   UNL     1       1.521  -0.211   7.204  0.00  0.00    +0.033 C 
ENDROOT
BRANCH   1  19
ATOM     13  C   UNL     1       1.720   0.895   0.386  0.00  0.00    +0.044 C 
ATOM     14  C   UNL     1       0.821  -0.297   0.184  0.00  0.00    -0.038 A 
ATOM     15  C   UNL     1       0.748  -0.907  -1.052  0.00  0.00    +0.006 A 
ATOM     16  C   UNL     1      -0.077  -2.002  -1.239  0.00  0.00    +0.033 A 
ATOM     17  C   UNL     1      -0.834  -2.493  -0.190  0.00  0.00    +0.127 A 
ATOM     18  C   UNL     1      -0.770  -1.893   1.051  0.00  0.00    +0.046 A 
ATOM     19  C   UNL     1       0.064  -0.791   1.248  0.00  0.00    +0.042 A 
BRANCH  17  20
ATOM     20  N   UNL     1      -1.714  -3.664  -0.399  0.00  0.00    +0.056 N 
ATOM     21  O   UNL     1      -1.771  -4.190  -1.486  0.00  0.00    -0.126 OA
ATOM     22  O   UNL     1      -2.376  -4.094   0.516  0.00  0.00    -0.126 OA
ENDBRANCH  17  20
ENDBRANCH   1  19
TORSDOF 2
