REMARK  Name = ZINC44479275
REMARK  6 active torsions:
REMARK  status: ('A' for Active; 'I' for Inactive)
REMARK    1  A    between atoms: C_1  and  C_2
REMARK    2  A    between atoms: C_5  and  O_20
REMARK    3  A    between atoms: C_6  and  C_8
REMARK    4  A    between atoms: C_12  and  C_19
REMARK    5  A    between atoms: C_15  and  C_17
REMARK    6  A    between atoms: C_15  and  C_18
REMARK                            x       y       z     vdW  Elec       q    Type
REMARK                         _______ _______ _______ _____ _____    ______ ____
ROOT
ATOM      1  C   UNL     1       0.053  -2.841   2.459  0.00  0.00    +0.250 C 
ATOM      2  O   UNL     1      -0.032  -4.054   2.452  0.00  0.00    -0.270 OA
ATOM      3  N   UNL     1       0.152  -2.178   3.628  0.00  0.00    -0.292 N 
ATOM      4  C   UNL     1       0.129  -0.708   3.671  0.00  0.00    +0.139 C 
ATOM      5  C   UNL     1      -0.910  -0.270   4.710  0.00  0.00    +0.133 C 
ATOM      6  O   UNL     1      -0.646  -0.937   5.947  0.00  0.00    -0.368 OA
ATOM      7  C   UNL     1      -0.760  -2.360   5.881  0.00  0.00    +0.080 C 
ATOM      8  C   UNL     1       0.280  -2.905   4.902  0.00  0.00    +0.142 C 
ATOM      9  C   UNL     1      -2.160  -2.739   5.396  0.00  0.00    +0.043 C 
ATOM     10  C   UNL     1      -0.519  -2.957   7.269  0.00  0.00    +0.043 C 
ATOM     11  C   UNL     1      -0.821   1.243   4.915  0.00  0.00    +0.039 C 
ENDROOT
BRANCH   1  17
ATOM     12  C   UNL     1       1.982   0.709  -0.464  0.00  0.00    +0.044 C 
ATOM     13  C   UNL     1       0.974  -0.385  -0.226  0.00  0.00    -0.050 A 
ATOM     14  C   UNL     1       0.043  -0.690  -1.205  0.00  0.00    +0.007 A 
ATOM     15  C   UNL     1      -0.886  -1.690  -0.999  0.00  0.00    +0.046 A 
ATOM     16  C   UNL     1      -0.891  -2.399   0.194  0.00  0.00    +0.129 A 
ATOM     17  C   UNL     1       0.049  -2.094   1.186  0.00  0.00    +0.078 A 
ATOM     18  C   UNL     1       0.987  -1.082   0.962  0.00  0.00    +0.020 A 
BRANCH  16  19
ATOM     19  O   UNL     1      -1.804  -3.382   0.398  0.00  0.00    -0.506 OA
ATOM     20  H   UNL     1      -1.510  -4.257   0.109  0.00  0.00    +0.292 HD
ENDBRANCH  16  19
ENDBRANCH   1  17
TORSDOF 2
