REMARK  Name = ZINC13153183
REMARK  2 active torsions:
REMARK  status: ('A' for Active; 'I' for Inactive)
REMARK    1  A    between atoms: C_1  and  C_2
REMARK    2  A    between atoms: C_2  and  C_19
REMARK                            x       y       z     vdW  Elec       q    Type
REMARK                         _______ _______ _______ _____ _____    ______ ____
ROOT
ATOM      1  C   UNL     1      -0.018   1.503   0.010  0.00  0.00    +0.044 C 
ATOM      2  C   UNL     1       0.002  -0.004   0.002  0.00  0.00    -0.043 C 
ATOM      3  C   UNL     1       0.022  -0.673   1.146  0.00  0.00    -0.051 C 
ATOM      4  C   UNL     1       0.053  -2.199   1.485  0.00  0.00    +0.051 C 
ATOM      5  C   UNL     1      -1.204  -2.204   2.410  0.00  0.00    -0.022 C 
ATOM      6  C   UNL     1      -1.137  -1.087   3.111  0.00  0.00    -0.022 C 
ATOM      7  C   UNL     1       0.030  -0.217   2.652  0.00  0.00    +0.051 C 
ATOM      8  C   UNL     1       1.387  -0.824   2.997  0.00  0.00    +0.099 C 
ATOM      9  C   UNL     1       1.096  -2.300   2.545  0.00  0.00    +0.099 C 
ATOM     10  C   UNL     1       2.248  -3.000   3.026  0.00  0.00    +0.224 C 
ATOM     11  O   UNL     1       2.827  -3.934   2.514  0.00  0.00    -0.275 OA
ATOM     12  N   UNL     1       2.543  -2.357   4.213  0.00  0.00    -0.256 N 
ATOM     13  C   UNL     1       1.816  -1.180   4.383  0.00  0.00    +0.224 C 
ATOM     14  O   UNL     1       1.594  -0.569   5.407  0.00  0.00    -0.275 OA
ATOM     15  H   UNL     1       3.179  -2.693   4.864  0.00  0.00    +0.157 HD
ENDROOT
BRANCH   2  16
ATOM     16  C   UNL     1      -0.000  -0.736  -1.282  0.00  0.00    -0.022 A 
ATOM     17  C   UNL     1       1.098  -1.516  -1.646  0.00  0.00    +0.008 A 
ATOM     18  C   UNL     1       1.090  -2.197  -2.846  0.00  0.00    +0.001 A 
ATOM     19  C   UNL     1      -0.005  -2.108  -3.687  0.00  0.00    +0.000 A 
ATOM     20  C   UNL     1      -1.097  -1.337  -3.332  0.00  0.00    +0.001 A 
ATOM     21  C   UNL     1      -1.103  -0.655  -2.133  0.00  0.00    +0.008 A 
ENDBRANCH   2  16
TORSDOF 1
