REMARK  Name = ZINC00337257
REMARK  5 active torsions:
REMARK  status: ('A' for Active; 'I' for Inactive)
REMARK    1  A    between atoms: C_4  and  C_7
REMARK    2  A    between atoms: C_8  and  C_9
REMARK    3  A    between atoms: C_8  and  C_11
REMARK    4  A    between atoms: N_13  and  C_14
REMARK    5  A    between atoms: C_16  and  N_21
REMARK                            x       y       z     vdW  Elec       q    Type
REMARK                         _______ _______ _______ _____ _____    ______ ____
ROOT
ATOM      1  C   UNL     1       2.373   4.271   0.953  0.00  0.00    +0.259 C 
ATOM      2  O   UNL     1       3.443   3.768   1.236  0.00  0.00    -0.269 OA
ATOM      3  N   UNL     1       1.238   3.555   1.077  0.00  0.00    -0.279 N 
ATOM      4  H   UNL     1       0.394   3.928   0.778  0.00  0.00    +0.155 HD
ENDROOT
BRANCH   3   5
ATOM      5  C   UNL     1       1.277   2.274   1.639  0.00  0.00    +0.071 A 
ATOM      6  C   UNL     1       2.303   1.925   2.506  0.00  0.00    +0.059 A 
ATOM      7  C   UNL     1       2.340   0.659   3.058  0.00  0.00    +0.128 A 
ATOM      8  C   UNL     1       1.355  -0.261   2.748  0.00  0.00    +0.035 A 
ATOM      9  C   UNL     1       0.331   0.081   1.885  0.00  0.00    +0.042 A 
ATOM     10  C   UNL     1       0.288   1.347   1.329  0.00  0.00    +0.145 A 
ATOM     11  F   UNL     1      -0.710   1.680   0.481  0.00  0.00    -0.204 F 
BRANCH   7  12
ATOM     12  N   UNL     1       3.435   0.287   3.982  0.00  0.00    +0.056 N 
ATOM     13  O   UNL     1       3.468  -0.829   4.468  0.00  0.00    -0.126 OA
ATOM     14  O   UNL     1       4.302   1.097   4.255  0.00  0.00    -0.126 OA
ENDBRANCH   7  12
ENDBRANCH   3   5
BRANCH   1  16
ATOM     15  C   UNL     1       3.472   6.343   0.215  0.00  0.00    +0.032 C 
ATOM     16  C   UNL     1       2.316   5.663   0.474  0.00  0.00    +0.114 C 
BRANCH  15  20
ATOM     17  C   UNL     1       7.177   4.286   0.171  0.00  0.00    +0.000 A 
ATOM     18  C   UNL     1       6.092   3.763  -0.511  0.00  0.00    +0.001 A 
ATOM     19  C   UNL     1       4.883   4.425  -0.502  0.00  0.00    +0.008 A 
ATOM     20  C   UNL     1       4.755   5.631   0.200  0.00  0.00    -0.024 A 
ATOM     21  C   UNL     1       5.860   6.155   0.882  0.00  0.00    +0.008 A 
ATOM     22  C   UNL     1       7.060   5.477   0.867  0.00  0.00    +0.001 A 
ENDBRANCH  15  20
BRANCH  16  23
ATOM     23  C   UNL     1       1.050   6.303   0.281  0.00  0.00    +0.104 C 
ATOM     24  N   UNL     1       0.045   6.810   0.127  0.00  0.00    -0.191 NA
ENDBRANCH  16  23
ENDBRANCH   1  16
TORSDOF 5
