REMARK  Name = ZINC14075704
REMARK  7 active torsions:
REMARK  status: ('A' for Active; 'I' for Inactive)
REMARK    1  A    between atoms: C_8  and  C_13
REMARK    2  A    between atoms: N_15  and  N_16
REMARK    3  A    between atoms: C_17  and  C_19
REMARK    4  A    between atoms: C_19  and  C_20
REMARK    5  A    between atoms: C_20  and  C_21
REMARK    6  A    between atoms: C_21  and  O_22
REMARK    7  A    between atoms: O_22  and  C_23
REMARK                            x       y       z     vdW  Elec       q    Type
REMARK                         _______ _______ _______ _____ _____    ______ ____
ROOT
ATOM      1  C   UNL     1       6.772  -6.136  -0.100  0.00  0.00    +0.265 C 
ATOM      2  O   UNL     1       5.824  -6.891   0.011  0.00  0.00    -0.268 OA
ATOM      3  N   UNL     1       6.574  -4.803  -0.105  0.00  0.00    -0.230 N 
ATOM      4  H   UNL     1       7.334  -4.200  -0.118  0.00  0.00    +0.173 HD
ENDROOT
BRANCH   1  12
ATOM      5  C   UNL     1      11.171 -10.378  -0.695  0.00  0.00    +0.001 A 
ATOM      6  C   UNL     1      12.245  -9.497  -0.699  0.00  0.00    +0.002 A 
ATOM      7  C   UNL     1      12.041  -8.140  -0.585  0.00  0.00    +0.026 A 
ATOM      8  C   UNL     1      10.746  -7.639  -0.466  0.00  0.00    +0.049 A 
ATOM      9  C   UNL     1       9.659  -8.534  -0.463  0.00  0.00    -0.001 A 
ATOM     10  C   UNL     1       9.893  -9.913  -0.580  0.00  0.00    +0.010 A 
ATOM     11  C   UNL     1       8.337  -8.042  -0.342  0.00  0.00    +0.028 A 
ATOM     12  C   UNL     1       8.135  -6.679  -0.227  0.00  0.00    +0.103 A 
ATOM     13  C   UNL     1       9.293  -5.779  -0.240  0.00  0.00    +0.261 A 
ATOM     14  O   UNL     1       9.130  -4.577  -0.146  0.00  0.00    -0.267 OA
ATOM     15  N   UNL     1      10.538  -6.281  -0.351  0.00  0.00    -0.321 N 
ATOM     16  H   UNL     1      11.298  -5.679  -0.355  0.00  0.00    +0.169 HD
ENDBRANCH   1  12
BRANCH   3  17
ATOM     17  N   UNL     1       5.271  -4.288  -0.092  0.00  0.00    -0.234 N 
ATOM     18  C   UNL     1       5.074  -2.954  -0.097  0.00  0.00    +0.229 C 
ATOM     19  O   UNL     1       6.024  -2.201  -0.113  0.00  0.00    -0.274 OA
ATOM     20  H   UNL     1       4.512  -4.891  -0.079  0.00  0.00    +0.173 HD
BRANCH  18  21
ATOM     21  C   UNL     1       3.672  -2.400  -0.083  0.00  0.00    +0.100 C 
BRANCH  21  22
ATOM     22  C   UNL     1       3.728  -0.871  -0.093  0.00  0.00    +0.050 C 
BRANCH  22  23
ATOM     23  C   UNL     1       2.306  -0.309  -0.078  0.00  0.00    +0.229 C 
BRANCH  23  24
ATOM     24  O   UNL     1       2.358   1.119  -0.087  0.00  0.00    -0.490 OA
BRANCH  24  25
ATOM     25  C   UNL     1       1.170   1.780  -0.076  0.00  0.00    +0.139 A 
ATOM     26  C   UNL     1      -0.020   1.069  -0.058  0.00  0.00    +0.048 A 
ATOM     27  C   UNL     1      -1.227   1.743  -0.053  0.00  0.00    +0.023 A 
ATOM     28  C   UNL     1      -1.248   3.126  -0.055  0.00  0.00    +0.043 A 
ATOM     29  C   UNL     1      -0.062   3.838  -0.074  0.00  0.00    +0.043 A 
ATOM     30  C   UNL     1       1.147   3.168  -0.085  0.00  0.00    +0.084 A 
ATOM     31 CL   UNL     1       2.635   4.062  -0.109  0.00  0.00    -0.080 Cl
ATOM     32 CL   UNL     1      -2.765   3.970  -0.043  0.00  0.00    -0.083 Cl
ENDBRANCH  24  25
ENDBRANCH  23  24
ENDBRANCH  22  23
ENDBRANCH  21  22
ENDBRANCH  18  21
ENDBRANCH   3  17
TORSDOF 7
