REMARK  Name = ZINC02321099
REMARK  5 active torsions:
REMARK  status: ('A' for Active; 'I' for Inactive)
REMARK    1  A    between atoms: C_1  and  O_2
REMARK    2  A    between atoms: O_2  and  C_3
REMARK    3  A    between atoms: C_15  and  N_16
REMARK    4  A    between atoms: N_16  and  S_17
REMARK    5  A    between atoms: S_17  and  C_20
REMARK                            x       y       z     vdW  Elec       q    Type
REMARK                         _______ _______ _______ _____ _____    ______ ____
ROOT
ATOM      1  C   UNL     1       0.549   4.279   0.285  0.00  0.00    +0.143 A 
ATOM      2  C   UNL     1       1.654   3.465   0.439  0.00  0.00    +0.059 A 
ATOM      3  C   UNL     1       1.492   2.083   0.508  0.00  0.00    +0.031 A 
ATOM      4  C   UNL     1       2.424   0.951   0.666  0.00  0.00    +0.028 A 
ATOM      5  C   UNL     1       3.805   0.847   0.801  0.00  0.00    +0.012 A 
ATOM      6  C   UNL     1       4.387  -0.397   0.932  0.00  0.00    +0.001 A 
ATOM      7  C   UNL     1       3.600  -1.538   0.930  0.00  0.00    +0.004 A 
ATOM      8  C   UNL     1       2.231  -1.446   0.796  0.00  0.00    +0.047 A 
ATOM      9  C   UNL     1       1.626  -0.202   0.662  0.00  0.00    +0.136 A 
ATOM     10  O   UNL     1       0.335   0.171   0.518  0.00  0.00    -0.455 OA
ATOM     11  C   UNL     1       0.214   1.514   0.424  0.00  0.00    +0.138 A 
ATOM     12  C   UNL     1      -0.891   2.343   0.274  0.00  0.00    +0.075 A 
ATOM     13  C   UNL     1      -0.725   3.715   0.201  0.00  0.00    +0.093 A 
ENDROOT
BRANCH   1  15
ATOM     14  C   UNL     1       2.035   6.136   0.309  0.00  0.00    +0.277 C 
ATOM     15  O   UNL     1       0.703   5.629   0.216  0.00  0.00    -0.493 OA
ENDBRANCH   1  15
BRANCH  13  16
ATOM     16  N   UNL     1      -1.842   4.543   0.045  0.00  0.00    -0.213 N 
ATOM     17  H   UNL     1      -1.778   5.348  -0.493  0.00  0.00    +0.174 HD
BRANCH  16  18
ATOM     18  S   UNL     1      -3.274   4.149   0.778  0.00  0.00    +0.072 S 
ATOM     19  O   UNL     1      -4.160   5.235   0.548  0.00  0.00    -0.150 OA
ATOM     20  O   UNL     1      -3.580   2.819   0.382  0.00  0.00    -0.150 OA
BRANCH  18  21
ATOM     21  C   UNL     1      -2.975   4.101   2.514  0.00  0.00    +0.109 A 
ATOM     22  C   UNL     1      -2.584   2.920   3.115  0.00  0.00    +0.030 A 
ATOM     23  C   UNL     1      -2.343   2.884   4.476  0.00  0.00    +0.022 A 
ATOM     24  C   UNL     1      -2.505   4.027   5.238  0.00  0.00    +0.041 A 
ATOM     25  C   UNL     1      -2.902   5.208   4.636  0.00  0.00    +0.022 A 
ATOM     26  C   UNL     1      -3.136   5.245   3.274  0.00  0.00    +0.030 A 
ATOM     27 CL   UNL     1      -2.210   3.981   6.948  0.00  0.00    -0.084 Cl
ENDBRANCH  18  21
ENDBRANCH  16  18
ENDBRANCH  13  16
TORSDOF 4
