REMARK  Name = ZINC39674356
REMARK  8 active torsions:
REMARK  status: ('A' for Active; 'I' for Inactive)
REMARK    1  A    between atoms: C_1  and  C_2
REMARK    2  A    between atoms: C_6  and  C_9
REMARK    3  A    between atoms: C_13  and  C_22
REMARK    4  A    between atoms: N_24  and  C_25
REMARK    5  A    between atoms: C_25  and  C_27
REMARK    6  A    between atoms: C_25  and  C_28
REMARK    7  A    between atoms: C_29  and  C_35
REMARK    8  A    between atoms: C_32  and  C_34
REMARK                            x       y       z     vdW  Elec       q    Type
REMARK                         _______ _______ _______ _____ _____    ______ ____
ROOT
ATOM      1  C   UNL     1       0.199  -3.426   2.877  0.00  0.00    +0.251 C 
ATOM      2  O   UNL     1       1.188  -3.781   3.489  0.00  0.00    -0.270 OA
ATOM      3  N   UNL     1      -1.026  -3.634   3.398  0.00  0.00    -0.296 N 
ATOM      4  C   UNL     1      -2.337  -3.280   2.804  0.00  0.00    +0.121 C 
ATOM      5  C   UNL     1      -3.256  -4.473   3.148  0.00  0.00    +0.100 C 
ATOM      6  C   UNL     1      -2.615  -5.117   4.390  0.00  0.00    -0.004 C 
ATOM      7  C   UNL     1      -1.367  -4.275   4.691  0.00  0.00    +0.115 C 
ATOM      8  C   UNL     1      -3.583  -5.070   5.568  0.00  0.00    -0.010 C 
ATOM      9  C   UNL     1      -2.946  -5.767   6.774  0.00  0.00    -0.082 C 
ATOM     10  N   UNL     1      -2.633  -7.159   6.428  0.00  0.00    +0.379 N 
ATOM     11  C   UNL     1      -1.632  -7.195   5.355  0.00  0.00    -0.082 C 
ATOM     12  C   UNL     1      -2.213  -6.558   4.089  0.00  0.00    -0.010 C 
ATOM     13  H   UNL     1      -2.270  -7.633   7.241  0.00  0.00    -0.086 HD
ATOM     14  H   UNL     1      -3.473  -7.624   6.117  0.00  0.00    -0.086 HD
ENDROOT
BRANCH   1  20
ATOM     15  C   UNL     1       0.714   0.736   0.165  0.00  0.00    +0.047 C 
ATOM     16  C   UNL     1       0.589  -0.764   0.252  0.00  0.00    -0.014 A 
ATOM     17  C   UNL     1       0.606  -1.526  -0.901  0.00  0.00    +0.007 A 
ATOM     18  C   UNL     1       0.492  -2.903  -0.831  0.00  0.00    +0.021 A 
ATOM     19  C   UNL     1       0.359  -3.528   0.393  0.00  0.00    +0.056 A 
ATOM     20  C   UNL     1       0.341  -2.765   1.564  0.00  0.00    +0.091 A 
ATOM     21  C   UNL     1       0.463  -1.374   1.486  0.00  0.00    +0.140 A 
ATOM     22  F   UNL     1       0.451  -0.629   2.613  0.00  0.00    -0.204 F 
ATOM     23 CL   UNL     1       0.215  -5.256   0.477  0.00  0.00    -0.083 Cl
ENDBRANCH   1  20
BRANCH   5  24
ATOM     24  C   UNL     1      -4.648  -3.990   3.465  0.00  0.00    +0.219 C 
ATOM     25  O   UNL     1      -4.809  -2.914   4.001  0.00  0.00    -0.275 OA
ATOM     26  N   UNL     1      -5.714  -4.753   3.151  0.00  0.00    -0.309 N 
ATOM     27  H   UNL     1      -5.585  -5.613   2.722  0.00  0.00    +0.149 HD
BRANCH  26  28
ATOM     28  C   UNL     1      -7.067  -4.282   3.458  0.00  0.00    +0.100 C 
ATOM     29  C   UNL     1      -7.417  -4.645   4.903  0.00  0.00    +0.033 C 
BRANCH  28  30
ATOM     30  C   UNL     1      -8.051  -4.937   2.523  0.00  0.00    -0.001 C 
ATOM     31  C   UNL     1      -8.971  -4.351   1.755  0.00  0.00    +0.063 C 
ATOM     32  N   UNL     1      -9.668  -5.271   1.052  0.00  0.00    -0.159 NA
ATOM     33  N   UNL     1      -9.324  -6.438   1.256  0.00  0.00    -0.180 NA
ATOM     34  C   UNL     1      -8.221  -6.418   2.232  0.00  0.00    +0.154 C 
ATOM     35  C   UNL     1      -8.612  -7.178   3.501  0.00  0.00    +0.039 C 
ATOM     36  C   UNL     1      -9.201  -2.863   1.680  0.00  0.00    +0.067 C 
ENDBRANCH  28  30
ENDBRANCH  26  28
ENDBRANCH   5  24
TORSDOF 4
