REMARK  Name = ZINC00843531
REMARK  6 active torsions:
REMARK  status: ('A' for Active; 'I' for Inactive)
REMARK    1  A    between atoms: C_1  and  O_2
REMARK    2  A    between atoms: O_2  and  C_3
REMARK    3  A    between atoms: C_6  and  C_9
REMARK    4  A    between atoms: C_20  and  C_22
REMARK    5  A    between atoms: C_25  and  O_28
REMARK    6  A    between atoms: O_28  and  C_29
REMARK                            x       y       z     vdW  Elec       q    Type
REMARK                         _______ _______ _______ _____ _____    ______ ____
ROOT
ATOM      1  C   UNL     1      -4.981  -2.629   0.035  0.00  0.00    +0.159 C 
ATOM      2  C   UNL     1      -5.329  -3.001  -1.390  0.00  0.00    +0.027 C 
ATOM      3  C   UNL     1      -5.537  -4.303  -1.673  0.00  0.00    +0.083 C 
ATOM      4  C   UNL     1      -5.867  -4.654  -3.078  0.00  0.00    +0.042 A 
ATOM      5  C   UNL     1      -6.405  -5.890  -3.409  0.00  0.00    +0.013 A 
ATOM      6  C   UNL     1      -6.700  -6.174  -4.729  0.00  0.00    +0.001 A 
ATOM      7  C   UNL     1      -6.461  -5.232  -5.714  0.00  0.00    +0.004 A 
ATOM      8  C   UNL     1      -5.926  -3.999  -5.392  0.00  0.00    +0.046 A 
ATOM      9  C   UNL     1      -5.623  -3.701  -4.075  0.00  0.00    +0.131 A 
ATOM     10  O   UNL     1      -5.090  -2.501  -3.732  0.00  0.00    -0.479 OA
ATOM     11  C   UNL     1      -5.450  -1.956  -2.461  0.00  0.00    +0.234 C 
ATOM     12  N   UNL     1      -5.447  -5.260  -0.717  0.00  0.00    -0.213 NA
ATOM     13  C   UNL     1      -5.152  -5.024   0.540  0.00  0.00    +0.237 C 
ATOM     14  N   UNL     1      -4.905  -3.745   0.986  0.00  0.00    -0.208 N 
ATOM     15  N   UNL     1      -4.621  -3.847   2.349  0.00  0.00    -0.251 N 
ATOM     16  C   UNL     1      -4.709  -5.169   2.664  0.00  0.00    +0.203 C 
ATOM     17  N   UNL     1      -5.023  -5.846   1.606  0.00  0.00    -0.205 NA
ATOM     18  H   UNL     1      -4.404  -3.119   2.953  0.00  0.00    +0.171 HD
ENDROOT
BRANCH   1  22
ATOM     19  C   UNL     1      -1.200  -0.637   0.010  0.00  0.00    +0.120 A 
ATOM     20  C   UNL     1      -2.375   0.101   0.019  0.00  0.00    +0.046 A 
ATOM     21  C   UNL     1      -3.596  -0.545   0.027  0.00  0.00    +0.009 A 
ATOM     22  C   UNL     1      -3.648  -1.927   0.026  0.00  0.00    -0.021 A 
ATOM     23  C   UNL     1      -2.479  -2.665   0.017  0.00  0.00    +0.009 A 
ATOM     24  C   UNL     1      -1.255  -2.024   0.003  0.00  0.00    +0.046 A 
BRANCH  19  26
ATOM     25  C   UNL     1      -0.017   1.425   0.010  0.00  0.00    +0.277 C 
ATOM     26  O   UNL     1       0.002  -0.004   0.002  0.00  0.00    -0.495 OA
ENDBRANCH  19  26
ENDBRANCH   1  22
BRANCH  11  27
ATOM     27  C   UNL     1      -6.872  -1.461  -2.515  0.00  0.00    -0.003 A 
ATOM     28  C   UNL     1      -7.837  -2.204  -3.168  0.00  0.00    +0.011 A 
ATOM     29  C   UNL     1      -9.142  -1.752  -3.220  0.00  0.00    +0.046 A 
ATOM     30  C   UNL     1      -9.482  -0.551  -2.615  0.00  0.00    +0.120 A 
ATOM     31  C   UNL     1      -8.512   0.193  -1.959  0.00  0.00    +0.046 A 
ATOM     32  C   UNL     1      -7.210  -0.266  -1.906  0.00  0.00    +0.011 A 
BRANCH  30  33
ATOM     33  O   UNL     1     -10.765  -0.104  -2.664  0.00  0.00    -0.495 OA
ATOM     34  C   UNL     1     -11.043   1.141  -2.020  0.00  0.00    +0.277 C 
ENDBRANCH  30  33
ENDBRANCH  11  27
TORSDOF 4
