REMARK  Name = ZINC15988770
REMARK  6 active torsions:
REMARK  status: ('A' for Active; 'I' for Inactive)
REMARK    1  A    between atoms: C_3  and  C_6
REMARK    2  A    between atoms: C_6  and  C_8
REMARK    3  A    between atoms: C_6  and  N_46
REMARK    4  A    between atoms: C_8  and  N_9
REMARK    5  A    between atoms: C_10  and  C_12
REMARK    6  A    between atoms: C_15  and  N_19
REMARK                            x       y       z     vdW  Elec       q    Type
REMARK                         _______ _______ _______ _____ _____    ______ ____
ROOT
ATOM      1  C   UNL     1      -1.484   2.812  -1.365  0.00  0.00    +0.097 C 
ENDROOT
BRANCH   1   2
ATOM      2  N   UNL     1      -2.623   3.732  -1.309  0.00  0.00    -0.312 N 
ATOM      3  C   UNL     1      -3.015   4.387  -2.420  0.00  0.00    +0.245 C 
ATOM      4  O   UNL     1      -2.424   4.213  -3.469  0.00  0.00    -0.270 OA
ATOM      5  H   UNL     1      -3.094   3.870  -0.473  0.00  0.00    +0.149 HD
BRANCH   3   6
ATOM      6  C   UNL     1      -4.163   5.315  -2.364  0.00  0.00    +0.055 A 
ATOM      7  C   UNL     1      -4.844   5.517  -1.162  0.00  0.00    +0.017 A 
ATOM      8  C   UNL     1      -5.915   6.385  -1.117  0.00  0.00    +0.033 A 
ATOM      9  C   UNL     1      -6.315   7.056  -2.259  0.00  0.00    +0.128 A 
ATOM     10  C   UNL     1      -5.646   6.862  -3.453  0.00  0.00    +0.053 A 
ATOM     11  C   UNL     1      -4.569   6.000  -3.513  0.00  0.00    +0.055 A 
ATOM     12 CL   UNL     1      -3.725   5.763  -5.011  0.00  0.00    -0.083 Cl
BRANCH   9  13
ATOM     13  N   UNL     1      -7.465   7.986  -2.201  0.00  0.00    +0.056 N 
ATOM     14  O   UNL     1      -8.056   8.160  -1.151  0.00  0.00    -0.126 OA
ATOM     15  O   UNL     1      -7.820   8.579  -3.205  0.00  0.00    -0.126 OA
ENDBRANCH   9  13
ENDBRANCH   3   6
ENDBRANCH   1   2
BRANCH   1  16
ATOM     16  C   UNL     1      -1.250   2.205   0.020  0.00  0.00    +0.016 C 
BRANCH  16  22
ATOM     17  C   UNL     1       0.013   4.181   0.623  0.00  0.00    -0.078 C 
ATOM     18  C   UNL     1       0.063   5.368   1.587  0.00  0.00    -0.019 C 
ATOM     19  C   UNL     1       0.273   4.851   3.014  0.00  0.00    -0.004 C 
ATOM     20  C   UNL     1      -0.857   3.882   3.369  0.00  0.00    -0.019 C 
ATOM     21  C   UNL     1      -0.880   2.738   2.353  0.00  0.00    -0.078 C 
ATOM     22  N   UNL     1      -1.111   3.299   1.004  0.00  0.00    +0.387 N 
ATOM     23  H   UNL     1      -1.977   3.849   1.016  0.00  0.00    -0.081 HD
ENDBRANCH  16  22
BRANCH  16  26
ATOM     24  C   UNL     1       1.389  -0.366  -0.020  0.00  0.00    +0.041 A 
ATOM     25  C   UNL     1       0.028   0.011   0.034  0.00  0.00    +0.043 A 
ATOM     26  C   UNL     1      -0.007   1.355  -0.007  0.00  0.00    +0.093 A 
ATOM     27  O   UNL     1       1.254   1.810  -0.083  0.00  0.00    -0.469 OA
ATOM     28  C   UNL     1       2.105   0.770  -0.091  0.00  0.00    +0.195 A 
ENDBRANCH  16  26
ENDBRANCH   1  16
TORSDOF 6
