REMARK  Name = ZINC00115465
REMARK  5 active torsions:
REMARK  status: ('A' for Active; 'I' for Inactive)
REMARK    1  A    between atoms: C_1  and  C_2
REMARK    2  A    between atoms: C_2  and  C_24
REMARK    3  A    between atoms: C_6  and  C_14
REMARK    4  A    between atoms: C_8  and  C_12
REMARK    5  A    between atoms: C_9  and  N_11
REMARK                            x       y       z     vdW  Elec       q    Type
REMARK                         _______ _______ _______ _____ _____    ______ ____
ROOT
ATOM      1  C   UNL     1       0.011   1.611   0.279  0.00  0.00    +0.012 C 
ATOM      2  C   UNL     1       0.007   0.083   0.362  0.00  0.00    -0.021 C 
ATOM      3  C   UNL     1       0.640  -0.502  -0.902  0.00  0.00    +0.081 C 
ATOM      4  C   UNL     1       2.072  -0.035  -1.017  0.00  0.00    +0.115 C 
ATOM      5  C   UNL     1       2.804   0.215   0.084  0.00  0.00    +0.042 C 
ATOM      6  C   UNL     1       4.237   0.676  -0.034  0.00  0.00    +0.074 C 
ATOM      7  C   UNL     1       4.500   1.208  -1.414  0.00  0.00    +0.094 C 
ATOM      8  C   UNL     1       3.667   0.904  -2.439  0.00  0.00    +0.198 C 
ATOM      9  O   UNL     1       2.591   0.122  -2.250  0.00  0.00    -0.445 OA
ATOM     10  C   UNL     1       2.261   0.060   1.374  0.00  0.00    +0.164 C 
ATOM     11  O   UNL     1       2.958   0.277   2.345  0.00  0.00    -0.292 OA
ATOM     12  C   UNL     1       0.832  -0.369   1.571  0.00  0.00    +0.086 C 
ATOM     13  C   UNL     1      -1.430  -0.421   0.503  0.00  0.00    +0.012 C 
ENDROOT
BRANCH   6  14
ATOM     14  C   UNL     1       5.172  -0.504   0.238  0.00  0.00    +0.006 C 
ATOM     15  C   UNL     1       6.627  -0.018   0.239  0.00  0.00    +0.009 C 
ATOM     16  C   UNL     1       7.523  -1.175   0.688  0.00  0.00    +0.027 C 
ATOM     17  C   UNL     1       7.193  -2.416  -0.089  0.00  0.00    -0.031 C 
ATOM     18  C   UNL     1       6.099  -2.582  -0.761  0.00  0.00    -0.031 C 
ATOM     19  C   UNL     1       5.008  -1.555  -0.862  0.00  0.00    +0.031 C 
ENDBRANCH   6  14
BRANCH   8  20
ATOM     20  N   UNL     1       3.926   1.404  -3.691  0.00  0.00    -0.328 N 
ATOM     21  H   UNL     1       4.701   1.970  -3.837  0.00  0.00    +0.145 HD
ATOM     22  H   UNL     1       3.335   1.192  -4.430  0.00  0.00    +0.145 HD
ENDBRANCH   8  20
BRANCH   7  23
ATOM     23  C   UNL     1       5.641   2.042  -1.649  0.00  0.00    +0.100 C 
ATOM     24  N   UNL     1       6.545   2.703  -1.835  0.00  0.00    -0.191 NA
ENDBRANCH   7  23
TORSDOF 3
