REMARK  Name = ZINC20119392
REMARK  6 active torsions:
REMARK  status: ('A' for Active; 'I' for Inactive)
REMARK    1  A    between atoms: C_1  and  C_2
REMARK    2  A    between atoms: C_2  and  C_3
REMARK    3  A    between atoms: C_6  and  N_9
REMARK    4  A    between atoms: C_13  and  C_14
REMARK    5  A    between atoms: C_15  and  C_25
REMARK    6  A    between atoms: C_21  and  C_24
REMARK                            x       y       z     vdW  Elec       q    Type
REMARK                         _______ _______ _______ _____ _____    ______ ____
ROOT
ATOM      1  N   UNL     1       2.388   1.117  -0.087  0.00  0.00    -0.188 N 
ATOM      2  C   UNL     1       3.537   1.817  -0.189  0.00  0.00    +0.264 C 
ATOM      3  O   UNL     1       3.522   3.027  -0.307  0.00  0.00    -0.269 OA
ATOM      4  C   UNL     1       4.809   1.075  -0.154  0.00  0.00    +0.102 C 
ATOM      5  C   UNL     1       6.030   1.727  -0.255  0.00  0.00    +0.028 C 
ATOM      6  C   UNL     1       4.728  -0.389  -0.009  0.00  0.00    +0.276 C 
ATOM      7  O   UNL     1       5.736  -1.070   0.027  0.00  0.00    -0.268 OA
ATOM      8  N   UNL     1       3.507  -0.955   0.082  0.00  0.00    -0.123 NA
ATOM      9  C   UNL     1       2.389  -0.216   0.048  0.00  0.00    +0.340 C 
ATOM     10  O   UNL     1       1.320  -0.787   0.140  0.00  0.00    -0.250 OA
ENDROOT
BRANCH   5  11
ATOM     11  C   UNL     1       6.080   3.136  -0.248  0.00  0.00    +0.004 A 
ATOM     12  C   UNL     1       6.572   3.956  -1.249  0.00  0.00    +0.021 A 
ATOM     13  N   UNL     1       6.449   5.243  -0.877  0.00  0.00    -0.358 N 
ATOM     14  H   UNL     1       6.788   6.045  -1.550  0.00  0.00    +0.166 HD
ATOM     15  C   UNL     1       5.876   5.339   0.375  0.00  0.00    +0.047 A 
ATOM     16  C   UNL     1       5.612   4.036   0.826  0.00  0.00    +0.007 A 
ATOM     17  C   UNL     1       5.036   3.831   2.075  0.00  0.00    +0.014 A 
ATOM     18  C   UNL     1       4.712   4.915   2.864  0.00  0.00    -0.050 A 
ATOM     19  C   UNL     1       4.966   6.203   2.419  0.00  0.00    +0.005 A 
ATOM     20  C   UNL     1       5.543   6.419   1.185  0.00  0.00    +0.026 A 
ATOM     21  C   UNL     1       4.082   4.698   4.215  0.00  0.00    +0.044 C 
ATOM     22  C   UNL     1       7.154   3.480  -2.555  0.00  0.00    +0.064 C 
ENDBRANCH   5  11
BRANCH   1  26
ATOM     23  C   UNL     1      -1.249   3.152  -0.177  0.00  0.00    -0.048 A 
ATOM     24  C   UNL     1      -0.688   2.690  -1.353  0.00  0.00    +0.005 A 
ATOM     25  C   UNL     1       0.514   2.010  -1.326  0.00  0.00    +0.024 A 
ATOM     26  C   UNL     1       1.165   1.801  -0.117  0.00  0.00    +0.046 A 
ATOM     27  C   UNL     1       0.602   2.271   1.062  0.00  0.00    +0.024 A 
ATOM     28  C   UNL     1      -0.604   2.945   1.029  0.00  0.00    +0.005 A 
BRANCH  23  30
ATOM     29  C   UNL     1      -2.304   5.387  -0.382  0.00  0.00    +0.009 C 
ATOM     30  C   UNL     1      -2.563   3.889  -0.209  0.00  0.00    +0.032 C 
ENDBRANCH  23  30
ENDBRANCH   1  26
TORSDOF 3
