REMARK  Name = ZINC63637378
REMARK  3 active torsions:
REMARK  status: ('A' for Active; 'I' for Inactive)
REMARK    1  A    between atoms: C_1  and  C_2
REMARK    2  A    between atoms: C_2  and  C_3
REMARK    3  A    between atoms: C_3  and  N_4
REMARK                            x       y       z     vdW  Elec       q    Type
REMARK                         _______ _______ _______ _____ _____    ______ ____
ROOT
ATOM      1  N   UNL     1       0.738  -1.962  -1.265  0.00  0.00    -0.269 N 
ATOM      2  C   UNL     1       1.745  -2.725  -0.700  0.00  0.00    +0.042 A 
ATOM      3  C   UNL     1       2.901  -2.315  -0.034  0.00  0.00    +0.024 A 
ATOM      4  C   UNL     1       3.747  -3.306   0.437  0.00  0.00    +0.002 A 
ATOM      5  C   UNL     1       3.471  -4.647   0.262  0.00  0.00    +0.000 A 
ATOM      6  C   UNL     1       2.322  -5.069  -0.399  0.00  0.00    +0.008 A 
ATOM      7  C   UNL     1       1.476  -4.089  -0.870  0.00  0.00    +0.005 A 
ATOM      8  C   UNL     1       0.178  -4.170  -1.609  0.00  0.00    +0.148 C 
ATOM      9  C   UNL     1      -0.226  -2.727  -1.819  0.00  0.00    +0.247 C 
ATOM     10  O   UNL     1      -1.226  -2.332  -2.382  0.00  0.00    -0.273 OA
ATOM     11  C   UNL     1       0.349  -4.877  -2.949  0.00  0.00    +0.140 C 
ATOM     12  C   UNL     1      -1.046  -5.000  -3.552  0.00  0.00    -0.035 C 
ATOM     13  C   UNL     1      -0.975  -4.481  -4.769  0.00  0.00    -0.001 A 
ATOM     14  C   UNL     1      -1.961  -4.394  -5.859  0.00  0.00    +0.010 A 
ATOM     15  C   UNL     1      -1.548  -3.768  -6.993  0.00  0.00    +0.001 A 
ATOM     16  C   UNL     1      -0.268  -3.228  -7.151  0.00  0.00    +0.002 A 
ATOM     17  C   UNL     1       0.703  -3.268  -6.205  0.00  0.00    +0.026 A 
ATOM     18  C   UNL     1       0.390  -3.905  -4.969  0.00  0.00    +0.043 A 
ATOM     19  N   UNL     1       1.140  -4.107  -3.907  0.00  0.00    -0.375 N 
ATOM     20  C   UNL     1      -2.208  -5.537  -2.752  0.00  0.00    +0.048 C 
ATOM     21  C   UNL     1      -2.182  -4.799  -1.402  0.00  0.00    +0.086 C 
ATOM     22  N   UNL     1      -0.841  -4.865  -0.815  0.00  0.00    -0.297 NA
ATOM     23  H   UNL     1      -0.570  -5.820  -0.636  0.00  0.00    +0.123 HD
ATOM     24  H   UNL     1       2.050  -3.800  -3.775  0.00  0.00    +0.160 HD
ENDROOT
BRANCH   1  25
ATOM     25  C   UNL     1       0.718  -0.497  -1.257  0.00  0.00    +0.113 C 
BRANCH  25  27
ATOM     26  C   UNL     1      -0.019   1.526   0.010  0.00  0.00    +0.005 C 
ATOM     27  C   UNL     1       0.002  -0.004   0.002  0.00  0.00    +0.016 C 
ENDBRANCH  25  27
ENDBRANCH   1  25
TORSDOF 2
