REMARK  Name = ZINC48413008
REMARK  3 active torsions:
REMARK  status: ('A' for Active; 'I' for Inactive)
REMARK    1  A    between atoms: C_6  and  C_7
REMARK    2  A    between atoms: N_9  and  N_10
REMARK    3  A    between atoms: C_11  and  C_13
REMARK                            x       y       z     vdW  Elec       q    Type
REMARK                         _______ _______ _______ _____ _____    ______ ____
ROOT
ATOM      1  C   UNL     1      -1.169  -0.887   0.009  0.00  0.00    +0.276 C 
ATOM      2  O   UNL     1      -2.289  -0.411   0.022  0.00  0.00    -0.267 OA
ATOM      3  N   UNL     1      -1.005  -2.224   0.000  0.00  0.00    -0.229 N 
ATOM      4  H   UNL     1      -0.112  -2.603  -0.011  0.00  0.00    +0.173 HD
ENDROOT
BRANCH   1  10
ATOM      5  C   UNL     1      -0.017   1.375   0.010  0.00  0.00    +0.047 A 
ATOM      6  C   UNL     1       1.315   1.804  -0.001  0.00  0.00    +0.036 A 
ATOM      7  C   UNL     1       2.106   0.704  -0.014  0.00  0.00    +0.098 A 
ATOM      8  N   UNL     1       1.320  -0.401  -0.013  0.00  0.00    -0.356 N 
ATOM      9  H   UNL     1       1.634  -1.319  -0.021  0.00  0.00    +0.166 HD
ATOM     10  C   UNL     1       0.002  -0.004   0.002  0.00  0.00    +0.104 A 
ATOM     11 BR   UNL     1       1.905   3.600   0.003  0.00  0.00    -0.049 Br
ENDBRANCH   1  10
BRANCH   3  12
ATOM     12  N   UNL     1      -2.124  -3.068   0.007  0.00  0.00    -0.234 N 
ATOM     13  C   UNL     1      -1.959  -4.405  -0.002  0.00  0.00    +0.234 C 
ATOM     14  O   UNL     1      -0.843  -4.879  -0.016  0.00  0.00    -0.274 OA
ATOM     15  H   UNL     1      -3.017  -2.689   0.018  0.00  0.00    +0.173 HD
BRANCH  13  16
ATOM     16  C   UNL     1      -3.163  -5.312   0.005  0.00  0.00    +0.099 C 
ATOM     17  C   UNL     1      -4.013  -5.043  -1.248  0.00  0.00    +0.037 C 
ATOM     18  C   UNL     1      -5.059  -6.186  -1.379  0.00  0.00    +0.166 C 
ATOM     19  S   UNL     1      -4.026  -7.642  -0.921  0.00  0.00    -0.030 S 
ATOM     20  O   UNL     1      -4.762  -8.469  -0.030  0.00  0.00    -0.174 OA
ATOM     21  O   UNL     1      -3.472  -8.205  -2.102  0.00  0.00    -0.174 OA
ATOM     22  C   UNL     1      -2.695  -6.788   0.015  0.00  0.00    +0.178 C 
ENDBRANCH  13  16
ENDBRANCH   3  12
TORSDOF 3
