REMARK  Name = ZINC65154466
REMARK  8 active torsions:
REMARK  status: ('A' for Active; 'I' for Inactive)
REMARK    1  A    between atoms: C_1  and  C_2
REMARK    2  A    between atoms: C_2  and  C_3
REMARK    3  A    between atoms: C_2  and  C_4
REMARK    4  A    between atoms: C_6  and  C_9
REMARK    5  A    between atoms: N_13  and  C_20
REMARK    6  A    between atoms: C_20  and  C_21
REMARK    7  A    between atoms: N_23  and  C_24
REMARK    8  A    between atoms: C_24  and  C_25
REMARK                            x       y       z     vdW  Elec       q    Type
REMARK                         _______ _______ _______ _____ _____    ______ ____
ROOT
ATOM      1  C   UNL     1      -4.134  -2.409  -1.405  0.00  0.00    +0.054 A 
ATOM      2  C   UNL     1      -3.734  -2.984  -2.580  0.00  0.00    +0.084 A 
ATOM      3  C   UNL     1      -4.636  -3.775  -3.322  0.00  0.00    +0.253 A 
ATOM      4  O   UNL     1      -4.263  -4.280  -4.367  0.00  0.00    -0.268 OA
ATOM      5  N   UNL     1      -5.897  -3.986  -2.908  0.00  0.00    -0.299 N 
ATOM      6  C   UNL     1      -6.366  -3.436  -1.733  0.00  0.00    +0.053 A 
ATOM      7  C   UNL     1      -5.513  -2.643  -0.946  0.00  0.00    +0.011 A 
ATOM      8  C   UNL     1      -5.980  -2.088   0.247  0.00  0.00    +0.011 A 
ATOM      9  C   UNL     1      -7.276  -2.327   0.647  0.00  0.00    +0.001 A 
ATOM     10  C   UNL     1      -8.116  -3.115  -0.128  0.00  0.00    +0.002 A 
ATOM     11  C   UNL     1      -7.673  -3.660  -1.313  0.00  0.00    +0.026 A 
ENDROOT
BRANCH   1  14
ATOM     12  C   UNL     1      -1.412  -0.526   0.013  0.00  0.00    +0.175 A 
ATOM     13  N   UNL     1      -1.957  -1.302  -0.925  0.00  0.00    -0.192 NA
ATOM     14  C   UNL     1      -3.203  -1.577  -0.613  0.00  0.00    +0.259 A 
ATOM     15  O   UNL     1      -3.483  -0.969   0.553  0.00  0.00    -0.333 OA
ATOM     16  N   UNL     1      -2.296  -0.294   0.942  0.00  0.00    -0.061 NA
BRANCH  12  18
ATOM     17  C   UNL     1      -0.019   1.526   0.010  0.00  0.00    +0.015 C 
ATOM     18  C   UNL     1       0.002  -0.004   0.002  0.00  0.00    +0.054 C 
ATOM     19  C   UNL     1       0.742  -0.511   1.242  0.00  0.00    +0.015 C 
ENDBRANCH  12  18
ENDBRANCH   1  14
BRANCH   5  20
ATOM     20  C   UNL     1      -6.791  -4.816  -3.720  0.00  0.00    +0.221 C 
BRANCH  20  21
ATOM     21  C   UNL     1      -6.670  -6.255  -3.288  0.00  0.00    +0.233 C 
ATOM     22  O   UNL     1      -5.913  -6.558  -2.391  0.00  0.00    -0.274 OA
ATOM     23  N   UNL     1      -7.404  -7.206  -3.900  0.00  0.00    -0.310 N 
ATOM     24  H   UNL     1      -8.010  -6.964  -4.618  0.00  0.00    +0.149 HD
BRANCH  23  25
ATOM     25  C   UNL     1      -7.287  -8.604  -3.480  0.00  0.00    +0.139 C 
BRANCH  25  26
ATOM     26  C   UNL     1      -8.206  -9.458  -4.315  0.00  0.00    -0.030 A 
ATOM     27  C   UNL     1      -9.508  -9.679  -3.904  0.00  0.00    +0.005 A 
ATOM     28  C   UNL     1     -10.351 -10.463  -4.670  0.00  0.00    +0.000 A 
ATOM     29  C   UNL     1      -9.893 -11.024  -5.848  0.00  0.00    +0.000 A 
ATOM     30  C   UNL     1      -8.592 -10.802  -6.259  0.00  0.00    +0.000 A 
ATOM     31  C   UNL     1      -7.750 -10.015  -5.495  0.00  0.00    +0.005 A 
ENDBRANCH  25  26
ENDBRANCH  23  25
ENDBRANCH  20  21
ENDBRANCH   5  20
TORSDOF 6
