REMARK  Name = ZINC48251255
REMARK  4 active torsions:
REMARK  status: ('A' for Active; 'I' for Inactive)
REMARK    1  A    between atoms: C_8  and  C_24
REMARK    2  A    between atoms: C_12  and  C_14
REMARK    3  A    between atoms: C_15  and  C_16
REMARK    4  A    between atoms: C_21  and  C_22
REMARK                            x       y       z     vdW  Elec       q    Type
REMARK                         _______ _______ _______ _____ _____    ______ ____
ROOT
ATOM      1  C   UNL     1       1.836   1.638  -1.435  0.00  0.00    +0.000 A 
ATOM      2  C   UNL     1       2.703   2.165  -0.496  0.00  0.00    +0.000 A 
ATOM      3  C   UNL     1       3.375   1.321   0.363  0.00  0.00    +0.005 A 
ATOM      4  C   UNL     1       3.190  -0.053   0.290  0.00  0.00    -0.027 A 
ATOM      5  C   UNL     1       2.334  -0.580  -0.651  0.00  0.00    -0.040 A 
ATOM      6  C   UNL     1       1.653   0.273  -1.511  0.00  0.00    +0.004 A 
ATOM      7  C   UNL     1       2.106  -2.060  -0.810  0.00  0.00    +0.067 C 
ATOM      8  C   UNL     1       2.511  -2.813   0.456  0.00  0.00    +0.167 C 
ATOM      9  N   UNL     1       3.838  -2.325   0.868  0.00  0.00    -0.282 N 
ATOM     10  C   UNL     1       3.944  -0.918   1.268  0.00  0.00    +0.144 C 
ATOM     11  C   UNL     1       4.912  -3.139   0.876  0.00  0.00    +0.240 C 
ATOM     12  O   UNL     1       4.817  -4.276   0.453  0.00  0.00    -0.271 OA
ENDROOT
BRANCH   8  13
ATOM     13  C   UNL     1       2.576  -4.291   0.172  0.00  0.00    +0.231 C 
ATOM     14  O   UNL     1       3.118  -4.692  -0.836  0.00  0.00    -0.274 OA
ATOM     15  N   UNL     1       2.031  -5.168   1.038  0.00  0.00    -0.328 N 
ATOM     16  H   UNL     1       1.597  -4.848   1.844  0.00  0.00    +0.145 HD
ATOM     17  H   UNL     1       2.072  -6.120   0.855  0.00  0.00    +0.145 HD
ENDBRANCH   8  13
BRANCH  11  18
ATOM     18  C   UNL     1       6.194  -2.656   1.396  0.00  0.00    +0.068 C 
ATOM     19  C   UNL     1       7.294  -3.431   1.305  0.00  0.00    +0.014 C 
BRANCH  19  20
ATOM     20  C   UNL     1       8.580  -2.945   1.827  0.00  0.00    -0.008 A 
ATOM     21  C   UNL     1       8.667  -1.685   2.423  0.00  0.00    +0.009 A 
ATOM     22  C   UNL     1       9.877  -1.235   2.910  0.00  0.00    +0.001 A 
ATOM     23  C   UNL     1      11.011  -2.026   2.814  0.00  0.00    +0.001 A 
ATOM     24  C   UNL     1      10.947  -3.274   2.229  0.00  0.00    +0.019 A 
ATOM     25  C   UNL     1       9.734  -3.752   1.735  0.00  0.00    +0.059 A 
BRANCH  25  26
ATOM     26  C   UNL     1       9.661  -5.049   1.133  0.00  0.00    +0.100 C 
ATOM     27  N   UNL     1       9.603  -6.078   0.655  0.00  0.00    -0.191 NA
ENDBRANCH  25  26
ENDBRANCH  19  20
ENDBRANCH  11  18
TORSDOF 4
