REMARK  Name = ZINC09762032
REMARK  3 active torsions:
REMARK  status: ('A' for Active; 'I' for Inactive)
REMARK    1  A    between atoms: C_12  and  S_14
REMARK    2  A    between atoms: S_14  and  C_15
REMARK    3  A    between atoms: C_15  and  C_16
REMARK                            x       y       z     vdW  Elec       q    Type
REMARK                         _______ _______ _______ _____ _____    ______ ____
ROOT
ATOM      1  C   UNL     1       0.002  -0.004   0.002  0.00  0.00    +0.022 A 
ATOM      2  C   UNL     1      -0.017   1.377   0.010  0.00  0.00    +0.027 A 
ATOM      3  C   UNL     1       1.178   2.087   0.002  0.00  0.00    +0.060 A 
ATOM      4  C   UNL     1       2.383   1.393  -0.016  0.00  0.00    +0.135 A 
ATOM      5  C   UNL     1       2.400   0.017  -0.023  0.00  0.00    +0.051 A 
ATOM      6  C   UNL     1       1.206  -0.686  -0.013  0.00  0.00    +0.043 A 
ATOM      7 CL   UNL     1       1.220  -2.422  -0.021  0.00  0.00    -0.083 Cl
ATOM      8  S   UNL     1       3.887   2.316  -0.032  0.00  0.00    +0.103 S 
ATOM      9  O   UNL     1       4.369   2.337   1.305  0.00  0.00    -0.146 OA
ATOM     10  O   UNL     1       4.658   1.824  -1.119  0.00  0.00    -0.146 OA
ATOM     11  N   UNL     1       3.461   3.873  -0.412  0.00  0.00    -0.106 NA
ATOM     12  C   UNL     1       2.227   4.257  -0.354  0.00  0.00    +0.180 C 
ATOM     13  N   UNL     1       1.172   3.479   0.016  0.00  0.00    -0.291 N 
ATOM     14  H   UNL     1       0.361   3.925   0.309  0.00  0.00    +0.154 HD
ENDROOT
BRANCH  12  15
ATOM     15  S   UNL     1       1.881   5.929  -0.791  0.00  0.00    -0.074 S 
BRANCH  15  16
ATOM     16  C   UNL     1       3.552   6.502  -1.186  0.00  0.00    +0.195 C 
BRANCH  16  17
ATOM     17  C   UNL     1       3.504   7.917  -1.589  0.00  0.00    +0.074 C 
ATOM     18  N   UNL     1       3.466   9.009  -1.901  0.00  0.00    -0.196 NA
ENDBRANCH  16  17
ENDBRANCH  15  16
ENDBRANCH  12  15
TORSDOF 3
