REMARK  Name = ZINC40634967
REMARK  6 active torsions:
REMARK  status: ('A' for Active; 'I' for Inactive)
REMARK    1  A    between atoms: C_1  and  C_2
REMARK    2  A    between atoms: C_5  and  S_9
REMARK    3  A    between atoms: C_7  and  C_8
REMARK    4  A    between atoms: S_9  and  N_12
REMARK    5  A    between atoms: C_13  and  C_21
REMARK    6  A    between atoms: C_18  and  C_20
REMARK                            x       y       z     vdW  Elec       q    Type
REMARK                         _______ _______ _______ _____ _____    ______ ____
ROOT
ATOM      1  S   UNL     1       0.132  -4.263   0.002  0.00  0.00    +0.061 S 
ATOM      2  O   UNL     1      -0.352  -4.412   1.330  0.00  0.00    -0.153 OA
ATOM      3  O   UNL     1      -0.530  -4.836  -1.118  0.00  0.00    -0.153 OA
ENDROOT
BRANCH   1   8
ATOM      4  C   UNL     1       0.485   1.667  -1.051  0.00  0.00    +0.044 C 
ATOM      5  C   UNL     1       0.397   0.186  -0.788  0.00  0.00    -0.047 A 
ATOM      6  C   UNL     1       0.272  -0.697  -1.844  0.00  0.00    +0.005 A 
ATOM      7  C   UNL     1       0.191  -2.056  -1.603  0.00  0.00    +0.029 A 
ATOM      8  C   UNL     1       0.236  -2.531  -0.305  0.00  0.00    +0.106 A 
ATOM      9  C   UNL     1       0.362  -1.648   0.750  0.00  0.00    +0.032 A 
ATOM     10  C   UNL     1       0.447  -0.290   0.509  0.00  0.00    -0.046 A 
ATOM     11  C   UNL     1       0.590   0.673   1.660  0.00  0.00    +0.044 C 
ENDBRANCH   1   8
BRANCH   1  12
ATOM     12  N   UNL     1       1.678  -4.856  -0.007  0.00  0.00    -0.167 NA
ATOM     13  C   UNL     1       2.294  -5.346  -1.251  0.00  0.00    +0.103 C 
ATOM     14  C   UNL     1       2.877  -6.738  -0.986  0.00  0.00    +0.180 C 
ATOM     15  O   UNL     1       3.726  -6.682   0.163  0.00  0.00    -0.377 OA
ATOM     16  C   UNL     1       3.052  -6.322   1.371  0.00  0.00    +0.180 C 
ATOM     17  C   UNL     1       2.479  -4.903   1.226  0.00  0.00    +0.103 C 
ATOM     18  C   UNL     1       1.592  -4.578   2.429  0.00  0.00    +0.028 C 
ATOM     19  C   UNL     1       1.234  -5.431  -2.352  0.00  0.00    +0.028 C 
ENDBRANCH   1  12
TORSDOF 2
