REMARK  Name = ZINC13556655
REMARK  8 active torsions:
REMARK  status: ('A' for Active; 'I' for Inactive)
REMARK    1  A    between atoms: C_1  and  O_2
REMARK    2  A    between atoms: O_2  and  C_3
REMARK    3  A    between atoms: C_6  and  C_9
REMARK    4  A    between atoms: C_9  and  C_10
REMARK    5  A    between atoms: C_10  and  N_12
REMARK    6  A    between atoms: N_14  and  C_25
REMARK    7  A    between atoms: C_28  and  O_31
REMARK    8  A    between atoms: O_31  and  C_32
REMARK                            x       y       z     vdW  Elec       q    Type
REMARK                         _______ _______ _______ _____ _____    ______ ____
ROOT
ATOM      1  N   UNL     1       1.981  -3.361   6.552  0.00  0.00    -0.159 NA
ATOM      2  C   UNL     1       1.105  -3.605   7.519  0.00  0.00    +0.154 C 
ATOM      3  N   UNL     1       1.331  -4.214   8.725  0.00  0.00    -0.276 N 
ATOM      4  C   UNL     1       0.207  -4.725   9.469  0.00  0.00    +0.116 C 
ATOM      5  C   UNL     1       0.381  -6.168   9.938  0.00  0.00    +0.190 C 
ATOM      6  S   UNL     1      -0.901  -7.084   8.995  0.00  0.00    -0.028 S 
ATOM      7  O   UNL     1      -1.865  -7.596   9.905  0.00  0.00    -0.174 OA
ATOM      8  O   UNL     1      -0.260  -7.968   8.086  0.00  0.00    -0.174 OA
ATOM      9  C   UNL     1      -1.653  -5.701   8.049  0.00  0.00    +0.182 C 
ATOM     10  C   UNL     1      -1.157  -4.464   8.809  0.00  0.00    +0.097 C 
ATOM     11  S   UNL     1      -0.638  -3.209   7.549  0.00  0.00    -0.086 S 
ENDROOT
BRANCH   3  12
ATOM     12  C   UNL     1       2.632  -4.338   9.227  0.00  0.00    +0.036 A 
ATOM     13  C   UNL     1       3.716  -3.950   8.451  0.00  0.00    +0.027 A 
ATOM     14  C   UNL     1       4.999  -4.072   8.946  0.00  0.00    +0.047 A 
ATOM     15  C   UNL     1       5.205  -4.582  10.220  0.00  0.00    +0.120 A 
ATOM     16  C   UNL     1       4.123  -4.970  10.996  0.00  0.00    +0.047 A 
ATOM     17  C   UNL     1       2.839  -4.843  10.504  0.00  0.00    +0.027 A 
BRANCH  15  18
ATOM     18  O   UNL     1       6.469  -4.703  10.707  0.00  0.00    -0.495 OA
ATOM     19  C   UNL     1       6.608  -5.236  12.026  0.00  0.00    +0.277 C 
ENDBRANCH  15  18
ENDBRANCH   3  12
BRANCH   1  20
ATOM     20  C   UNL     1       1.588  -2.749   5.437  0.00  0.00    +0.243 C 
ATOM     21  O   UNL     1       0.427  -2.414   5.305  0.00  0.00    -0.273 OA
BRANCH  20  22
ATOM     22  C   UNL     1       2.583  -2.471   4.340  0.00  0.00    +0.133 C 
BRANCH  22  26
ATOM     23  C   UNL     1       0.615  -0.499   1.099  0.00  0.00    +0.120 A 
ATOM     24  C   UNL     1       1.185   0.244   2.122  0.00  0.00    +0.046 A 
ATOM     25  C   UNL     1       1.820  -0.395   3.169  0.00  0.00    +0.007 A 
ATOM     26  C   UNL     1       1.889  -1.776   3.197  0.00  0.00    -0.038 A 
ATOM     27  C   UNL     1       1.322  -2.520   2.179  0.00  0.00    +0.007 A 
ATOM     28  C   UNL     1       0.680  -1.885   1.133  0.00  0.00    +0.046 A 
BRANCH  23  30
ATOM     29  C   UNL     1      -0.039   1.556   0.100  0.00  0.00    +0.277 C 
ATOM     30  O   UNL     1      -0.011   0.128   0.069  0.00  0.00    -0.495 OA
ENDBRANCH  23  30
ENDBRANCH  22  26
ENDBRANCH  20  22
ENDBRANCH   1  20
TORSDOF 6
