REMARK  Name = ZINC65461912
REMARK  6 active torsions:
REMARK  status: ('A' for Active; 'I' for Inactive)
REMARK    1  A    between atoms: C_1  and  C_2
REMARK    2  A    between atoms: C_4  and  C_7
REMARK    3  A    between atoms: C_13  and  C_15
REMARK    4  A    between atoms: C_17  and  C_20
REMARK    5  A    between atoms: C_20  and  C_21
REMARK    6  A    between atoms: C_20  and  C_22
REMARK                            x       y       z     vdW  Elec       q    Type
REMARK                         _______ _______ _______ _____ _____    ______ ____
ROOT
ATOM      1  C   UNL     1      -1.857  -3.132  -0.007  0.00  0.00    +0.266 C 
ATOM      2  O   UNL     1      -1.594  -4.319  -0.015  0.00  0.00    -0.268 OA
ATOM      3  N   UNL     1      -3.142  -2.726   0.001  0.00  0.00    -0.288 N 
ATOM      4  C   UNL     1      -3.600  -1.325   0.004  0.00  0.00    +0.109 C 
ATOM      5  C   UNL     1      -5.026  -1.372  -0.600  0.00  0.00    +0.021 C 
ATOM      6  C   UNL     1      -5.569  -2.702  -0.012  0.00  0.00    +0.030 C 
ATOM      7  C   UNL     1      -4.319  -3.607   0.002  0.00  0.00    +0.129 C 
ENDROOT
BRANCH   1  11
ATOM      8  C   UNL     1      -0.018   1.503   0.010  0.00  0.00    +0.073 C 
ATOM      9  C   UNL     1       0.002  -0.004   0.002  0.00  0.00    +0.076 A 
ATOM     10  N   UNL     1      -1.014  -0.823   0.002  0.00  0.00    -0.240 NA
ATOM     11  C   UNL     1      -0.770  -2.137  -0.007  0.00  0.00    +0.133 A 
ATOM     12  C   UNL     1       0.548  -2.505  -0.015  0.00  0.00    +0.080 A 
ATOM     13  S   UNL     1       1.337  -1.022  -0.017  0.00  0.00    -0.080 S 
ENDBRANCH   1  11
BRANCH   7  14
ATOM     14  C   UNL     1      -4.320  -4.459   1.245  0.00  0.00    +0.104 A 
ATOM     15  C   UNL     1      -4.212  -5.861   1.286  0.00  0.00    +0.073 A 
ATOM     16  C   UNL     1      -4.253  -6.247   2.575  0.00  0.00    +0.140 A 
ATOM     17  O   UNL     1      -4.382  -5.147   3.334  0.00  0.00    -0.359 OA
ATOM     18  N   UNL     1      -4.417  -4.025   2.470  0.00  0.00    -0.081 NA
BRANCH  16  19
ATOM     19  C   UNL     1      -4.169  -7.665   3.079  0.00  0.00    +0.052 C 
ATOM     20  C   UNL     1      -2.953  -7.809   3.997  0.00  0.00    +0.015 C 
ATOM     21  C   UNL     1      -5.440  -8.005   3.859  0.00  0.00    +0.015 C 
ENDBRANCH  16  19
ENDBRANCH   7  14
TORSDOF 3
