REMARK  Name = ZINC14352115
REMARK  5 active torsions:
REMARK  status: ('A' for Active; 'I' for Inactive)
REMARK    1  A    between atoms: C_1  and  C_2
REMARK    2  A    between atoms: C_7  and  N_8
REMARK    3  A    between atoms: C_9  and  C_11
REMARK    4  A    between atoms: C_11  and  O_12
REMARK    5  A    between atoms: O_12  and  N_13
REMARK                            x       y       z     vdW  Elec       q    Type
REMARK                         _______ _______ _______ _____ _____    ______ ____
ROOT
ATOM      1  N   UNL     1       7.300   5.052  -0.038  0.00  0.00    -0.282 N 
ATOM      2  C   UNL     1       5.997   4.710  -0.032  0.00  0.00    +0.258 C 
ATOM      3  O   UNL     1       5.144   5.573  -0.014  0.00  0.00    -0.272 OA
ATOM      4  H   UNL     1       7.982   4.365   0.028  0.00  0.00    +0.155 HD
ENDROOT
BRANCH   1  11
ATOM      5  C   UNL     1       9.828   5.833   1.007  0.00  0.00    +0.045 C 
ATOM      6  C   UNL     1       8.896   6.822   0.357  0.00  0.00    -0.029 A 
ATOM      7  C   UNL     1       9.261   8.149   0.251  0.00  0.00    +0.006 A 
ATOM      8  C   UNL     1       8.404   9.059  -0.341  0.00  0.00    +0.020 A 
ATOM      9  C   UNL     1       7.180   8.640  -0.834  0.00  0.00    +0.043 A 
ATOM     10  C   UNL     1       6.811   7.312  -0.735  0.00  0.00    +0.043 A 
ATOM     11  C   UNL     1       7.670   6.397  -0.141  0.00  0.00    +0.038 A 
ATOM     12 CL   UNL     1       6.106   9.786  -1.576  0.00  0.00    -0.083 Cl
ENDBRANCH   1  11
BRANCH   2  13
ATOM     13  C   UNL     1       5.598   3.257  -0.048  0.00  0.00    +0.358 C 
BRANCH  13  14
ATOM     14  O   UNL     1       4.173   3.153  -0.037  0.00  0.00    -0.383 OA
BRANCH  14  15
ATOM     15  N   UNL     1       3.692   1.822  -0.050  0.00  0.00    -0.076 N 
ATOM     16  C   UNL     1       2.377   1.422  -0.044  0.00  0.00    +0.132 A 
ATOM     17  C   UNL     1       1.162   2.098  -0.024  0.00  0.00    +0.053 A 
ATOM     18  C   UNL     1      -0.016   1.385  -0.022  0.00  0.00    +0.043 A 
ATOM     19  C   UNL     1       0.003  -0.005  -0.041  0.00  0.00    +0.022 A 
ATOM     20  C   UNL     1       1.184  -0.686  -0.061  0.00  0.00    +0.033 A 
ATOM     21  C   UNL     1       2.397   0.016  -0.063  0.00  0.00    +0.116 A 
ATOM     22  N   UNL     1       3.687  -0.374  -0.079  0.00  0.00    -0.127 NA
ATOM     23  N   UNL     1       4.464   0.651  -0.072  0.00  0.00    -0.029 NA
ATOM     24 CL   UNL     1      -1.534   2.227  -0.004  0.00  0.00    -0.083 Cl
ENDBRANCH  14  15
ENDBRANCH  13  14
ENDBRANCH   2  13
TORSDOF 4
