REMARK  Name = ZINC37247703
REMARK  3 active torsions:
REMARK  status: ('A' for Active; 'I' for Inactive)
REMARK    1  A    between atoms: C_3  and  N_8
REMARK    2  A    between atoms: C_9  and  C_11
REMARK    3  A    between atoms: C_13  and  N_19
REMARK                            x       y       z     vdW  Elec       q    Type
REMARK                         _______ _______ _______ _____ _____    ______ ____
ROOT
ATOM      1  N   UNL     1       3.597   2.002  -0.022  0.00  0.00    -0.266 N 
ATOM      2  C   UNL     1       3.628   3.346  -0.117  0.00  0.00    +0.249 C 
ATOM      3  O   UNL     1       2.592   3.981  -0.104  0.00  0.00    -0.270 OA
ATOM      4  H   UNL     1       4.425   1.500   0.042  0.00  0.00    +0.157 HD
ENDROOT
BRANCH   2   5
ATOM      5  C   UNL     1       4.923   4.047  -0.238  0.00  0.00    +0.041 A 
ATOM      6  C   UNL     1       4.960   5.440  -0.331  0.00  0.00    +0.047 A 
ATOM      7  C   UNL     1       6.170   6.090  -0.442  0.00  0.00    +0.147 A 
ATOM      8  C   UNL     1       7.350   5.364  -0.463  0.00  0.00    +0.089 A 
ATOM      9  C   UNL     1       7.321   3.982  -0.371  0.00  0.00    +0.062 A 
ATOM     10  C   UNL     1       6.115   3.321  -0.253  0.00  0.00    +0.034 A 
ATOM     11 CL   UNL     1       8.804   3.080  -0.399  0.00  0.00    -0.082 Cl
ATOM     12 CL   UNL     1       8.871   6.190  -0.604  0.00  0.00    -0.080 Cl
BRANCH   7  13
ATOM     13  N   UNL     1       6.210   7.566  -0.541  0.00  0.00    +0.058 N 
ATOM     14  O   UNL     1       5.181   8.201  -0.524  0.00  0.00    -0.126 OA
ATOM     15  O   UNL     1       7.271   8.137  -0.639  0.00  0.00    -0.126 OA
ENDBRANCH   7  13
ENDBRANCH   2   5
BRANCH   1  18
ATOM     16  C   UNL     1       1.130  -0.710  -0.017  0.00  0.00    +0.025 A 
ATOM     17  C   UNL     1       2.350  -0.058  -0.024  0.00  0.00    +0.045 A 
ATOM     18  C   UNL     1       2.374   1.332  -0.015  0.00  0.00    +0.125 A 
ATOM     19  N   UNL     1       1.247   2.026  -0.001  0.00  0.00    -0.239 NA
ATOM     20  C   UNL     1       0.069   1.433   0.006  0.00  0.00    +0.132 A 
ATOM     21  C   UNL     1      -0.030   0.054  -0.001  0.00  0.00    +0.059 A 
ATOM     22 CL   UNL     1      -1.586  -0.714   0.007  0.00  0.00    -0.082 Cl
ENDBRANCH   1  18
TORSDOF 3
