REMARK  Name = ZINC21531479
REMARK  6 active torsions:
REMARK  status: ('A' for Active; 'I' for Inactive)
REMARK    1  A    between atoms: C_1  and  C_2
REMARK    2  A    between atoms: C_6  and  N_9
REMARK    3  A    between atoms: C_7  and  C_8
REMARK    4  A    between atoms: N_9  and  S_10
REMARK    5  A    between atoms: S_10  and  C_13
REMARK    6  A    between atoms: C_16  and  C_18
REMARK                            x       y       z     vdW  Elec       q    Type
REMARK                         _______ _______ _______ _____ _____    ______ ____
ROOT
ATOM      1  C   UNL     1       0.088  -4.986   4.057  0.00  0.00    +0.148 A 
ATOM      2  C   UNL     1      -0.960  -5.263   4.874  0.00  0.00    +0.037 A 
ATOM      3  C   UNL     1      -0.714  -5.670   6.167  0.00  0.00    +0.020 A 
ATOM      4  C   UNL     1       0.585  -5.781   6.586  0.00  0.00    +0.041 A 
ATOM      5  S   UNL     1       1.486  -5.308   5.120  0.00  0.00    -0.067 S 
ENDROOT
BRANCH   4   6
ATOM      6  C   UNL     1       1.105  -6.191   7.907  0.00  0.00    +0.098 A 
ATOM      7  C   UNL     1       2.503  -6.239   8.132  0.00  0.00    +0.036 A 
ATOM      8  C   UNL     1       2.946  -6.622   9.362  0.00  0.00    +0.073 A 
ATOM      9  C   UNL     1       1.980  -6.949  10.341  0.00  0.00    +0.265 A 
ATOM     10  O   UNL     1       2.330  -7.297  11.457  0.00  0.00    -0.266 OA
ATOM     11  N   UNL     1       0.672  -6.874  10.034  0.00  0.00    -0.243 N 
ATOM     12  N   UNL     1       0.270  -6.506   8.871  0.00  0.00    -0.170 NA
ATOM     13  H   UNL     1       0.015  -7.100  10.711  0.00  0.00    +0.192 HD
ENDBRANCH   4   6
BRANCH   1  14
ATOM     14  S   UNL     1       0.073  -4.452   2.378  0.00  0.00    +0.098 S 
ATOM     15  O   UNL     1      -1.169  -4.871   1.830  0.00  0.00    -0.148 OA
ATOM     16  O   UNL     1       1.321  -4.838   1.818  0.00  0.00    -0.148 OA
BRANCH  14  17
ATOM     17  N   UNL     1       0.051  -2.796   2.390  0.00  0.00    -0.097 NA
BRANCH  17  23
ATOM     18  C   UNL     1      -0.018   1.503   0.010  0.00  0.00    +0.044 C 
ATOM     19  C   UNL     1       0.002  -0.004   0.002  0.00  0.00    -0.046 A 
ATOM     20  C   UNL     1       0.006  -0.688  -1.200  0.00  0.00    +0.004 A 
ATOM     21  C   UNL     1       0.024  -2.071  -1.212  0.00  0.00    +0.002 A 
ATOM     22  C   UNL     1       0.039  -2.773  -0.023  0.00  0.00    +0.027 A 
ATOM     23  C   UNL     1       0.036  -2.089   1.186  0.00  0.00    +0.077 A 
ATOM     24  C   UNL     1       0.023  -0.700   1.194  0.00  0.00    -0.023 A 
ATOM     25  C   UNL     1       0.025   0.046   2.504  0.00  0.00    +0.046 C 
ENDBRANCH  17  23
ENDBRANCH  14  17
ENDBRANCH   1  14
TORSDOF 4
