REMARK  Name = ZINC12612521
REMARK  10 active torsions:
REMARK  status: ('A' for Active; 'I' for Inactive)
REMARK    1  A    between atoms: C_1  and  C_2
REMARK    2  A    between atoms: C_2  and  C_3
REMARK    3  A    between atoms: C_2  and  C_4
REMARK    4  A    between atoms: C_4  and  N_58
REMARK    5  A    between atoms: C_7  and  C_10
REMARK    6  A    between atoms: C_10  and  N_11
REMARK    7  A    between atoms: N_11  and  C_12
REMARK    8  A    between atoms: C_13  and  C_15
REMARK    9  A    between atoms: N_17  and  C_20
REMARK   10  A    between atoms: C_20  and  C_21
REMARK                            x       y       z     vdW  Elec       q    Type
REMARK                         _______ _______ _______ _____ _____    ______ ____
ROOT
ATOM      1  N   UNL     1       2.539   5.858   5.020  0.00  0.00    -0.299 N 
ATOM      2  C   UNL     1       1.419   5.100   5.585  0.00  0.00    +0.132 C 
ATOM      3  C   UNL     1       2.986   5.576   3.780  0.00  0.00    +0.268 C 
ATOM      4  O   UNL     1       3.956   6.160   3.337  0.00  0.00    -0.268 OA
ENDROOT
BRANCH   3   5
ATOM      5  C   UNL     1       2.300   4.559   2.962  0.00  0.00    +0.167 A 
ATOM      6  C   UNL     1       2.571   4.270   1.655  0.00  0.00    +0.143 A 
ATOM      7  N   UNL     1       1.723   3.287   1.288  0.00  0.00    -0.247 N 
ATOM      8  N   UNL     1       0.932   2.996   2.408  0.00  0.00    -0.065 NA
ATOM      9  N   UNL     1       1.302   3.759   3.377  0.00  0.00    -0.125 NA
BRANCH   7  10
ATOM     10  C   UNL     1       1.641   2.651  -0.029  0.00  0.00    +0.181 C 
BRANCH  10  11
ATOM     11  C   UNL     1       1.788   1.159   0.124  0.00  0.00    -0.008 A 
ATOM     12  C   UNL     1       0.668   0.349   0.111  0.00  0.00    +0.007 A 
ATOM     13  C   UNL     1       0.802  -1.019   0.250  0.00  0.00    +0.000 A 
ATOM     14  C   UNL     1       2.057  -1.579   0.403  0.00  0.00    +0.001 A 
ATOM     15  C   UNL     1       3.178  -0.771   0.416  0.00  0.00    +0.020 A 
ATOM     16  C   UNL     1       3.044   0.600   0.277  0.00  0.00    +0.046 A 
ATOM     17 CL   UNL     1       4.451   1.616   0.293  0.00  0.00    -0.083 Cl
ENDBRANCH  10  11
ENDBRANCH   7  10
ENDBRANCH   3   5
BRANCH   1  18
ATOM     18  C   UNL     1       3.172   6.922   5.803  0.00  0.00    +0.111 C 
BRANCH  18  21
ATOM     19  C   UNL     1       2.377  10.676   6.107  0.00  0.00    -0.079 C 
ATOM     20  C   UNL     1       3.044   9.338   6.433  0.00  0.00    -0.014 C 
ATOM     21  C   UNL     1       2.466   8.250   5.524  0.00  0.00    +0.003 C 
ATOM     22  C   UNL     1       2.686   8.648   4.062  0.00  0.00    -0.014 C 
ATOM     23  C   UNL     1       2.029  10.007   3.804  0.00  0.00    -0.079 C 
ATOM     24  N   UNL     1       2.646  11.014   4.693  0.00  0.00    +0.380 N 
ATOM     25  H   UNL     1       3.661  11.017   4.538  0.00  0.00    -0.082 HD
BRANCH  24  26
ATOM     26  C   UNL     1       2.110  12.355   4.384  0.00  0.00    -0.076 C 
BRANCH  26  28
ATOM     27  C   UNL     1       1.727  14.015   2.555  0.00  0.00    +0.005 C 
ATOM     28  C   UNL     1       2.305  12.639   2.893  0.00  0.00    -0.034 C 
ATOM     29  C   UNL     1       3.798  12.617   2.561  0.00  0.00    +0.005 C 
ENDBRANCH  26  28
ENDBRANCH  24  26
ENDBRANCH  18  21
ENDBRANCH   1  18
TORSDOF 7
