REMARK  Name = ZINC08157036
REMARK  6 active torsions:
REMARK  status: ('A' for Active; 'I' for Inactive)
REMARK    1  A    between atoms: C_1  and  C_2
REMARK    2  A    between atoms: C_10  and  C_12
REMARK    3  A    between atoms: C_12  and  S_13
REMARK    4  A    between atoms: S_13  and  C_14
REMARK    5  A    between atoms: N_19  and  C_20
REMARK    6  A    between atoms: C_20  and  C_21
REMARK                            x       y       z     vdW  Elec       q    Type
REMARK                         _______ _______ _______ _____ _____    ______ ____
ROOT
ATOM      1  S   UNL     1       6.122  -6.204   3.400  0.00  0.00    -0.091 S 
ENDROOT
BRANCH   1   2
ATOM      2  C   UNL     1       5.013  -5.009   2.731  0.00  0.00    +0.160 A 
ATOM      3  N   UNL     1       3.708  -4.899   2.890  0.00  0.00    -0.133 NA
ATOM      4  N   UNL     1       3.027  -3.877   2.270  0.00  0.00    -0.125 NA
ATOM      5  C   UNL     1       3.682  -3.012   1.521  0.00  0.00    +0.182 A 
ATOM      6  S   UNL     1       5.354  -3.626   1.653  0.00  0.00    -0.025 S 
ATOM      7  N   UNL     1       3.199  -1.918   0.812  0.00  0.00    -0.320 N 
ATOM      8  H   UNL     1       3.808  -1.366   0.298  0.00  0.00    +0.148 HD
BRANCH   7   9
ATOM      9  C   UNL     1       1.769  -1.600   0.841  0.00  0.00    +0.135 C 
BRANCH   9  10
ATOM     10  C   UNL     1       1.506  -0.359  -0.014  0.00  0.00    +0.135 C 
ATOM     11  C   UNL     1       0.002  -0.004   0.002  0.00  0.00    +0.035 C 
ATOM     12  C   UNL     1      -0.019   1.541   0.011  0.00  0.00    +0.031 C 
ATOM     13  C   UNL     1       1.474   1.937  -0.002  0.00  0.00    +0.160 C 
ATOM     14  O   UNL     1       2.163   0.795   0.553  0.00  0.00    -0.375 OA
ENDBRANCH   9  10
ENDBRANCH   7   9
ENDBRANCH   1   2
BRANCH   1  15
ATOM     15  C   UNL     1       5.056  -7.290   4.386  0.00  0.00    +0.132 C 
BRANCH  15  25
ATOM     16  C   UNL     1       8.607 -11.524   8.020  0.00  0.00    +0.064 C 
ATOM     17  C   UNL     1       8.189 -11.429   6.575  0.00  0.00    +0.033 A 
ATOM     18  C   UNL     1       8.570 -12.377   5.719  0.00  0.00    +0.070 A 
ATOM     19  S   UNL     1       7.835 -11.809   4.194  0.00  0.00    -0.057 S 
ATOM     20  C   UNL     1       7.074 -10.335   4.838  0.00  0.00    +0.180 A 
ATOM     21  N   UNL     1       7.422 -10.367   6.162  0.00  0.00    -0.259 N 
ATOM     22  C   UNL     1       6.969  -9.335   6.936  0.00  0.00    +0.259 A 
ATOM     23  O   UNL     1       7.241  -9.299   8.125  0.00  0.00    -0.267 OA
ATOM     24  C   UNL     1       6.199  -8.322   6.364  0.00  0.00    +0.095 A 
ATOM     25  C   UNL     1       5.890  -8.372   5.021  0.00  0.00    +0.059 A 
ATOM     26  N   UNL     1       6.347  -9.389   4.295  0.00  0.00    -0.227 NA
ENDBRANCH  15  25
ENDBRANCH   1  15
TORSDOF 5
