REMARK  Name = ZINC34757330
REMARK  9 active torsions:
REMARK  status: ('A' for Active; 'I' for Inactive)
REMARK    1  A    between atoms: C_1  and  C_2
REMARK    2  A    between atoms: C_2  and  C_3
REMARK    3  A    between atoms: C_2  and  C_4
REMARK    4  A    between atoms: C_4  and  S_5
REMARK    5  A    between atoms: S_5  and  C_6
REMARK    6  A    between atoms: N_21  and  C_24
REMARK    7  A    between atoms: C_24  and  C_25
REMARK    8  A    between atoms: N_27  and  C_28
REMARK    9  A    between atoms: N_27  and  C_29
REMARK                            x       y       z     vdW  Elec       q    Type
REMARK                         _______ _______ _______ _____ _____    ______ ____
ROOT
ATOM      1  C   UNL     1      -3.950  -0.587  -1.280  0.00  0.00    +0.191 A 
ATOM      2  N   UNL     1      -4.826  -0.421  -2.264  0.00  0.00    -0.206 NA
ATOM      3  C   UNL     1      -5.993  -1.044  -2.278  0.00  0.00    +0.134 A 
ATOM      4  C   UNL     1      -6.323  -1.920  -1.207  0.00  0.00    +0.051 A 
ATOM      5  C   UNL     1      -7.552  -2.709  -1.017  0.00  0.00    -0.025 A 
ATOM      6  C   UNL     1      -7.623  -3.466   0.088  0.00  0.00    -0.004 A 
ATOM      7  S   UNL     1      -6.085  -3.190   0.938  0.00  0.00    -0.073 S 
ATOM      8  C   UNL     1      -5.349  -2.048  -0.200  0.00  0.00    +0.115 A 
ATOM      9  N   UNL     1      -4.204  -1.395  -0.260  0.00  0.00    -0.215 NA
ATOM     10  C   UNL     1      -8.922  -4.222   0.178  0.00  0.00    +0.043 C 
ATOM     11  C   UNL     1      -9.857  -3.505  -0.820  0.00  0.00    +0.010 C 
ATOM     12  C   UNL     1      -8.847  -2.898  -1.813  0.00  0.00    +0.037 C 
ATOM     13  N   UNL     1      -6.881  -0.845  -3.320  0.00  0.00    -0.318 N 
ATOM     14  C   UNL     1      -7.830   0.279  -3.301  0.00  0.00    +0.088 C 
ATOM     15  C   UNL     1      -7.723   1.026  -4.635  0.00  0.00    -0.059 C 
ATOM     16  N   UNL     1      -7.924   0.081  -5.741  0.00  0.00    +0.387 N 
ATOM     17  C   UNL     1      -6.840  -0.910  -5.756  0.00  0.00    -0.059 C 
ATOM     18  C   UNL     1      -6.899  -1.749  -4.480  0.00  0.00    +0.088 C 
ATOM     19  H   UNL     1      -8.808  -0.391  -5.622  0.00  0.00    -0.081 HD
ENDROOT
BRANCH   1  20
ATOM     20  S   UNL     1      -2.417   0.280  -1.334  0.00  0.00    -0.086 S 
BRANCH  20  21
ATOM     21  C   UNL     1      -1.560  -0.250   0.175  0.00  0.00    +0.080 C 
BRANCH  21  23
ATOM     22  C   UNL     1      -0.392   1.946   0.408  0.00  0.00    +0.008 C 
ATOM     23  C   UNL     1      -0.195   0.437   0.254  0.00  0.00    -0.007 C 
ATOM     24  C   UNL     1       0.578  -0.102   1.459  0.00  0.00    +0.008 C 
ENDBRANCH  21  23
ENDBRANCH  20  21
ENDBRANCH   1  20
BRANCH  16  25
ATOM     25  C   UNL     1      -7.932   0.814  -7.014  0.00  0.00    +0.019 C 
BRANCH  25  26
ATOM     26  C   UNL     1      -8.259  -0.134  -8.138  0.00  0.00    +0.199 C 
ATOM     27  O   UNL     1      -8.466  -1.306  -7.903  0.00  0.00    -0.278 OA
ATOM     28  N   UNL     1      -8.323   0.320  -9.406  0.00  0.00    -0.309 N 
ATOM     29  C   UNL     1      -8.641  -0.602 -10.499  0.00  0.00    +0.131 C 
ATOM     30  C   UNL     1      -8.073   1.735  -9.691  0.00  0.00    +0.131 C 
ENDBRANCH  25  26
ENDBRANCH  16  25
TORSDOF 5
