REMARK  Name = ZINC65029449
REMARK  6 active torsions:
REMARK  status: ('A' for Active; 'I' for Inactive)
REMARK    1  A    between atoms: C_1  and  S_2
REMARK    2  A    between atoms: S_2  and  N_5
REMARK    3  A    between atoms: N_5  and  C_6
REMARK    4  A    between atoms: C_9  and  C_12
REMARK    5  A    between atoms: C_12  and  C_18
REMARK    6  A    between atoms: N_20  and  C_21
REMARK                            x       y       z     vdW  Elec       q    Type
REMARK                         _______ _______ _______ _____ _____    ______ ____
ROOT
ATOM      1  C   UNL     1       1.596  -5.868  -2.711  0.00  0.00    +0.072 C 
ATOM      2  C   UNL     1       0.232  -6.561  -2.687  0.00  0.00    +0.021 C 
ATOM      3  C   UNL     1       0.407  -8.045  -3.014  0.00  0.00    +0.001 C 
ATOM      4  C   UNL     1       1.029  -8.191  -4.404  0.00  0.00    +0.000 C 
ATOM      5  C   UNL     1       2.393  -7.499  -4.428  0.00  0.00    +0.001 C 
ATOM      6  C   UNL     1       2.218  -6.014  -4.101  0.00  0.00    +0.021 C 
ENDROOT
BRANCH   1  10
ATOM      7  C   UNL     1       1.105  -1.722  -1.797  0.00  0.00    +0.074 A 
ATOM      8  C   UNL     1      -0.009  -2.540  -1.939  0.00  0.00    +0.027 A 
ATOM      9  C   UNL     1       0.153  -3.880  -2.235  0.00  0.00    +0.006 A 
ATOM     10  C   UNL     1       1.423  -4.406  -2.389  0.00  0.00    -0.032 A 
ATOM     11  C   UNL     1       2.533  -3.595  -2.249  0.00  0.00    +0.006 A 
ATOM     12  C   UNL     1       2.378  -2.253  -1.958  0.00  0.00    +0.027 A 
BRANCH   7  13
ATOM     13  N   UNL     1       0.945  -0.367  -1.498  0.00  0.00    -0.103 NA
BRANCH  13  15
ATOM     14  C   UNL     1      -0.306   2.020  -0.937  0.00  0.00    +0.220 C 
ATOM     15  S   UNL     1      -0.574   0.264  -1.306  0.00  0.00    +0.059 S 
ATOM     16  O   UNL     1      -1.102  -0.401  -0.167  0.00  0.00    -0.154 OA
ATOM     17  O   UNL     1      -1.190   0.120  -2.579  0.00  0.00    -0.154 OA
ENDBRANCH  13  15
ENDBRANCH   7  13
ENDBRANCH   1  10
BRANCH   1  18
ATOM     18  C   UNL     1       2.500  -6.505  -1.687  0.00  0.00    +0.224 C 
ATOM     19  O   UNL     1       3.595  -6.910  -2.013  0.00  0.00    -0.275 OA
ATOM     20  N   UNL     1       2.091  -6.623  -0.408  0.00  0.00    -0.312 N 
ATOM     21  H   UNL     1       1.188  -6.366  -0.161  0.00  0.00    +0.149 HD
BRANCH  20  22
ATOM     22  C   UNL     1       3.009  -7.141   0.610  0.00  0.00    +0.073 C 
ATOM     23  C   UNL     1       3.872  -5.997   1.146  0.00  0.00    +0.022 C 
ATOM     24  C   UNL     1       4.831  -6.537   2.209  0.00  0.00    +0.002 C 
ATOM     25  C   UNL     1       4.027  -7.151   3.357  0.00  0.00    +0.000 C 
ATOM     26  C   UNL     1       3.164  -8.294   2.821  0.00  0.00    +0.002 C 
ATOM     27  C   UNL     1       2.205  -7.754   1.758  0.00  0.00    +0.022 C 
ENDBRANCH  20  22
ENDBRANCH   1  18
TORSDOF 5
