REMARK  Name = ZINC64050650
REMARK  8 active torsions:
REMARK  status: ('A' for Active; 'I' for Inactive)
REMARK    1  A    between atoms: C_1  and  C_2
REMARK    2  A    between atoms: C_4  and  C_28
REMARK    3  A    between atoms: C_9  and  S_11
REMARK    4  A    between atoms: S_11  and  C_12
REMARK    5  A    between atoms: C_12  and  C_14
REMARK    6  A    between atoms: C_12  and  C_15
REMARK    7  A    between atoms: C_20  and  C_27
REMARK    8  A    between atoms: C_21  and  C_26
REMARK                            x       y       z     vdW  Elec       q    Type
REMARK                         _______ _______ _______ _____ _____    ______ ____
ROOT
ATOM      1  C   UNL     1       4.416  -4.935  -0.049  0.00  0.00    +0.117 C 
ATOM      2  C   UNL     1       4.682  -4.180  -1.353  0.00  0.00    +0.027 C 
ENDROOT
BRANCH   1   3
ATOM      3  C   UNL     1       5.370  -6.096   0.064  0.00  0.00    +0.137 C 
ATOM      4  N   UNL     1       6.559  -5.877   0.571  0.00  0.00    -0.160 NA
ATOM      5  C   UNL     1       7.475  -6.840   0.712  0.00  0.00    +0.271 C 
ATOM      6  O   UNL     1       8.572  -6.601   1.188  0.00  0.00    -0.268 OA
ATOM      7  C   UNL     1       7.110  -8.223   0.266  0.00  0.00    +0.071 C 
ATOM      8  C   UNL     1       7.859  -9.335   0.311  0.00  0.00    -0.045 C 
ATOM      9  C   UNL     1       7.246 -10.617  -0.207  0.00  0.00    +0.076 C 
ATOM     10  S   UNL     1       5.576 -10.048  -0.727  0.00  0.00    -0.098 S 
ATOM     11  C   UNL     1       5.744  -8.336  -0.286  0.00  0.00    +0.111 C 
ATOM     12  N   UNL     1       4.961  -7.285  -0.350  0.00  0.00    -0.226 NA
ATOM     13  C   UNL     1       8.036 -11.159  -1.400  0.00  0.00    +0.024 C 
ATOM     14  C   UNL     1       9.263  -9.309   0.858  0.00  0.00    +0.041 C 
ENDBRANCH   1   3
BRANCH   1  15
ATOM     15  S   UNL     1       2.710  -5.551  -0.044  0.00  0.00    -0.074 S 
BRANCH  15  24
ATOM     16  C   UNL     1      -0.018   1.503   0.010  0.00  0.00    +0.066 C 
ATOM     17  C   UNL     1       0.002  -0.004   0.002  0.00  0.00    +0.044 A 
ATOM     18  C   UNL     1      -1.202  -0.717   0.004  0.00  0.00    +0.046 A 
ATOM     19  C   UNL     1      -1.169  -2.075  -0.004  0.00  0.00    +0.045 A 
ATOM     20  N   UNL     1       0.035  -2.706  -0.014  0.00  0.00    -0.200 N 
ATOM     21  C   UNL     1       1.192  -1.980  -0.015  0.00  0.00    +0.254 A 
ATOM     22  N   UNL     1       1.151  -0.643  -0.012  0.00  0.00    -0.216 NA
ATOM     23  N   UNL     1       2.202  -2.844  -0.025  0.00  0.00    -0.183 NA
ATOM     24  C   UNL     1       1.728  -4.088  -0.030  0.00  0.00    +0.212 A 
ATOM     25  N   UNL     1       0.410  -4.055  -0.023  0.00  0.00    -0.137 NA
ATOM     26  C   UNL     1      -2.449  -2.871  -0.002  0.00  0.00    +0.066 C 
ENDBRANCH  15  24
ENDBRANCH   1  15
TORSDOF 3
