REMARK  Name = ZINC64076579
REMARK  4 active torsions:
REMARK  status: ('A' for Active; 'I' for Inactive)
REMARK    1  A    between atoms: C_1  and  C_2
REMARK    2  A    between atoms: C_6  and  C_10
REMARK    3  A    between atoms: C_11  and  C_13
REMARK    4  A    between atoms: C_16  and  C_18
REMARK                            x       y       z     vdW  Elec       q    Type
REMARK                         _______ _______ _______ _____ _____    ______ ____
ROOT
ATOM      1  C   UNL     1      -2.957  -2.260  -1.652  0.00  0.00    +0.131 C 
ATOM      2  N   UNL     1      -3.126  -1.001  -1.960  0.00  0.00    -0.148 NA
ATOM      3  N   UNL     1      -3.964  -0.795  -2.898  0.00  0.00    -0.153 NA
ATOM      4  C   UNL     1      -4.508  -1.887  -3.385  0.00  0.00    +0.078 C 
ATOM      5  C   UNL     1      -3.878  -3.021  -2.593  0.00  0.00    +0.120 C 
ENDROOT
BRANCH   1  14
ATOM      6  C   UNL     1       0.652   1.190  -0.724  0.00  0.00    +0.039 C 
ATOM      7  C   UNL     1       0.443  -0.312  -0.518  0.00  0.00    +0.133 C 
ATOM      8  C   UNL     1      -1.053  -0.602  -0.349  0.00  0.00    +0.139 C 
ATOM      9  N   UNL     1      -1.212  -2.014   0.032  0.00  0.00    -0.289 N 
ATOM     10  C   UNL     1      -0.407  -2.522   1.155  0.00  0.00    +0.099 C 
ATOM     11  C   UNL     1       1.057  -2.139   0.912  0.00  0.00    +0.182 C 
ATOM     12  O   UNL     1       1.141  -0.735   0.655  0.00  0.00    -0.373 OA
ATOM     13  C   UNL     1      -0.894  -1.897   2.463  0.00  0.00    +0.030 C 
ATOM     14  C   UNL     1      -2.069  -2.818  -0.627  0.00  0.00    +0.263 C 
ATOM     15  O   UNL     1      -2.107  -4.007  -0.371  0.00  0.00    -0.269 OA
ENDBRANCH   1  14
BRANCH   4  16
ATOM     16  C   UNL     1      -5.500  -1.990  -4.460  0.00  0.00    +0.017 A 
ATOM     17  C   UNL     1      -5.983  -3.244  -4.856  0.00  0.00    +0.011 A 
ATOM     18  C   UNL     1      -6.915  -3.331  -5.866  0.00  0.00    +0.001 A 
ATOM     19  C   UNL     1      -7.376  -2.184  -6.492  0.00  0.00    +0.001 A 
ATOM     20  C   UNL     1      -6.905  -0.941  -6.109  0.00  0.00    +0.020 A 
ATOM     21  C   UNL     1      -5.975  -0.833  -5.094  0.00  0.00    +0.050 A 
ATOM     22 CL   UNL     1      -5.391   0.728  -4.611  0.00  0.00    -0.083 Cl
ENDBRANCH   4  16
TORSDOF 2
