REMARK  Name = ZINC01409493
REMARK  4 active torsions:
REMARK  status: ('A' for Active; 'I' for Inactive)
REMARK    1  A    between atoms: C_1  and  C_2
REMARK    2  A    between atoms: C_2  and  N_4
REMARK    3  A    between atoms: C_10  and  C_11
REMARK    4  A    between atoms: N_13  and  C_20
REMARK                            x       y       z     vdW  Elec       q    Type
REMARK                         _______ _______ _______ _____ _____    ______ ____
ROOT
ATOM      1  N   UNL     1      -1.133  -0.681  -0.082  0.00  0.00    -0.159 NA
ATOM      2  C   UNL     1      -1.120  -2.007  -0.167  0.00  0.00    +0.158 C 
ATOM      3  N   UNL     1      -0.034  -2.836  -0.183  0.00  0.00    -0.262 N 
ATOM      4  C   UNL     1      -0.198  -4.148  -0.274  0.00  0.00    +0.256 C 
ATOM      5  O   UNL     1       0.743  -4.920  -0.291  0.00  0.00    -0.269 OA
ATOM      6  C   UNL     1      -1.551  -4.595  -0.349  0.00  0.00    +0.078 C 
ATOM      7  C   UNL     1      -2.037  -5.864  -0.449  0.00  0.00    +0.030 C 
ATOM      8  S   UNL     1      -2.436  -3.048  -0.273  0.00  0.00    -0.051 S 
ATOM      9  H   UNL     1       0.860  -2.464  -0.127  0.00  0.00    +0.157 HD
ENDROOT
BRANCH   7  10
ATOM     10  C   UNL     1      -3.470  -6.086  -0.633  0.00  0.00    +0.001 A 
ATOM     11  C   UNL     1      -4.455  -5.137  -0.613  0.00  0.00    +0.094 A 
ATOM     12  N   UNL     1      -5.660  -5.725  -0.821  0.00  0.00    -0.349 N 
ATOM     13  C   UNL     1      -5.510  -7.087  -0.985  0.00  0.00    +0.049 A 
ATOM     14  C   UNL     1      -4.139  -7.377  -0.882  0.00  0.00    +0.007 A 
ATOM     15  C   UNL     1      -3.691  -8.688  -1.016  0.00  0.00    +0.010 A 
ATOM     16  C   UNL     1      -4.598  -9.699  -1.252  0.00  0.00    +0.001 A 
ATOM     17  C   UNL     1      -5.951  -9.414  -1.358  0.00  0.00    +0.002 A 
ATOM     18  C   UNL     1      -6.410  -8.122  -1.219  0.00  0.00    +0.026 A 
ATOM     19  C   UNL     1      -6.940  -5.015  -0.864  0.00  0.00    +0.149 C 
ENDBRANCH   7  10
BRANCH   1  21
ATOM     20  C   UNL     1      -0.011   1.506  -0.149  0.00  0.00    +0.111 C 
ATOM     21  C   UNL     1       0.010  -0.001  -0.124  0.00  0.00    +0.235 C 
ATOM     22  O   UNL     1       1.071  -0.595  -0.142  0.00  0.00    -0.274 OA
ENDBRANCH   1  21
TORSDOF 2
