REMARK  Name = ZINC37521691
REMARK  6 active torsions:
REMARK  status: ('A' for Active; 'I' for Inactive)
REMARK    1  A    between atoms: C_1  and  C_2
REMARK    2  A    between atoms: C_6  and  N_8
REMARK    3  A    between atoms: C_12  and  C_16
REMARK    4  A    between atoms: C_17  and  C_19
REMARK    5  A    between atoms: C_19  and  C_20
REMARK    6  A    between atoms: C_19  and  C_21
REMARK                            x       y       z     vdW  Elec       q    Type
REMARK                         _______ _______ _______ _____ _____    ______ ____
ROOT
ATOM      1  N   UNL     1      -0.004  -2.207   3.013  0.00  0.00    -0.266 N 
ATOM      2  C   UNL     1       1.302  -2.587   3.532  0.00  0.00    +0.133 C 
ATOM      3  C   UNL     1       1.166  -3.294   4.882  0.00  0.00    +0.128 C 
ATOM      4  N   UNL     1       0.101  -4.304   4.765  0.00  0.00    -0.288 N 
ATOM      5  C   UNL     1      -1.252  -3.825   4.447  0.00  0.00    +0.159 C 
ATOM      6  C   UNL     1      -1.157  -2.770   3.379  0.00  0.00    +0.240 C 
ATOM      7  O   UNL     1      -2.175  -2.418   2.821  0.00  0.00    -0.273 OA
ATOM      8  C   UNL     1      -2.106  -4.992   3.949  0.00  0.00    +0.038 C 
ATOM      9  C   UNL     1       0.356  -5.616   4.944  0.00  0.00    +0.219 C 
ATOM     10  O   UNL     1      -0.551  -6.420   4.909  0.00  0.00    -0.275 OA
ENDROOT
BRANCH   1  16
ATOM     11  C   UNL     1      -0.393   2.589   2.000  0.00  0.00    +0.044 C 
ATOM     12  C   UNL     1      -0.243   1.159   1.549  0.00  0.00    -0.049 A 
ATOM     13  C   UNL     1      -0.155   0.866   0.200  0.00  0.00    +0.006 A 
ATOM     14  C   UNL     1      -0.018  -0.445  -0.219  0.00  0.00    +0.040 A 
ATOM     15  C   UNL     1       0.032  -1.467   0.711  0.00  0.00    +0.145 A 
ATOM     16  C   UNL     1      -0.055  -1.175   2.068  0.00  0.00    +0.072 A 
ATOM     17  C   UNL     1      -0.187   0.143   2.483  0.00  0.00    +0.029 A 
ATOM     18  F   UNL     1       0.166  -2.748   0.302  0.00  0.00    -0.204 F 
ENDBRANCH   1  16
BRANCH   9  19
ATOM     19  C   UNL     1       1.768  -6.083   5.186  0.00  0.00    +0.069 C 
ATOM     20  C   UNL     1       1.762  -7.579   5.507  0.00  0.00    +0.017 C 
ATOM     21  C   UNL     1       2.610  -5.833   3.934  0.00  0.00    +0.017 C 
ENDBRANCH   9  19
TORSDOF 2
