REMARK  Name = ZINC41586166
REMARK  9 active torsions:
REMARK  status: ('A' for Active; 'I' for Inactive)
REMARK    1  A    between atoms: C_1  and  C_2
REMARK    2  A    between atoms: C_2  and  O_3
REMARK    3  A    between atoms: O_3  and  C_4
REMARK    4  A    between atoms: C_4  and  C_6
REMARK    5  A    between atoms: N_9  and  C_12
REMARK    6  A    between atoms: C_12  and  C_13
REMARK    7  A    between atoms: C_14  and  O_30
REMARK    8  A    between atoms: C_16  and  C_29
REMARK    9  A    between atoms: C_21  and  C_22
REMARK                            x       y       z     vdW  Elec       q    Type
REMARK                         _______ _______ _______ _____ _____    ______ ____
ROOT
ATOM      1  C   UNL     1       1.602  -6.158   5.581  0.00  0.00    +0.020 A 
ATOM      2  C   UNL     1       0.364  -6.714   5.860  0.00  0.00    +0.122 A 
ATOM      3  C   UNL     1       0.117  -8.059   5.599  0.00  0.00    +0.050 A 
ATOM      4  C   UNL     1       1.097  -8.848   5.064  0.00  0.00    -0.033 A 
ATOM      5  C   UNL     1       2.348  -8.302   4.779  0.00  0.00    +0.071 A 
ATOM      6  C   UNL     1       2.606  -6.944   5.032  0.00  0.00    +0.145 A 
ATOM      7  O   UNL     1       3.875  -6.667   4.665  0.00  0.00    -0.451 OA
ATOM      8  C   UNL     1       4.498  -7.762   4.169  0.00  0.00    +0.177 C 
ATOM      9  C   UNL     1       5.783  -7.810   3.712  0.00  0.00    +0.065 C 
ATOM     10  C   UNL     1       3.592  -8.855   4.215  0.00  0.00    +0.232 C 
ATOM     11  O   UNL     1       3.795 -10.002   3.852  0.00  0.00    -0.283 OA
ATOM     12  C   UNL     1       0.827 -10.303   4.785  0.00  0.00    +0.045 C 
ENDROOT
BRANCH   9  13
ATOM     13  C   UNL     1       6.370  -9.053   3.386  0.00  0.00    +0.016 A 
ATOM     14  C   UNL     1       7.281  -9.355   2.378  0.00  0.00    +0.015 A 
ATOM     15  C   UNL     1       7.676 -10.669   2.308  0.00  0.00    +0.008 A 
ATOM     16  C   UNL     1       7.168 -11.559   3.199  0.00  0.00    +0.046 A 
ATOM     17  S   UNL     1       6.145 -10.641   4.164  0.00  0.00    -0.097 S 
ENDBRANCH   9  13
BRANCH   2  18
ATOM     18  O   UNL     1      -0.617  -5.941   6.393  0.00  0.00    -0.506 OA
ATOM     19  H   UNL     1      -1.178  -5.508   5.734  0.00  0.00    +0.292 HD
ENDBRANCH   2  18
BRANCH   1  20
ATOM     20  C   UNL     1       1.857  -4.701   5.867  0.00  0.00    -0.036 C 
BRANCH  20  24
ATOM     21  C   UNL     1       2.062  -1.973   2.600  0.00  0.00    +0.094 C 
ATOM     22  C   UNL     1       1.186  -1.635   3.810  0.00  0.00    -0.004 C 
ATOM     23  C   UNL     1       1.634  -2.474   5.008  0.00  0.00    -0.078 C 
ATOM     24  N   UNL     1       1.500  -3.901   4.689  0.00  0.00    +0.383 N 
ATOM     25  C   UNL     1       2.391  -4.248   3.575  0.00  0.00    -0.078 C 
ATOM     26  C   UNL     1       1.972  -3.476   2.322  0.00  0.00    -0.004 C 
ATOM     27  H   UNL     1       0.545  -4.097   4.428  0.00  0.00    -0.081 HD
BRANCH  21  28
ATOM     28  C   UNL     1       1.576  -1.208   1.396  0.00  0.00    +0.310 C 
ATOM     29  O   UNL     1       1.196  -1.802   0.415  0.00  0.00    -0.251 OA
BRANCH  28  30
ATOM     30  O   UNL     1       1.565   0.134   1.414  0.00  0.00    -0.465 OA
BRANCH  30  32
ATOM     31  C   UNL     1       1.153   2.309   0.445  0.00  0.00    +0.048 C 
ATOM     32  C   UNL     1       1.092   0.795   0.238  0.00  0.00    +0.229 C 
ENDBRANCH  30  32
ENDBRANCH  28  30
ENDBRANCH  21  28
ENDBRANCH  20  24
ENDBRANCH   1  20
TORSDOF 7
