REMARK  Name = ZINC31648374
REMARK  5 active torsions:
REMARK  status: ('A' for Active; 'I' for Inactive)
REMARK    1  A    between atoms: C_1  and  C_2
REMARK    2  A    between atoms: C_5  and  C_8
REMARK    3  A    between atoms: N_11  and  C_13
REMARK    4  A    between atoms: C_13  and  C_14
REMARK    5  A    between atoms: C_21  and  C_25
REMARK                            x       y       z     vdW  Elec       q    Type
REMARK                         _______ _______ _______ _____ _____    ______ ____
ROOT
ATOM      1  C   UNL     1       2.489   1.070  -0.015  0.00  0.00    +0.223 C 
ENDROOT
BRANCH   1   2
ATOM      2  C   UNL     1       1.167   1.794   0.001  0.00  0.00    +0.072 A 
ATOM      3  C   UNL     1      -0.013   1.076   0.008  0.00  0.00    +0.096 A 
ATOM      4  C   UNL     1      -1.228   1.771   0.017  0.00  0.00    +0.259 A 
ATOM      5  O   UNL     1      -2.288   1.165   0.019  0.00  0.00    -0.267 OA
ATOM      6  N   UNL     1      -1.209   3.121   0.030  0.00  0.00    -0.268 N 
ATOM      7  C   UNL     1      -2.382   3.811   0.045  0.00  0.00    +0.096 A 
ATOM      8  C   UNL     1      -2.389   5.163   0.052  0.00  0.00    +0.021 A 
ATOM      9  C   UNL     1      -1.181   5.873   0.043  0.00  0.00    -0.046 A 
ATOM     10  C   UNL     1      -0.000   5.192   0.028  0.00  0.00    +0.050 A 
ATOM     11  C   UNL     1      -0.014   3.785   0.021  0.00  0.00    +0.141 A 
ATOM     12  N   UNL     1       1.138   3.117   0.007  0.00  0.00    -0.232 NA
ATOM     13  C   UNL     1      -1.186   7.380   0.051  0.00  0.00    +0.044 C 
ENDBRANCH   1   2
BRANCH   1  17
ATOM     14  C   UNL     1       3.923   1.352  -3.227  0.00  0.00    +0.205 A 
ATOM     15  N   UNL     1       3.274   0.184  -3.325  0.00  0.00    -0.108 NA
ATOM     16  N   UNL     1       2.704  -0.034  -2.188  0.00  0.00    -0.045 NA
ATOM     17  N   UNL     1       2.962   0.948  -1.397  0.00  0.00    -0.157 N 
ATOM     18  N   UNL     1       3.707   1.804  -2.008  0.00  0.00    -0.130 NA
BRANCH  14  23
ATOM     19  C   UNL     1       7.045   3.907  -7.339  0.00  0.00    +0.044 C 
ATOM     20  C   UNL     1       6.229   3.238  -6.263  0.00  0.00    -0.050 A 
ATOM     21  C   UNL     1       5.616   2.025  -6.517  0.00  0.00    +0.004 A 
ATOM     22  C   UNL     1       4.866   1.408  -5.535  0.00  0.00    +0.012 A 
ATOM     23  C   UNL     1       4.728   2.011  -4.287  0.00  0.00    +0.023 A 
ATOM     24  C   UNL     1       5.343   3.236  -4.038  0.00  0.00    +0.012 A 
ATOM     25  C   UNL     1       6.094   3.841  -5.025  0.00  0.00    +0.004 A 
ENDBRANCH  14  23
ENDBRANCH   1  17
TORSDOF 3
