REMARK  Name = ZINC38971405
REMARK  2 active torsions:
REMARK  status: ('A' for Active; 'I' for Inactive)
REMARK    1  A    between atoms: C_3  and  C_6
REMARK    2  A    between atoms: C_17  and  C_19
REMARK                            x       y       z     vdW  Elec       q    Type
REMARK                         _______ _______ _______ _____ _____    ______ ____
ROOT
ATOM      1  C   UNL     1       3.128   0.659   0.355  0.00  0.00    +0.276 C 
ATOM      2  N   UNL     1       3.847   1.796   0.936  0.00  0.00    -0.250 NA
ATOM      3  C   UNL     1       4.650   1.362   1.864  0.00  0.00    +0.084 C 
ATOM      4  C   UNL     1       5.590   2.076   2.752  0.00  0.00    +0.031 C 
ATOM      5  C   UNL     1       6.316   1.378   3.641  0.00  0.00    +0.025 C 
ATOM      6  C   UNL     1       6.178  -0.080   3.733  0.00  0.00    +0.036 C 
ATOM      7  C   UNL     1       5.284  -0.776   2.892  0.00  0.00    +0.050 C 
ATOM      8  C   UNL     1       4.532  -0.108   1.980  0.00  0.00    +0.077 C 
ATOM      9  N   UNL     1       3.601  -0.542   1.056  0.00  0.00    -0.215 NA
ATOM     10  N   UNL     1       6.905  -0.754   4.620  0.00  0.00    -0.281 N 
ATOM     11  C   UNL     1       7.668  -0.093   5.504  0.00  0.00    +0.255 C 
ATOM     12  O   UNL     1       7.167   0.743   6.237  0.00  0.00    -0.269 OA
ATOM     13  H   UNL     1       6.883  -1.724   4.628  0.00  0.00    +0.155 HD
ENDROOT
BRANCH   1  16
ATOM     14  C   UNL     1      -0.381   1.690   0.812  0.00  0.00    +0.041 A 
ATOM     15  C   UNL     1       0.983   1.997   0.601  0.00  0.00    +0.048 A 
ATOM     16  C   UNL     1       1.645   0.827   0.562  0.00  0.00    +0.149 A 
ATOM     17  O   UNL     1       0.759  -0.168   0.737  0.00  0.00    -0.464 OA
ATOM     18  C   UNL     1      -0.471   0.350   0.889  0.00  0.00    +0.195 A 
ENDBRANCH   1  16
BRANCH  11  19
ATOM     19  C   UNL     1       9.107  -0.375   5.587  0.00  0.00    +0.074 A 
ATOM     20  C   UNL     1      10.061   0.185   6.424  0.00  0.00    +0.021 A 
ATOM     21  C   UNL     1      11.342  -0.286   6.268  0.00  0.00    +0.008 A 
ATOM     22  C   UNL     1      11.585  -1.240   5.335  0.00  0.00    +0.046 A 
ATOM     23  S   UNL     1      10.082  -1.533   4.644  0.00  0.00    -0.092 S 
ENDBRANCH  11  19
TORSDOF 2
