REMARK  Name = ZINC45204829
REMARK  3 active torsions:
REMARK  status: ('A' for Active; 'I' for Inactive)
REMARK    1  A    between atoms: C_1  and  C_2
REMARK    2  A    between atoms: C_7  and  N_10
REMARK    3  A    between atoms: C_11  and  C_13
REMARK                            x       y       z     vdW  Elec       q    Type
REMARK                         _______ _______ _______ _____ _____    ______ ____
ROOT
ATOM      1  N   UNL     1       1.448  -2.513   0.028  0.00  0.00    -0.309 N 
ATOM      2  C   UNL     1       2.034  -3.727   0.018  0.00  0.00    +0.257 C 
ATOM      3  O   UNL     1       1.992  -4.429   1.006  0.00  0.00    -0.272 OA
ATOM      4  H   UNL     1       1.482  -1.952  -0.763  0.00  0.00    +0.149 HD
ENDROOT
BRANCH   2   5
ATOM      5  C   UNL     1       2.739  -4.213  -1.222  0.00  0.00    +0.296 C 
ATOM      6  C   UNL     1       1.721  -4.407  -2.354  0.00  0.00    +0.283 C 
ATOM      7  O   UNL     1       2.421  -4.881  -3.510  0.00  0.00    -0.484 OA
ATOM      8  C   UNL     1       3.311  -5.893  -3.314  0.00  0.00    +0.162 A 
ATOM      9  C   UNL     1       3.746  -6.637  -4.400  0.00  0.00    +0.049 A 
ATOM     10  C   UNL     1       4.652  -7.664  -4.218  0.00  0.00    +0.004 A 
ATOM     11  C   UNL     1       5.126  -7.954  -2.952  0.00  0.00    +0.004 A 
ATOM     12  C   UNL     1       4.695  -7.218  -1.865  0.00  0.00    +0.049 A 
ATOM     13  C   UNL     1       3.785  -6.186  -2.041  0.00  0.00    +0.163 A 
ATOM     14  O   UNL     1       3.364  -5.474  -0.959  0.00  0.00    -0.473 OA
ENDBRANCH   2   5
BRANCH   1  20
ATOM     15  C   UNL     1      -0.019   1.526   0.010  0.00  0.00    +0.007 C 
ATOM     16  C   UNL     1       0.002  -0.004   0.002  0.00  0.00    -0.012 C 
ATOM     17  C   UNL     1      -1.433  -0.534   0.013  0.00  0.00    +0.003 C 
ATOM     18  C   UNL     1      -1.413  -2.063   0.004  0.00  0.00    +0.002 C 
ATOM     19  C   UNL     1      -0.673  -2.570   1.244  0.00  0.00    +0.022 C 
ATOM     20  C   UNL     1       0.763  -2.041   1.233  0.00  0.00    +0.073 C 
ATOM     21  C   UNL     1       0.742  -0.511   1.242  0.00  0.00    +0.025 C 
ENDBRANCH   1  20
TORSDOF 2
