REMARK  Name = ZINC21540568
REMARK  5 active torsions:
REMARK  status: ('A' for Active; 'I' for Inactive)
REMARK    1  A    between atoms: C_1  and  C_2
REMARK    2  A    between atoms: C_5  and  N_8
REMARK    3  A    between atoms: N_8  and  C_9
REMARK    4  A    between atoms: N_8  and  S_10
REMARK    5  A    between atoms: S_10  and  C_13
REMARK                            x       y       z     vdW  Elec       q    Type
REMARK                         _______ _______ _______ _____ _____    ______ ____
ROOT
ATOM      1  C   UNL     1       4.705   4.216   0.784  0.00  0.00    +0.111 A 
ATOM      2  C   UNL     1       3.942   3.394   1.594  0.00  0.00    +0.031 A 
ATOM      3  C   UNL     1       2.647   3.748   1.906  0.00  0.00    +0.027 A 
ATOM      4  C   UNL     1       2.091   4.931   1.411  0.00  0.00    +0.055 A 
ATOM      5  C   UNL     1       2.855   5.753   0.599  0.00  0.00    +0.057 A 
ATOM      6  C   UNL     1       4.167   5.385   0.291  0.00  0.00    +0.054 A 
ATOM      7  N   UNL     1       2.394   6.949   0.056  0.00  0.00    -0.284 N 
ATOM      8  C   UNL     1       1.652   7.853   0.691  0.00  0.00    +0.226 C 
ATOM      9  O   UNL     1       1.344   8.877   0.119  0.00  0.00    -0.275 OA
ATOM     10  C   UNL     1       1.187   7.627   2.106  0.00  0.00    +0.192 C 
ATOM     11  C   UNL     1       0.305   6.405   2.120  0.00  0.00    +0.226 C 
ATOM     12  O   UNL     1      -0.856   6.513   2.453  0.00  0.00    -0.275 OA
ATOM     13  N   UNL     1       0.778   5.209   1.776  0.00  0.00    -0.284 N 
ATOM     14  H   UNL     1       2.639   7.211  -0.983  0.00  0.00    +0.155 HD
ATOM     15  H   UNL     1       0.030   4.402   1.798  0.00  0.00    +0.155 HD
ENDROOT
BRANCH   1  16
ATOM     16  S   UNL     1       6.361   3.768   0.384  0.00  0.00    +0.075 S 
ATOM     17  O   UNL     1       7.004   4.952  -0.068  0.00  0.00    -0.150 OA
ATOM     18  O   UNL     1       6.851   3.005   1.478  0.00  0.00    -0.150 OA
BRANCH  16  19
ATOM     19  N   UNL     1       6.291   2.743  -0.915  0.00  0.00    -0.206 N 
ATOM     20  C   UNL     1       6.065   1.311  -0.706  0.00  0.00    +0.157 C 
BRANCH  19  25
ATOM     21  C   UNL     1       6.927   4.775  -6.170  0.00  0.00    +0.044 C 
ATOM     22  C   UNL     1       6.758   4.235  -4.774  0.00  0.00    -0.050 A 
ATOM     23  C   UNL     1       7.686   3.347  -4.261  0.00  0.00    +0.005 A 
ATOM     24  C   UNL     1       7.534   2.850  -2.981  0.00  0.00    +0.025 A 
ATOM     25  C   UNL     1       6.448   3.244  -2.209  0.00  0.00    +0.051 A 
ATOM     26  C   UNL     1       5.515   4.131  -2.730  0.00  0.00    +0.025 A 
ATOM     27  C   UNL     1       5.676   4.628  -4.008  0.00  0.00    +0.005 A 
ENDBRANCH  19  25
ENDBRANCH  16  19
ENDBRANCH   1  16
TORSDOF 3
