REMARK  Name = ZINC20604235
REMARK  4 active torsions:
REMARK  status: ('A' for Active; 'I' for Inactive)
REMARK    1  A    between atoms: C_8  and  C_12
REMARK    2  A    between atoms: N_14  and  C_15
REMARK    3  A    between atoms: N_21  and  S_25
REMARK    4  A    between atoms: S_25  and  C_28
REMARK                            x       y       z     vdW  Elec       q    Type
REMARK                         _______ _______ _______ _____ _____    ______ ____
ROOT
ATOM      1  C   UNL     1       5.954   6.044   0.825  0.00  0.00    +0.035 A 
ATOM      2  C   UNL     1       7.096   5.253   0.807  0.00  0.00    +0.024 A 
ATOM      3  C   UNL     1       8.336   5.833   0.633  0.00  0.00    +0.007 A 
ATOM      4  C   UNL     1       8.454   7.206   0.487  0.00  0.00    -0.025 A 
ATOM      5  C   UNL     1       7.316   7.999   0.507  0.00  0.00    +0.056 A 
ATOM      6  C   UNL     1       6.066   7.418   0.677  0.00  0.00    +0.048 A 
ATOM      7  N   UNL     1       7.406   9.387   0.353  0.00  0.00    -0.202 N 
ATOM      8  C   UNL     1       8.722  10.031   0.471  0.00  0.00    +0.132 C 
ATOM      9  C   UNL     1       9.728   9.190  -0.325  0.00  0.00    +0.025 C 
ATOM     10  C   UNL     1       9.826   7.804   0.311  0.00  0.00    +0.038 C 
ENDROOT
BRANCH   1  13
ATOM     11  C   UNL     1       4.453   4.228   0.500  0.00  0.00    +0.255 C 
ATOM     12  O   UNL     1       5.292   3.670  -0.181  0.00  0.00    -0.270 OA
ATOM     13  N   UNL     1       4.696   5.457   0.997  0.00  0.00    -0.281 N 
ATOM     14  H   UNL     1       3.906   5.998   1.538  0.00  0.00    +0.155 HD
BRANCH  11  22
ATOM     15  C   UNL     1      -1.183   3.448   2.814  0.00  0.00    +0.001 A 
ATOM     16  C   UNL     1      -1.398   2.185   2.280  0.00  0.00    +0.004 A 
ATOM     17  C   UNL     1      -0.429   1.571   1.515  0.00  0.00    +0.047 A 
ATOM     18  C   UNL     1       0.774   2.223   1.264  0.00  0.00    +0.139 A 
ATOM     19  C   UNL     1       0.987   3.505   1.802  0.00  0.00    +0.018 A 
ATOM     20  C   UNL     1      -0.011   4.108   2.582  0.00  0.00    +0.011 A 
ATOM     21  C   UNL     1       2.208   4.184   1.556  0.00  0.00    +0.031 A 
ATOM     22  C   UNL     1       3.171   3.560   0.782  0.00  0.00    +0.122 A 
ATOM     23  C   UNL     1       2.892   2.223   0.248  0.00  0.00    +0.350 A 
ATOM     24  O   UNL     1       3.725   1.656  -0.435  0.00  0.00    -0.244 OA
ATOM     25  O   UNL     1       1.720   1.622   0.510  0.00  0.00    -0.422 OA
ENDBRANCH  11  22
ENDBRANCH   1  13
BRANCH   7  26
ATOM     26  S   UNL     1       6.053  10.289   0.042  0.00  0.00    +0.081 S 
ATOM     27  O   UNL     1       6.504  11.548  -0.437  0.00  0.00    -0.149 OA
ATOM     28  O   UNL     1       5.175   9.459  -0.706  0.00  0.00    -0.149 OA
BRANCH  26  29
ATOM     29  C   UNL     1       5.263  10.592   1.588  0.00  0.00    +0.146 A 
ATOM     30  C   UNL     1       5.442  11.622   2.450  0.00  0.00    +0.036 A 
ATOM     31  C   UNL     1       4.703  11.655   3.618  0.00  0.00    +0.010 A 
ATOM     32  C   UNL     1       3.821  10.656   3.866  0.00  0.00    +0.047 A 
ATOM     33  S   UNL     1       4.013   9.627   2.420  0.00  0.00    -0.077 S 
ENDBRANCH  26  29
ENDBRANCH   7  26
TORSDOF 4
