REMARK  Name = ZINC08147940
REMARK  11 active torsions:
REMARK  status: ('A' for Active; 'I' for Inactive)
REMARK    1  A    between atoms: C_1  and  C_2
REMARK    2  A    between atoms: C_2  and  C_3
REMARK    3  A    between atoms: C_2  and  C_4
REMARK    4  A    between atoms: C_2  and  N_5
REMARK    5  A    between atoms: C_6  and  C_8
REMARK    6  A    between atoms: C_8  and  N_49
REMARK    7  A    between atoms: C_9  and  N_49
REMARK    8  A    between atoms: C_10  and  N_11
REMARK    9  A    between atoms: C_10  and  N_49
REMARK   10  A    between atoms: N_14  and  C_24
REMARK   11  A    between atoms: C_15  and  C_17
REMARK                            x       y       z     vdW  Elec       q    Type
REMARK                         _______ _______ _______ _____ _____    ______ ____
ROOT
ATOM      1  N   UNL     1      -1.401  -0.368   0.335  0.00  0.00    -0.257 N 
ATOM      2  C   UNL     1      -2.314  -0.562  -0.639  0.00  0.00    +0.176 A 
ATOM      3  S   UNL     1      -2.183  -0.043  -2.265  0.00  0.00    -0.011 S 
ATOM      4  N   UNL     1      -3.348  -1.238  -0.100  0.00  0.00    -0.306 N 
ATOM      5  C   UNL     1      -3.069  -1.466   1.233  0.00  0.00    +0.163 A 
ATOM      6  N   UNL     1      -1.901  -0.954   1.505  0.00  0.00    -0.152 NA
ATOM      7  C   UNL     1      -4.560  -1.658  -0.807  0.00  0.00    +0.153 C 
ENDROOT
BRANCH   5   8
ATOM      8  C   UNL     1      -3.945  -2.178   2.190  0.00  0.00    +0.019 A 
ATOM      9  C   UNL     1      -3.772  -2.001   3.563  0.00  0.00    +0.013 A 
ATOM     10  C   UNL     1      -4.595  -2.663   4.450  0.00  0.00    +0.021 A 
ATOM     11  C   UNL     1      -5.585  -3.510   3.980  0.00  0.00    +0.041 A 
ATOM     12  C   UNL     1      -5.757  -3.694   2.619  0.00  0.00    +0.021 A 
ATOM     13  C   UNL     1      -4.944  -3.033   1.722  0.00  0.00    +0.013 A 
ATOM     14 CL   UNL     1      -6.612  -4.346   5.103  0.00  0.00    -0.084 Cl
ENDBRANCH   5   8
BRANCH   1  15
ATOM     15  C   UNL     1      -0.117   0.324   0.194  0.00  0.00    +0.072 C 
BRANCH  15  17
ATOM     16  C   UNL     1      -1.150   2.389  -0.534  0.00  0.00    -0.093 C 
ATOM     17  N   UNL     1      -0.310   1.756   0.504  0.00  0.00    +0.397 N 
ATOM     18  H   UNL     1      -0.783   1.839   1.412  0.00  0.00    -0.079 HD
BRANCH  17  19
ATOM     19  C   UNL     1       0.999   2.438   0.580  0.00  0.00    +0.021 C 
BRANCH  19  21
ATOM     20  N   UNL     1       1.847   4.651   1.288  0.00  0.00    -0.312 N 
ATOM     21  C   UNL     1       0.791   3.833   1.111  0.00  0.00    +0.197 C 
ATOM     22  O   UNL     1      -0.327   4.219   1.379  0.00  0.00    -0.278 OA
ATOM     23  H   UNL     1       2.741   4.342   1.074  0.00  0.00    +0.149 HD
BRANCH  20  25
ATOM     24  C   UNL     1       0.997   5.934   3.188  0.00  0.00    +0.031 C 
ATOM     25  C   UNL     1       1.644   6.007   1.804  0.00  0.00    +0.026 C 
ATOM     26  C   UNL     1       2.994   6.719   1.909  0.00  0.00    +0.031 C 
ATOM     27  C   UNL     1       0.731   6.783   0.854  0.00  0.00    +0.031 C 
ENDBRANCH  20  25
ENDBRANCH  19  21
ENDBRANCH  17  19
ENDBRANCH  15  17
ENDBRANCH   1  15
TORSDOF 6
