REMARK  Name = ZINC48439691
REMARK  3 active torsions:
REMARK  status: ('A' for Active; 'I' for Inactive)
REMARK    1  A    between atoms: C_6  and  C_7
REMARK    2  A    between atoms: C_7  and  C_9
REMARK    3  A    between atoms: C_9  and  N_10
REMARK                            x       y       z     vdW  Elec       q    Type
REMARK                         _______ _______ _______ _____ _____    ______ ____
ROOT
ATOM      1  C   UNL     1      -1.235  -2.267   0.002  0.00  0.00    +0.223 C 
ENDROOT
BRANCH   1   2
ATOM      2  N   UNL     1      -2.608  -2.778   0.013  0.00  0.00    -0.261 N 
ATOM      3  C   UNL     1      -3.141  -3.641  -0.878  0.00  0.00    +0.126 A 
ATOM      4  C   UNL     1      -4.428  -3.862  -0.518  0.00  0.00    +0.086 A 
ATOM      5  C   UNL     1      -4.689  -3.108   0.631  0.00  0.00    +0.249 A 
ATOM      6  N   UNL     1      -3.598  -2.462   0.953  0.00  0.00    -0.145 NA
ATOM      7  N   UNL     1      -5.976  -3.054   1.359  0.00  0.00    +0.078 N 
ATOM      8  O   UNL     1      -6.920  -3.701   0.968  0.00  0.00    -0.125 OA
ATOM      9  O   UNL     1      -6.084  -2.363   2.345  0.00  0.00    -0.125 OA
ATOM     10 BR   UNL     1      -5.655  -4.989  -1.412  0.00  0.00    -0.045 Br
ENDBRANCH   1   2
BRANCH   1  11
ATOM     11  C   UNL     1      -1.260  -0.760   0.011  0.00  0.00    +0.184 C 
ATOM     12  O   UNL     1      -2.320  -0.171   0.024  0.00  0.00    -0.290 OA
BRANCH  11  18
ATOM     13  C   UNL     1      -0.017   1.395   0.010  0.00  0.00    +0.012 A 
ATOM     14  C   UNL     1       1.169   2.097   0.002  0.00  0.00    +0.016 A 
ATOM     15  C   UNL     1       2.378   1.420  -0.013  0.00  0.00    +0.018 A 
ATOM     16  C   UNL     1       2.405   0.035  -0.021  0.00  0.00    +0.016 A 
ATOM     17  C   UNL     1       1.227  -0.680  -0.014  0.00  0.00    +0.012 A 
ATOM     18  C   UNL     1       0.002  -0.004   0.002  0.00  0.00    +0.019 A 
ATOM     19 BR   UNL     1       4.000   2.393  -0.025  0.00  0.00    -0.050 Br
ENDBRANCH  11  18
ENDBRANCH   1  11
TORSDOF 3
