REMARK  Name = ZINC05576624
REMARK  4 active torsions:
REMARK  status: ('A' for Active; 'I' for Inactive)
REMARK    1  A    between atoms: C_1  and  C_2
REMARK    2  A    between atoms: C_2  and  N_3
REMARK    3  A    between atoms: C_4  and  O_19
REMARK    4  A    between atoms: C_5  and  C_9
REMARK                            x       y       z     vdW  Elec       q    Type
REMARK                         _______ _______ _______ _____ _____    ______ ____
ROOT
ATOM      1  N   UNL     1      -0.045   1.115   2.475  0.00  0.00    -0.273 N 
ATOM      2  C   UNL     1       0.947   1.845   3.009  0.00  0.00    +0.210 A 
ATOM      3  C   UNL     1       1.590   1.324   4.133  0.00  0.00    +0.077 A 
ATOM      4  S   UNL     1       0.712  -0.214   4.358  0.00  0.00    -0.023 S 
ATOM      5  C   UNL     1      -0.389  -0.068   3.026  0.00  0.00    +0.294 A 
ATOM      6  O   UNL     1      -1.258  -0.844   2.673  0.00  0.00    -0.259 OA
ENDROOT
BRANCH   3   7
ATOM      7  C   UNL     1       2.638   1.860   4.879  0.00  0.00    +0.030 C 
ATOM      8  C   UNL     1       3.063   1.220   6.047  0.00  0.00    +0.003 C 
ATOM      9  C   UNL     1       2.623  -0.020   6.557  0.00  0.00    +0.120 C 
ATOM     10  N   UNL     1       3.257  -0.286   7.671  0.00  0.00    -0.254 NA
ATOM     11  C   UNL     1       4.129   0.691   8.008  0.00  0.00    +0.072 A 
ATOM     12  C   UNL     1       4.065   1.696   7.016  0.00  0.00    +0.009 A 
ATOM     13  C   UNL     1       4.865   2.829   7.115  0.00  0.00    +0.010 A 
ATOM     14  C   UNL     1       5.722   2.968   8.185  0.00  0.00    +0.001 A 
ATOM     15  C   UNL     1       5.790   1.985   9.164  0.00  0.00    +0.002 A 
ATOM     16  C   UNL     1       5.008   0.856   9.085  0.00  0.00    +0.028 A 
ENDBRANCH   3   7
BRANCH   1  18
ATOM     17  C   UNL     1      -0.058   1.109   0.029  0.00  0.00    +0.027 C 
ATOM     18  C   UNL     1      -0.760   1.606   1.294  0.00  0.00    +0.125 C 
ENDBRANCH   1  18
BRANCH   2  19
ATOM     19  O   UNL     1       1.308   3.033   2.481  0.00  0.00    -0.493 OA
ATOM     20  H   UNL     1       2.034   3.468   2.949  0.00  0.00    +0.294 HD
ENDBRANCH   2  19
TORSDOF 3
