REMARK  Name = ZINC64960843
REMARK  3 active torsions:
REMARK  status: ('A' for Active; 'I' for Inactive)
REMARK    1  A    between atoms: C_1  and  C_2
REMARK    2  A    between atoms: C_5  and  C_8
REMARK    3  A    between atoms: C_11  and  C_15
REMARK                            x       y       z     vdW  Elec       q    Type
REMARK                         _______ _______ _______ _____ _____    ______ ____
ROOT
ATOM      1  C   UNL     1       0.082  -4.486  -0.372  0.00  0.00    +0.180 C 
ATOM      2  N   UNL     1      -0.480  -4.878   0.942  0.00  0.00    -0.265 NA
ATOM      3  C   UNL     1      -1.406  -5.998   0.679  0.00  0.00    +0.247 C 
ATOM      4  O   UNL     1      -1.369  -6.258  -0.737  0.00  0.00    -0.274 OA
ATOM      5  N   UNL     1      -0.923  -4.985  -1.349  0.00  0.00    -0.177 NA
ATOM      6  H   UNL     1       0.251  -5.155   1.579  0.00  0.00    +0.127 HD
ATOM      7  H   UNL     1      -0.501  -5.144  -2.252  0.00  0.00    +0.156 HD
ENDROOT
BRANCH   3   8
ATOM      8  C   UNL     1      -0.962  -7.220   1.440  0.00  0.00    +0.061 A 
ATOM      9  H   UNL     1       0.543 -10.034   0.915  0.00  0.00    +0.165 HD
ATOM     10  C   UNL     1      -0.329  -8.222   0.795  0.00  0.00    +0.094 A 
ATOM     11  N   UNL     1       0.093  -9.344   1.427  0.00  0.00    -0.360 N 
ATOM     12  C   UNL     1      -0.102  -9.528   2.777  0.00  0.00    +0.050 A 
ATOM     13  C   UNL     1       0.335 -10.685   3.417  0.00  0.00    +0.026 A 
ATOM     14  C   UNL     1       0.123 -10.838   4.770  0.00  0.00    +0.002 A 
ATOM     15  C   UNL     1      -0.521  -9.851   5.503  0.00  0.00    +0.001 A 
ATOM     16  C   UNL     1      -0.959  -8.708   4.894  0.00  0.00    +0.014 A 
ATOM     17  C   UNL     1      -0.754  -8.532   3.525  0.00  0.00    +0.045 A 
ATOM     18  C   UNL     1      -1.204  -7.314   2.830  0.00  0.00    +0.196 A 
ATOM     19  O   UNL     1      -1.770  -6.417   3.433  0.00  0.00    -0.287 OA
ENDBRANCH   3   8
BRANCH   1  24
ATOM     20  C   UNL     1       0.585   1.260  -0.733  0.00  0.00    +0.044 C 
ATOM     21  C   UNL     1       0.454  -0.238  -0.639  0.00  0.00    -0.050 A 
ATOM     22  C   UNL     1       0.184  -0.981  -1.773  0.00  0.00    +0.004 A 
ATOM     23  C   UNL     1       0.064  -2.356  -1.687  0.00  0.00    +0.007 A 
ATOM     24  C   UNL     1       0.214  -2.987  -0.466  0.00  0.00    -0.014 A 
ATOM     25  C   UNL     1       0.485  -2.245   0.668  0.00  0.00    +0.007 A 
ATOM     26  C   UNL     1       0.610  -0.871   0.581  0.00  0.00    +0.004 A 
ENDBRANCH   1  24
TORSDOF 2
