REMARK  Name = ZINC66334768
REMARK  10 active torsions:
REMARK  status: ('A' for Active; 'I' for Inactive)
REMARK    1  A    between atoms: C_1  and  C_2
REMARK    2  A    between atoms: C_6  and  O_8
REMARK    3  A    between atoms: O_8  and  C_9
REMARK    4  A    between atoms: C_9  and  C_10
REMARK    5  A    between atoms: C_10  and  C_12
REMARK    6  A    between atoms: C_10  and  O_31
REMARK    7  A    between atoms: C_12  and  N_13
REMARK    8  A    between atoms: N_16  and  C_17
REMARK    9  A    between atoms: C_17  and  C_19
REMARK   10  A    between atoms: C_17  and  C_20
REMARK                            x       y       z     vdW  Elec       q    Type
REMARK                         _______ _______ _______ _____ _____    ______ ____
ROOT
ATOM      1  N   UNL     1      -0.130  -6.881   4.945  0.00  0.00    -0.297 N 
ATOM      2  C   UNL     1      -0.234  -8.214   5.114  0.00  0.00    +0.300 C 
ATOM      3  O   UNL     1      -0.240  -8.951   4.147  0.00  0.00    -0.253 OA
ATOM      4  N   UNL     1      -0.332  -8.730   6.355  0.00  0.00    -0.293 N 
ATOM      5  H   UNL     1      -0.125  -6.293   5.716  0.00  0.00    +0.150 HD
ATOM      6  H   UNL     1      -0.327  -8.142   7.127  0.00  0.00    +0.151 HD
ENDROOT
BRANCH   4   7
ATOM      7  C   UNL     1      -0.446 -10.179   6.539  0.00  0.00    +0.102 C 
ATOM      8  C   UNL     1       0.951 -10.803   6.549  0.00  0.00    +0.033 C 
BRANCH   7   9
ATOM      9  C   UNL     1      -1.133 -10.466   7.849  0.00  0.00    -0.025 A 
ATOM     10  C   UNL     1      -0.842  -9.701   8.963  0.00  0.00    +0.009 A 
ATOM     11  C   UNL     1      -1.469  -9.958  10.169  0.00  0.00    +0.048 A 
ATOM     12  C   UNL     1      -2.393 -10.985  10.261  0.00  0.00    +0.142 A 
ATOM     13  C   UNL     1      -2.686 -11.757   9.138  0.00  0.00    +0.076 A 
ATOM     14  C   UNL     1      -2.058 -11.491   7.932  0.00  0.00    +0.032 A 
ATOM     15  N   UNL     1      -3.621 -12.796   9.245  0.00  0.00    -0.280 N 
ATOM     16  C   UNL     1      -4.440 -12.831  10.319  0.00  0.00    +0.255 C 
ATOM     17  O   UNL     1      -5.235 -13.737  10.449  0.00  0.00    -0.272 OA
ATOM     18  C   UNL     1      -4.361 -11.739  11.355  0.00  0.00    +0.325 C 
ATOM     19  O   UNL     1      -3.020 -11.250  11.438  0.00  0.00    -0.481 OA
ATOM     20  H   UNL     1      -3.679 -13.479   8.559  0.00  0.00    +0.155 HD
ENDBRANCH   7   9
ENDBRANCH   4   7
BRANCH   1  21
ATOM     21  C   UNL     1      -0.023  -6.320   3.595  0.00  0.00    +0.140 C 
BRANCH  21  22
ATOM     22  C   UNL     1       0.083  -4.796   3.683  0.00  0.00    +0.169 C 
BRANCH  22  23
ATOM     23  O   UNL     1       1.302  -4.441   4.338  0.00  0.00    -0.387 OA
ATOM     24  H   UNL     1       2.097  -4.756   3.887  0.00  0.00    +0.210 HD
ENDBRANCH  22  23
BRANCH  22  25
ATOM     25  C   UNL     1       0.069  -4.202   2.274  0.00  0.00    +0.261 C 
BRANCH  25  26
ATOM     26  O   UNL     1       0.050  -2.776   2.358  0.00  0.00    -0.489 OA
BRANCH  26  32
ATOM     27  C   UNL     1      -0.018   1.503   0.010  0.00  0.00    +0.044 C 
ATOM     28  C   UNL     1       0.002  -0.004   0.002  0.00  0.00    -0.047 A 
ATOM     29  C   UNL     1       0.006  -0.688  -1.200  0.00  0.00    +0.003 A 
ATOM     30  C   UNL     1       0.024  -2.071  -1.211  0.00  0.00    +0.004 A 
ATOM     31  C   UNL     1       0.039  -2.772  -0.020  0.00  0.00    +0.045 A 
ATOM     32  C   UNL     1       0.035  -2.088   1.186  0.00  0.00    +0.121 A 
ATOM     33  C   UNL     1       0.023  -0.700   1.195  0.00  0.00    +0.049 A 
ENDBRANCH  26  32
ENDBRANCH  25  26
ENDBRANCH  22  25
ENDBRANCH  21  22
ENDBRANCH   1  21
TORSDOF 8
