REMARK  Name = ZINC03378202
REMARK  6 active torsions:
REMARK  status: ('A' for Active; 'I' for Inactive)
REMARK    1  A    between atoms: C_4  and  C_7
REMARK    2  A    between atoms: C_7  and  C_8
REMARK    3  A    between atoms: N_12  and  C_16
REMARK    4  A    between atoms: C_16  and  C_17
REMARK    5  A    between atoms: N_19  and  C_20
REMARK    6  A    between atoms: C_21  and  C_28
REMARK                            x       y       z     vdW  Elec       q    Type
REMARK                         _______ _______ _______ _____ _____    ______ ____
ROOT
ATOM      1  C   UNL     1       8.602  -0.942   1.058  0.00  0.00    +0.236 C 
ATOM      2  O   UNL     1       8.082  -0.379   0.119  0.00  0.00    -0.274 OA
ATOM      3  N   UNL     1       9.926  -1.194   1.045  0.00  0.00    -0.278 N 
ATOM      4  H   UNL     1      10.341  -1.645   1.797  0.00  0.00    +0.155 HD
ENDROOT
BRANCH   3   5
ATOM      5  C   UNL     1      10.694  -0.808  -0.043  0.00  0.00    +0.084 A 
ATOM      6  C   UNL     1      12.052  -0.987  -0.231  0.00  0.00    +0.068 A 
ATOM      7  C   UNL     1      12.628  -0.485  -1.477  0.00  0.00    -0.023 A 
ATOM      8  C   UNL     1      11.736   0.100  -2.297  0.00  0.00    -0.004 A 
ATOM      9  S   UNL     1      10.188  -0.025  -1.437  0.00  0.00    -0.077 S 
ATOM     10  C   UNL     1      12.380   0.602  -3.561  0.00  0.00    +0.043 C 
ATOM     11  C   UNL     1      13.892   0.633  -3.242  0.00  0.00    +0.010 C 
ATOM     12  C   UNL     1      14.004  -0.438  -2.138  0.00  0.00    +0.037 C 
BRANCH   6  13
ATOM     13  C   UNL     1      12.881  -1.652   0.779  0.00  0.00    +0.244 C 
ATOM     14  O   UNL     1      13.040  -2.858   0.738  0.00  0.00    -0.270 OA
ATOM     15  N   UNL     1      13.468  -0.928   1.753  0.00  0.00    -0.325 N 
ATOM     16  H   UNL     1      13.341   0.033   1.786  0.00  0.00    +0.145 HD
ATOM     17  H   UNL     1      14.016  -1.368   2.421  0.00  0.00    +0.145 HD
ENDBRANCH   6  13
ENDBRANCH   3   5
BRANCH   1  18
ATOM     18  C   UNL     1       7.767  -1.361   2.241  0.00  0.00    +0.214 C 
BRANCH  18  22
ATOM     19  C   UNL     1       4.171  -0.963   1.399  0.00  0.00    +0.165 C 
ATOM     20  C   UNL     1       5.458  -1.764   1.412  0.00  0.00    +0.244 C 
ATOM     21  O   UNL     1       5.630  -2.881   0.972  0.00  0.00    -0.273 OA
ATOM     22  N   UNL     1       6.371  -0.977   2.014  0.00  0.00    -0.216 N 
ATOM     23  C   UNL     1       5.846   0.198   2.379  0.00  0.00    +0.310 C 
ATOM     24  O   UNL     1       6.475   1.074   2.940  0.00  0.00    -0.252 OA
ATOM     25  N   UNL     1       4.540   0.301   2.058  0.00  0.00    -0.287 N 
ATOM     26  H   UNL     1       3.958   1.059   2.226  0.00  0.00    +0.151 HD
BRANCH  19  27
ATOM     27  C   UNL     1       3.711  -0.707  -0.038  0.00  0.00    +0.067 C 
BRANCH  27  31
ATOM     28  C   UNL     1      -0.017   1.378   0.010  0.00  0.00    +0.000 A 
ATOM     29  C   UNL     1       1.171   2.086   0.002  0.00  0.00    +0.000 A 
ATOM     30  C   UNL     1       2.377   1.411  -0.013  0.00  0.00    +0.004 A 
ATOM     31  C   UNL     1       2.396   0.029  -0.020  0.00  0.00    -0.045 A 
ATOM     32  C   UNL     1       1.208  -0.679  -0.012  0.00  0.00    +0.004 A 
ATOM     33  C   UNL     1       0.002  -0.004   0.002  0.00  0.00    +0.000 A 
ENDBRANCH  27  31
ENDBRANCH  19  27
ENDBRANCH  18  22
ENDBRANCH   1  18
TORSDOF 6
