REMARK  Name = ZINC63493617
REMARK  5 active torsions:
REMARK  status: ('A' for Active; 'I' for Inactive)
REMARK    1  A    between atoms: C_6  and  C_11
REMARK    2  A    between atoms: C_11  and  C_12
REMARK    3  A    between atoms: C_12  and  N_13
REMARK    4  A    between atoms: C_14  and  C_16
REMARK    5  A    between atoms: N_21  and  C_23
REMARK                            x       y       z     vdW  Elec       q    Type
REMARK                         _______ _______ _______ _____ _____    ______ ____
ROOT
ATOM      1  N   UNL     1       5.001  -3.593  -1.505  0.00  0.00    -0.315 N 
ATOM      2  C   UNL     1       5.312  -4.187  -2.674  0.00  0.00    +0.217 C 
ATOM      3  O   UNL     1       5.183  -3.579  -3.716  0.00  0.00    -0.275 OA
ATOM      4  H   UNL     1       5.104  -4.079  -0.672  0.00  0.00    +0.149 HD
ENDROOT
BRANCH   2   5
ATOM      5  C   UNL     1       5.819  -5.606  -2.688  0.00  0.00    +0.089 C 
ATOM      6  C   UNL     1       4.764  -6.531  -2.074  0.00  0.00    +0.015 C 
ATOM      7  C   UNL     1       5.262  -7.978  -2.146  0.00  0.00    +0.016 C 
ATOM      8  C   UNL     1       5.551  -8.341  -3.604  0.00  0.00    +0.087 C 
ATOM      9  N   UNL     1       6.566  -7.427  -4.145  0.00  0.00    -0.275 NA
ATOM     10  C   UNL     1       6.093  -6.037  -4.130  0.00  0.00    +0.099 C 
BRANCH   9  11
ATOM     11  C   UNL     1       6.970  -7.831  -5.499  0.00  0.00    +0.229 C 
ATOM     12  C   UNL     1       7.499  -9.243  -5.433  0.00  0.00    +0.126 C 
ATOM     13  N   UNL     1       7.063 -10.405  -5.065  0.00  0.00    -0.233 NA
ATOM     14  C   UNL     1       8.032 -11.322  -5.247  0.00  0.00    +0.224 C 
ATOM     15  N   UNL     1       9.120 -10.782  -5.737  0.00  0.00    -0.215 NA
ATOM     16  C   UNL     1       8.897  -9.451  -5.899  0.00  0.00    +0.181 C 
ATOM     17  N   UNL     1       9.579  -8.426  -6.330  0.00  0.00    -0.215 NA
ATOM     18  C   UNL     1       9.098  -7.180  -6.383  0.00  0.00    +0.220 C 
ATOM     19  N   UNL     1       7.915  -6.823  -6.020  0.00  0.00    -0.247 NA
ENDBRANCH   9  11
ENDBRANCH   2   5
BRANCH   1  20
ATOM     20  C   UNL     1       4.508  -2.214  -1.492  0.00  0.00    +0.108 C 
BRANCH  20  21
ATOM     21  C   UNL     1       4.232  -1.784  -0.050  0.00  0.00    +0.052 C 
BRANCH  21  27
ATOM     22  C   UNL     1      -0.017   1.400   0.010  0.00  0.00    +0.040 A 
ATOM     23  C   UNL     1       1.109   2.144   0.003  0.00  0.00    +0.029 A 
ATOM     24  C   UNL     1       2.386   1.516  -0.013  0.00  0.00    +0.043 A 
ATOM     25  N   UNL     1       3.600   2.010  -0.023  0.00  0.00    -0.380 N 
ATOM     26  C   UNL     1       4.557   0.898  -0.038  0.00  0.00    +0.144 C 
ATOM     27  C   UNL     1       3.725  -0.365  -0.037  0.00  0.00    -0.040 C 
ATOM     28  C   UNL     1       2.434   0.037  -0.021  0.00  0.00    +0.002 A 
ATOM     29  C   UNL     1       1.164  -0.699  -0.013  0.00  0.00    +0.048 A 
ATOM     30  C   UNL     1       0.002  -0.004   0.002  0.00  0.00    +0.124 A 
ATOM     31  F   UNL     1      -1.169  -0.678   0.010  0.00  0.00    -0.205 F 
ATOM     32  H   UNL     1       3.828   2.953  -0.020  0.00  0.00    +0.160 HD
ENDBRANCH  21  27
ENDBRANCH  20  21
ENDBRANCH   1  20
TORSDOF 5
