REMARK  Name = ZINC40322514
REMARK  10 active torsions:
REMARK  status: ('A' for Active; 'I' for Inactive)
REMARK    1  A    between atoms: C_1  and  C_2
REMARK    2  A    between atoms: C_5  and  S_8
REMARK    3  A    between atoms: S_8  and  C_11
REMARK    4  A    between atoms: C_14  and  C_16
REMARK    5  A    between atoms: N_18  and  C_19
REMARK    6  A    between atoms: C_19  and  C_20
REMARK    7  A    between atoms: C_20  and  C_22
REMARK    8  A    between atoms: C_20  and  N_27
REMARK    9  A    between atoms: N_27  and  C_28
REMARK   10  A    between atoms: N_27  and  C_29
REMARK                            x       y       z     vdW  Elec       q    Type
REMARK                         _______ _______ _______ _____ _____    ______ ____
ROOT
ATOM      1  C   UNL     1       2.547  -4.471   0.231  0.00  0.00    +0.246 A 
ATOM      2  C   UNL     1       3.416  -4.711   1.237  0.00  0.00    +0.070 A 
ATOM      3  C   UNL     1       4.590  -5.217   0.658  0.00  0.00    +0.056 A 
ATOM      4  C   UNL     1       4.375  -5.262  -0.690  0.00  0.00    +0.192 A 
ATOM      5  O   UNL     1       3.126  -4.809  -0.928  0.00  0.00    -0.433 OA
ENDROOT
BRANCH   4   6
ATOM      6  C   UNL     1       5.331  -5.725  -1.701  0.00  0.00    +0.279 C 
ATOM      7  O   UNL     1       6.433  -6.116  -1.362  0.00  0.00    -0.267 OA
ATOM      8  N   UNL     1       4.990  -5.717  -3.005  0.00  0.00    -0.310 N 
ATOM      9  H   UNL     1       4.112  -5.405  -3.275  0.00  0.00    +0.149 HD
BRANCH   8  10
ATOM     10  C   UNL     1       5.946  -6.180  -4.014  0.00  0.00    +0.097 C 
BRANCH  10  11
ATOM     11  C   UNL     1       5.281  -6.162  -5.392  0.00  0.00    +0.016 C 
BRANCH  11  12
ATOM     12  C   UNL     1       4.150  -7.158  -5.416  0.00  0.00    +0.093 A 
ATOM     13  C   UNL     1       4.202  -8.395  -5.941  0.00  0.00    +0.043 A 
ATOM     14  C   UNL     1       2.928  -8.976  -5.747  0.00  0.00    +0.041 A 
ATOM     15  C   UNL     1       2.173  -8.059  -5.115  0.00  0.00    +0.195 A 
ATOM     16  O   UNL     1       2.920  -6.962  -4.912  0.00  0.00    -0.469 OA
ENDBRANCH  11  12
BRANCH  11  17
ATOM     17  N   UNL     1       4.756  -4.818  -5.665  0.00  0.00    +0.384 N 
ATOM     18  C   UNL     1       5.854  -3.843  -5.614  0.00  0.00    -0.096 C 
ATOM     19  C   UNL     1       4.142  -4.793  -6.999  0.00  0.00    -0.096 C 
ATOM     20  H   UNL     1       4.063  -4.580  -4.971  0.00  0.00    -0.082 HD
ENDBRANCH  11  17
ENDBRANCH  10  11
ENDBRANCH   8  10
ENDBRANCH   4   6
BRANCH   1  21
ATOM     21  S   UNL     1       0.917  -3.828   0.414  0.00  0.00    +0.058 S 
ATOM     22  O   UNL     1       0.507  -4.131   1.740  0.00  0.00    -0.161 OA
ATOM     23  O   UNL     1       0.182  -4.252  -0.726  0.00  0.00    -0.161 OA
BRANCH  21  28
ATOM     24  C   UNL     1       1.319   2.183   0.067  0.00  0.00    +0.044 C 
ATOM     25  C   UNL     1       1.219   0.681   0.154  0.00  0.00    -0.050 A 
ATOM     26  C   UNL     1       1.018  -0.065  -0.992  0.00  0.00    +0.005 A 
ATOM     27  C   UNL     1       0.926  -1.442  -0.913  0.00  0.00    +0.028 A 
ATOM     28  C   UNL     1       1.036  -2.073   0.313  0.00  0.00    +0.097 A 
ATOM     29  C   UNL     1       1.238  -1.326   1.458  0.00  0.00    +0.028 A 
ATOM     30  C   UNL     1       1.334   0.051   1.378  0.00  0.00    +0.005 A 
ENDBRANCH  21  28
ENDBRANCH   1  21
TORSDOF 7
