REMARK  Name = ZINC39997470
REMARK  5 active torsions:
REMARK  status: ('A' for Active; 'I' for Inactive)
REMARK    1  A    between atoms: C_1  and  C_2
REMARK    2  A    between atoms: N_11  and  S_12
REMARK    3  A    between atoms: S_12  and  C_15
REMARK    4  A    between atoms: C_16  and  C_22
REMARK    5  A    between atoms: C_19  and  C_21
REMARK                            x       y       z     vdW  Elec       q    Type
REMARK                         _______ _______ _______ _____ _____    ______ ____
ROOT
ATOM      1  C   UNL     1      -0.019   1.526   0.010  0.00  0.00    +0.030 C 
ATOM      2  C   UNL     1       0.002  -0.004   0.002  0.00  0.00    +0.099 C 
ATOM      3  C   UNL     1       0.778  -0.520  -1.221  0.00  0.00    +0.061 C 
ATOM      4  C   UNL     1       1.931  -1.304  -0.635  0.00  0.00    -0.023 A 
ATOM      5  C   UNL     1       2.960  -1.995  -1.246  0.00  0.00    +0.005 A 
ATOM      6  C   UNL     1       3.911  -2.644  -0.481  0.00  0.00    +0.000 A 
ATOM      7  C   UNL     1       3.831  -2.599   0.899  0.00  0.00    +0.002 A 
ATOM      8  C   UNL     1       2.807  -1.911   1.513  0.00  0.00    +0.025 A 
ATOM      9  C   UNL     1       1.842  -1.253   0.747  0.00  0.00    +0.055 A 
ATOM     10  N   UNL     1       0.735  -0.509   1.166  0.00  0.00    -0.200 N 
ENDROOT
BRANCH  10  11
ATOM     11  S   UNL     1       0.314  -0.237   2.744  0.00  0.00    +0.075 S 
ATOM     12  O   UNL     1       1.501  -0.380   3.512  0.00  0.00    -0.150 OA
ATOM     13  O   UNL     1      -0.463   0.953   2.758  0.00  0.00    -0.150 OA
BRANCH  11  14
ATOM     14  C   UNL     1      -0.761  -1.546   3.229  0.00  0.00    +0.134 C 
ATOM     15  C   UNL     1      -2.085  -1.505   3.391  0.00  0.00    +0.085 C 
ATOM     16  N   UNL     1      -2.560  -2.712   3.771  0.00  0.00    -0.157 NA
ATOM     17  N   UNL     1      -1.698  -3.587   3.890  0.00  0.00    -0.178 NA
ATOM     18  C   UNL     1      -0.397  -2.983   3.555  0.00  0.00    +0.176 C 
ATOM     19  C   UNL     1       0.550  -3.044   4.755  0.00  0.00    +0.041 C 
ATOM     20  C   UNL     1      -2.936  -0.280   3.178  0.00  0.00    +0.069 C 
ENDBRANCH  11  14
ENDBRANCH  10  11
TORSDOF 2
