REMARK  Name = ZINC54838599
REMARK  4 active torsions:
REMARK  status: ('A' for Active; 'I' for Inactive)
REMARK    1  A    between atoms: C_1  and  C_2
REMARK    2  A    between atoms: N_8  and  C_9
REMARK    3  A    between atoms: C_10  and  N_12
REMARK    4  A    between atoms: C_16  and  C_18
REMARK                            x       y       z     vdW  Elec       q    Type
REMARK                         _______ _______ _______ _____ _____    ______ ____
ROOT
ATOM      1  C   UNL     1      -0.123   1.604   0.113  0.00  0.00    +0.088 C 
ATOM      2  C   UNL     1      -0.080   0.098   0.062  0.00  0.00    +0.130 A 
ATOM      3  N   UNL     1      -0.077  -0.494  -1.112  0.00  0.00    -0.213 NA
ATOM      4  C   UNL     1      -0.039  -1.822  -1.204  0.00  0.00    +0.163 A 
ATOM      5  C   UNL     1      -0.001  -2.583  -0.019  0.00  0.00    +0.078 A 
ATOM      6  C   UNL     1       0.035  -3.942  -0.403  0.00  0.00    +0.148 A 
ATOM      7  N   UNL     1       0.020  -4.004  -1.703  0.00  0.00    -0.177 NA
ATOM      8  N   UNL     1      -0.026  -2.710  -2.238  0.00  0.00    -0.249 N 
ATOM      9  C   UNL     1      -0.055  -2.370  -3.662  0.00  0.00    +0.174 C 
ATOM     10  C   UNL     1      -0.005  -1.902   1.213  0.00  0.00    +0.136 A 
ATOM     11  N   UNL     1      -0.040  -0.574   1.199  0.00  0.00    -0.217 NA
ENDROOT
BRANCH  10  12
ATOM     12  N   UNL     1       0.031  -2.596   2.406  0.00  0.00    -0.311 N 
ATOM     13  C   UNL     1      -0.040  -4.062   2.549  0.00  0.00    +0.107 C 
ATOM     14  C   UNL     1      -0.577  -4.295   3.983  0.00  0.00    +0.021 C 
ATOM     15  C   UNL     1       0.121  -3.151   4.767  0.00  0.00    +0.024 C 
ATOM     16  C   UNL     1       0.153  -1.997   3.743  0.00  0.00    +0.078 C 
BRANCH  16  17
ATOM     17  C   UNL     1       1.475  -1.236   3.853  0.00  0.00    +0.009 C 
ATOM     18  C   UNL     1       2.659  -2.196   3.617  0.00  0.00    +0.005 C 
ATOM     19  C   UNL     1       3.748  -1.708   4.605  0.00  0.00    +0.000 C 
ATOM     20  C   UNL     1       2.922  -1.312   5.854  0.00  0.00    +0.000 C 
ATOM     21  C   UNL     1       1.642  -0.674   5.276  0.00  0.00    +0.005 C 
ENDBRANCH  16  17
ENDBRANCH  10  12
TORSDOF 2
