REMARK  Name = ZINC04971507
REMARK  4 active torsions:
REMARK  status: ('A' for Active; 'I' for Inactive)
REMARK    1  A    between atoms: C_6  and  S_7
REMARK    2  A    between atoms: S_7  and  N_10
REMARK    3  A    between atoms: C_13  and  N_63
REMARK    4  A    between atoms: C_24  and  C_26
REMARK                            x       y       z     vdW  Elec       q    Type
REMARK                         _______ _______ _______ _____ _____    ______ ____
ROOT
ATOM      1  S   UNL     1       1.229  -2.444  -0.023  0.00  0.00    +0.061 S 
ATOM      2  O   UNL     1       2.484  -2.838   0.513  0.00  0.00    -0.153 OA
ATOM      3  O   UNL     1      -0.006  -2.869   0.537  0.00  0.00    -0.153 OA
ENDROOT
BRANCH   1   9
ATOM      4  C   UNL     1       2.394   0.026  -0.021  0.00  0.00    +0.030 A 
ATOM      5  C   UNL     1       2.381   1.405  -0.013  0.00  0.00    +0.026 A 
ATOM      6  C   UNL     1       1.168   2.096   0.002  0.00  0.00    +0.040 A 
ATOM      7  C   UNL     1      -0.017   1.377   0.010  0.00  0.00    -0.023 A 
ATOM      8  C   UNL     1       0.002  -0.004   0.002  0.00  0.00    +0.034 A 
ATOM      9  C   UNL     1       1.207  -0.682  -0.013  0.00  0.00    +0.106 A 
ATOM     10  C   UNL     1      -1.172   2.353   0.020  0.00  0.00    +0.056 C 
ATOM     11  C   UNL     1      -0.507   3.740   0.027  0.00  0.00    +0.118 C 
ATOM     12  N   UNL     1       0.934   3.475   0.012  0.00  0.00    -0.271 N 
ATOM     13  C   UNL     1       1.894   4.421   0.007  0.00  0.00    +0.223 C 
ATOM     14  O   UNL     1       3.063   4.100  -0.006  0.00  0.00    -0.275 OA
BRANCH  13  15
ATOM     15  C   UNL     1       1.514   5.880   0.019  0.00  0.00    +0.076 C 
ATOM     16  C   UNL     1       1.166   6.437  -1.372  0.00  0.00    +0.013 C 
ATOM     17  C   UNL     1       1.922   7.712  -0.963  0.00  0.00    +0.001 C 
ATOM     18  C   UNL     1       2.721   6.831   0.012  0.00  0.00    +0.013 C 
ENDBRANCH  13  15
ENDBRANCH   1   9
BRANCH   1  19
ATOM     19  N   UNL     1       1.220  -2.925  -1.608  0.00  0.00    -0.177 NA
ATOM     20  C   UNL     1      -0.048  -3.163  -2.311  0.00  0.00    +0.108 C 
ATOM     21  C   UNL     1      -0.056  -2.329  -3.601  0.00  0.00    +0.002 C 
ATOM     22  C   UNL     1       1.190  -2.660  -4.424  0.00  0.00    -0.066 C 
ATOM     23  C   UNL     1       2.444  -2.297  -3.624  0.00  0.00    +0.002 C 
ATOM     24  C   UNL     1       2.480  -3.126  -2.336  0.00  0.00    +0.108 C 
BRANCH  22  30
ATOM     25  C   UNL     1       1.135  -0.448  -5.406  0.00  0.00    -0.078 C 
ATOM     26  C   UNL     1       1.260   0.321  -6.723  0.00  0.00    -0.019 C 
ATOM     27  C   UNL     1       0.106  -0.071  -7.649  0.00  0.00    -0.004 C 
ATOM     28  C   UNL     1       0.135  -1.586  -7.875  0.00  0.00    -0.019 C 
ATOM     29  C   UNL     1       0.043  -2.300  -6.525  0.00  0.00    -0.078 C 
ATOM     30  N   UNL     1       1.195  -1.898  -5.690  0.00  0.00    +0.382 N 
ATOM     31  H   UNL     1       2.062  -2.102  -6.199  0.00  0.00    -0.081 HD
ENDBRANCH  22  30
ENDBRANCH   1  19
TORSDOF 4
