REMARK  Name = ZINC12983557
REMARK  6 active torsions:
REMARK  status: ('A' for Active; 'I' for Inactive)
REMARK    1  A    between atoms: C_1  and  C_2
REMARK    2  A    between atoms: C_2  and  C_4
REMARK    3  A    between atoms: C_2  and  N_18
REMARK    4  A    between atoms: N_6  and  C_7
REMARK    5  A    between atoms: N_18  and  S_19
REMARK    6  A    between atoms: S_19  and  C_22
REMARK                            x       y       z     vdW  Elec       q    Type
REMARK                         _______ _______ _______ _____ _____    ______ ____
ROOT
ATOM      1  C   UNL     1       4.763   1.472   0.065  0.00  0.00    +0.236 C 
ATOM      2  O   UNL     1       4.780   0.259   0.058  0.00  0.00    -0.274 OA
ATOM      3  N   UNL     1       3.589   2.129  -0.022  0.00  0.00    -0.284 N 
ATOM      4  H   UNL     1       3.579   3.096  -0.094  0.00  0.00    +0.155 HD
ENDROOT
BRANCH   3   5
ATOM      5  C   UNL     1       2.384   1.415  -0.008  0.00  0.00    +0.037 A 
ATOM      6  C   UNL     1       2.276   0.249   0.738  0.00  0.00    +0.027 A 
ATOM      7  C   UNL     1       1.088  -0.456   0.753  0.00  0.00    +0.051 A 
ATOM      8  C   UNL     1       0.001  -0.002   0.024  0.00  0.00    +0.173 A 
ATOM      9  C   UNL     1       0.106   1.168  -0.725  0.00  0.00    +0.174 A 
ATOM     10  C   UNL     1       1.297   1.874  -0.739  0.00  0.00    +0.073 A 
ATOM     11  O   UNL     1      -1.087   1.395  -1.349  0.00  0.00    -0.395 OA
ATOM     12  C   UNL     1      -1.795   0.144  -1.296  0.00  0.00    +0.589 C 
ATOM     13  O   UNL     1      -1.260  -0.505  -0.128  0.00  0.00    -0.395 OA
ATOM     14  F   UNL     1      -1.531  -0.614  -2.443  0.00  0.00    -0.125 F 
ATOM     15  F   UNL     1      -3.170   0.356  -1.155  0.00  0.00    -0.125 F 
ENDBRANCH   3   5
BRANCH   1  17
ATOM     16  C   UNL     1       6.024   3.116   1.426  0.00  0.00    +0.035 C 
ATOM     17  C   UNL     1       6.053   2.244   0.170  0.00  0.00    +0.159 C 
BRANCH  17  18
ATOM     18  N   UNL     1       7.177   1.307   0.251  0.00  0.00    -0.178 NA
ATOM     19  H   UNL     1       7.074   0.465   0.721  0.00  0.00    +0.149 HD
BRANCH  18  20
ATOM     20  S   UNL     1       8.624   1.687  -0.460  0.00  0.00    +0.059 S 
ATOM     21  O   UNL     1       9.506   0.607  -0.187  0.00  0.00    -0.153 OA
ATOM     22  O   UNL     1       8.327   2.113  -1.782  0.00  0.00    -0.153 OA
BRANCH  20  23
ATOM     23  C   UNL     1       9.268   3.091   0.389  0.00  0.00    +0.107 A 
ATOM     24  C   UNL     1      10.088   2.917   1.488  0.00  0.00    +0.028 A 
ATOM     25  C   UNL     1      10.594   4.018   2.154  0.00  0.00    +0.003 A 
ATOM     26  C   UNL     1      10.281   5.293   1.720  0.00  0.00    +0.020 A 
ATOM     27  C   UNL     1       9.461   5.467   0.620  0.00  0.00    +0.043 A 
ATOM     28  C   UNL     1       8.959   4.364  -0.049  0.00  0.00    +0.048 A 
ATOM     29 CL   UNL     1       9.068   7.067   0.074  0.00  0.00    -0.083 Cl
ENDBRANCH  20  23
ENDBRANCH  18  20
ENDBRANCH  17  18
ENDBRANCH   1  17
TORSDOF 5
