REMARK  Name = ZINC48918921
REMARK  4 active torsions:
REMARK  status: ('A' for Active; 'I' for Inactive)
REMARK    1  A    between atoms: C_1  and  C_2
REMARK    2  A    between atoms: C_2  and  C_3
REMARK    3  A    between atoms: C_9  and  C_11
REMARK    4  A    between atoms: C_13  and  C_17
REMARK                            x       y       z     vdW  Elec       q    Type
REMARK                         _______ _______ _______ _____ _____    ______ ____
ROOT
ATOM      1  C   UNL     1      -1.604  -0.442  -0.107  0.00  0.00    -0.008 C 
ATOM      2  C   UNL     1      -2.274  -0.054   1.213  0.00  0.00    +0.022 C 
ATOM      3  C   UNL     1      -3.692  -0.631   1.251  0.00  0.00    +0.108 C 
ATOM      4  N   UNL     1      -3.620  -2.079   1.014  0.00  0.00    -0.296 N 
ATOM      5  C   UNL     1      -2.918  -2.565  -0.182  0.00  0.00    +0.108 C 
ATOM      6  C   UNL     1      -1.508  -1.966  -0.204  0.00  0.00    +0.022 C 
ATOM      7  C   UNL     1      -4.187  -2.945   1.877  0.00  0.00    +0.265 C 
ATOM      8  O   UNL     1      -4.199  -4.135   1.624  0.00  0.00    -0.268 OA
ENDROOT
BRANCH   7   9
ATOM      9  C   UNL     1      -4.790  -2.452   3.124  0.00  0.00    +0.135 A 
ATOM     10  C   UNL     1      -6.014  -1.818   3.262  0.00  0.00    +0.070 A 
ATOM     11  C   UNL     1      -6.138  -1.547   4.627  0.00  0.00    +0.074 A 
ATOM     12  N   UNL     1      -5.063  -1.993   5.224  0.00  0.00    -0.177 NA
ATOM     13  N   UNL     1      -4.259  -2.532   4.381  0.00  0.00    -0.271 N 
ATOM     14  H   UNL     1      -3.403  -2.933   4.601  0.00  0.00    +0.189 HD
ATOM     15  C   UNL     1      -7.303  -0.861   5.293  0.00  0.00    +0.068 C 
ATOM     16 BR   UNL     1      -7.254  -1.407   1.894  0.00  0.00    -0.046 Br
ENDBRANCH   7   9
BRANCH   1  18
ATOM     17  C   UNL     1      -0.301   1.688  -0.192  0.00  0.00    +0.004 C 
ATOM     18  C   UNL     1      -0.199   0.162  -0.163  0.00  0.00    +0.000 C 
ENDBRANCH   1  18
TORSDOF 2
