REMARK  Name = ZINC40443412
REMARK  2 active torsions:
REMARK  status: ('A' for Active; 'I' for Inactive)
REMARK    1  A    between atoms: C_5  and  C_7
REMARK    2  A    between atoms: C_9  and  C_12
REMARK                            x       y       z     vdW  Elec       q    Type
REMARK                         _______ _______ _______ _____ _____    ______ ____
ROOT
ATOM      1  C   UNL     1       1.250  -2.160  -0.022  0.00  0.00    +0.259 A 
ATOM      2  N   UNL     1       0.201  -2.952  -0.021  0.00  0.00    -0.194 NA
ATOM      3  C   UNL     1       0.593  -4.228  -0.030  0.00  0.00    +0.158 A 
ATOM      4  N   UNL     1       1.895  -4.274  -0.037  0.00  0.00    -0.063 NA
ATOM      5  O   UNL     1       2.352  -2.930  -0.038  0.00  0.00    -0.333 OA
ENDROOT
BRANCH   3   6
ATOM      6  C   UNL     1      -0.324  -5.424  -0.033  0.00  0.00    +0.001 C 
ATOM      7  C   UNL     1      -0.331  -6.063   1.358  0.00  0.00    -0.008 C 
ATOM      8  C   UNL     1      -1.264  -7.277   1.351  0.00  0.00    -0.003 C 
ATOM      9  C   UNL     1      -0.805  -8.255   0.266  0.00  0.00    -0.019 C 
ATOM     10  C   UNL     1      -0.780  -7.535  -1.084  0.00  0.00    -0.082 C 
ATOM     11  N   UNL     1       0.150  -6.401  -1.020  0.00  0.00    +0.386 N 
ATOM     12  H   UNL     1       0.205  -5.962  -1.927  0.00  0.00    -0.085 HD
ATOM     13  H   UNL     1       1.065  -6.732  -0.753  0.00  0.00    -0.085 HD
ENDBRANCH   3   6
BRANCH   1  18
ATOM     14  C   UNL     1      -0.017   1.375   0.010  0.00  0.00    +0.001 A 
ATOM     15  C   UNL     1       1.170   2.087   0.002  0.00  0.00    +0.001 A 
ATOM     16  C   UNL     1       2.383   1.422  -0.013  0.00  0.00    +0.016 A 
ATOM     17  C   UNL     1       2.416   0.041  -0.021  0.00  0.00    +0.030 A 
ATOM     18  C   UNL     1       1.222  -0.683  -0.013  0.00  0.00    +0.053 A 
ATOM     19  C   UNL     1       0.002  -0.004   0.002  0.00  0.00    +0.014 A 
ATOM     20 BR   UNL     1       4.075  -0.867  -0.043  0.00  0.00    -0.050 Br
ENDBRANCH   1  18
TORSDOF 2
