REMARK  Name = ZINC42896126
REMARK  10 active torsions:
REMARK  status: ('A' for Active; 'I' for Inactive)
REMARK    1  A    between atoms: C_1  and  C_2
REMARK    2  A    between atoms: C_2  and  C_4
REMARK    3  A    between atoms: C_2  and  N_11
REMARK    4  A    between atoms: N_14  and  C_15
REMARK    5  A    between atoms: C_15  and  C_17
REMARK    6  A    between atoms: C_15  and  C_19
REMARK    7  A    between atoms: C_17  and  O_18
REMARK    8  A    between atoms: C_19  and  C_21
REMARK    9  A    between atoms: C_19  and  O_30
REMARK   10  A    between atoms: C_24  and  N_27
REMARK                            x       y       z     vdW  Elec       q    Type
REMARK                         _______ _______ _______ _____ _____    ______ ____
ROOT
ATOM      1  C   UNK A   1      -3.829  -1.405  -2.663  0.00  0.00    +0.133 C 
ENDROOT
BRANCH   1   5
ATOM      2  N   UNK A   0      -1.367  -0.520  -0.079  0.00  0.00    -0.293 N 
ATOM      3  C   UNK A   0      -1.943  -0.716  -1.281  0.00  0.00    +0.300 C 
ATOM      4  O   UNK A   0      -1.327  -0.466  -2.299  0.00  0.00    -0.253 OA
ATOM      5  N   UNK A   1      -3.202  -1.191  -1.355  0.00  0.00    -0.292 N 
ATOM      6  H   UNK A   0      -1.858  -0.720   0.733  0.00  0.00    +0.151 HD
ATOM      7  H   UNK A   1      -3.694  -1.391  -0.544  0.00  0.00    +0.151 HD
BRANCH   2   9
ATOM      8  C   UNK A   0      -0.028   1.526  -0.017  0.00  0.00    +0.033 C 
ATOM      9  C   UNK A   0       0.002  -0.004   0.002  0.00  0.00    +0.103 C 
BRANCH   9  10
ATOM     10  C   UNK A   0       0.643  -0.479   1.281  0.00  0.00    -0.009 A 
ATOM     11  C   UNK A   0      -0.141  -0.765   2.382  0.00  0.00    +0.007 A 
ATOM     12  C   UNK A   0       0.447  -1.201   3.555  0.00  0.00    +0.000 A 
ATOM     13  C   UNK A   0       1.819  -1.349   3.627  0.00  0.00    +0.001 A 
ATOM     14  C   UNK A   0       2.604  -1.063   2.527  0.00  0.00    +0.020 A 
ATOM     15  C   UNK A   0       2.016  -0.633   1.351  0.00  0.00    +0.046 A 
ATOM     16 CL   UNK A   0       3.001  -0.279  -0.034  0.00  0.00    -0.083 Cl
ENDBRANCH   9  10
ENDBRANCH   2   9
ENDBRANCH   1   5
BRANCH   1  17
ATOM     17  C   UNK A   1      -4.450  -0.094  -3.151  0.00  0.00    +0.181 C 
BRANCH  17  18
ATOM     18  O   UNK A   1      -5.517   0.281  -2.277  0.00  0.00    -0.393 OA
ATOM     19  H   UNK A   1      -5.958   1.105  -2.526  0.00  0.00    +0.209 HD
ENDBRANCH  17  18
ENDBRANCH   1  17
BRANCH   1  20
ATOM     20  C   UNK A   1      -4.919  -2.471  -2.538  0.00  0.00    +0.167 C 
BRANCH  20  21
ATOM     21  C   UNK A   1      -4.330  -3.723  -1.941  0.00  0.00    -0.017 A 
ATOM     22  C   UNK A   1      -4.235  -3.857  -0.569  0.00  0.00    +0.008 A 
ATOM     23  C   UNK A   1      -3.696  -5.006  -0.022  0.00  0.00    +0.033 A 
ATOM     24  C   UNK A   1      -3.252  -6.022  -0.847  0.00  0.00    +0.126 A 
ATOM     25  C   UNK A   1      -3.347  -5.889  -2.220  0.00  0.00    +0.033 A 
ATOM     26  C   UNK A   1      -3.891  -4.741  -2.767  0.00  0.00    +0.008 A 
BRANCH  24  27
ATOM     27  N   UNK A   1      -2.673  -7.252  -0.262  0.00  0.00    +0.056 N 
ATOM     28  O   UNK A   1      -2.588  -7.368   0.939  0.00  0.00    -0.126 OA
ATOM     29  O   UNK A   1      -2.284  -8.140  -0.984  0.00  0.00    -0.126 OA
ENDBRANCH  24  27
ENDBRANCH  20  21
BRANCH  20  30
ATOM     30  O   UNK A   1      -5.964  -1.986  -1.692  0.00  0.00    -0.385 OA
ATOM     31  H   UNK A   1      -5.675  -1.767  -0.796  0.00  0.00    +0.210 HD
ENDBRANCH  20  30
ENDBRANCH   1  20
TORSDOF 9
