REMARK  Name = ZINC63428424
REMARK  4 active torsions:
REMARK  status: ('A' for Active; 'I' for Inactive)
REMARK    1  A    between atoms: C_6  and  C_7
REMARK    2  A    between atoms: C_7  and  O_8
REMARK    3  A    between atoms: O_8  and  C_9
REMARK    4  A    between atoms: C_12  and  C_15
REMARK                            x       y       z     vdW  Elec       q    Type
REMARK                         _______ _______ _______ _____ _____    ______ ____
ROOT
ATOM      1  C   UNL     1      -6.521  -3.862  -2.042  0.00  0.00    +0.047 C 
ATOM      2  C   UNL     1      -6.677  -4.896  -0.923  0.00  0.00    +0.105 C 
ATOM      3  C   UNL     1      -6.999  -4.231   0.382  0.00  0.00    +0.219 C 
ATOM      4  O   UNL     1      -6.796  -4.849   1.405  0.00  0.00    -0.275 OA
ATOM      5  N   UNL     1      -7.497  -2.991   0.480  0.00  0.00    -0.273 N 
ATOM      6  C   UNL     1      -7.673  -2.215  -0.630  0.00  0.00    +0.117 C 
ATOM      7  N   UNL     1      -7.799  -0.923  -0.527  0.00  0.00    -0.205 NA
ATOM      8  C   UNL     1      -7.857  -0.124  -1.598  0.00  0.00    +0.206 C 
ATOM      9  N   UNL     1      -7.749  -0.591  -2.833  0.00  0.00    -0.147 NA
ATOM     10  C   UNL     1      -7.652  -1.890  -3.081  0.00  0.00    +0.250 C 
ATOM     11  O   UNL     1      -7.514  -2.270  -4.227  0.00  0.00    -0.273 OA
ATOM     12  C   UNL     1      -7.708  -2.897  -1.975  0.00  0.00    +0.148 C 
ATOM     13  N   UNL     1      -8.036   1.219  -1.412  0.00  0.00    -0.329 N 
ATOM     14  H   UNL     1      -7.737  -2.639   1.352  0.00  0.00    +0.156 HD
ATOM     15  H   UNL     1      -8.117   1.578  -0.515  0.00  0.00    +0.145 HD
ATOM     16  H   UNL     1      -8.080   1.813  -2.178  0.00  0.00    +0.145 HD
ENDROOT
BRANCH   1  20
ATOM     17  C   UNL     1      -2.875  -1.699  -1.505  0.00  0.00    +0.121 A 
ATOM     18  C   UNL     1      -3.748  -1.863  -0.440  0.00  0.00    +0.046 A 
ATOM     19  C   UNL     1      -4.927  -2.563  -0.616  0.00  0.00    +0.007 A 
ATOM     20  C   UNL     1      -5.235  -3.099  -1.852  0.00  0.00    -0.042 A 
ATOM     21  C   UNL     1      -4.366  -2.937  -2.915  0.00  0.00    +0.007 A 
ATOM     22  C   UNL     1      -3.189  -2.233  -2.746  0.00  0.00    +0.046 A 
BRANCH  17  23
ATOM     23  O   UNL     1      -1.715  -1.011  -1.334  0.00  0.00    -0.487 OA
BRANCH  23  24
ATOM     24  C   UNL     1      -1.457  -0.489  -0.029  0.00  0.00    +0.264 C 
BRANCH  24  30
ATOM     25  C   UNL     1      -0.091   1.587  -0.328  0.00  0.00    +0.010 A 
ATOM     26  C   UNL     1       1.120   2.254  -0.330  0.00  0.00    +0.039 A 
ATOM     27  C   UNL     1       2.287   1.570  -0.035  0.00  0.00    +0.123 A 
ATOM     28  C   UNL     1       2.240   0.219   0.262  0.00  0.00    +0.039 A 
ATOM     29  C   UNL     1       1.029  -0.446   0.263  0.00  0.00    +0.010 A 
ATOM     30  C   UNL     1      -0.136   0.237  -0.031  0.00  0.00    -0.010 A 
ATOM     31  F   UNL     1       3.471   2.221  -0.038  0.00  0.00    -0.205 F 
ENDBRANCH  24  30
ENDBRANCH  23  24
ENDBRANCH  17  23
ENDBRANCH   1  20
TORSDOF 4
