REMARK  Name = ZINC39531996
REMARK  9 active torsions:
REMARK  status: ('A' for Active; 'I' for Inactive)
REMARK    1  A    between atoms: C_1  and  C_2
REMARK    2  A    between atoms: N_5  and  C_11
REMARK    3  A    between atoms: C_7  and  C_10
REMARK    4  A    between atoms: C_11  and  C_20
REMARK    5  A    between atoms: N_22  and  C_23
REMARK    6  A    between atoms: N_22  and  C_24
REMARK    7  A    between atoms: C_24  and  C_25
REMARK    8  A    between atoms: C_26  and  C_32
REMARK    9  A    between atoms: C_29  and  C_31
REMARK                            x       y       z     vdW  Elec       q    Type
REMARK                         _______ _______ _______ _____ _____    ______ ____
ROOT
ATOM      1  C   UNL     1      -2.783  -2.546   0.059  0.00  0.00    +0.107 C 
ATOM      2  C   UNL     1      -3.340  -1.992   1.387  0.00  0.00    +0.067 C 
ATOM      3  C   UNL     1      -4.381  -2.998   1.829  0.00  0.00    -0.042 A 
ATOM      4  C   UNL     1      -5.407  -2.882   2.753  0.00  0.00    +0.004 A 
ATOM      5  C   UNL     1      -6.247  -3.950   2.997  0.00  0.00    +0.000 A 
ATOM      6  C   UNL     1      -6.066  -5.140   2.317  0.00  0.00    +0.000 A 
ATOM      7  C   UNL     1      -5.044  -5.258   1.396  0.00  0.00    +0.004 A 
ATOM      8  C   UNL     1      -4.200  -4.188   1.150  0.00  0.00    -0.042 A 
ATOM      9  C   UNL     1      -3.024  -4.063   0.204  0.00  0.00    +0.067 C 
ENDROOT
BRANCH   1  13
ATOM     10  C   UNL     1       1.668  -2.993   2.112  0.00  0.00    +0.039 C 
ATOM     11  C   UNL     1       0.874  -2.393   0.950  0.00  0.00    +0.130 C 
ATOM     12  C   UNL     1      -0.603  -2.768   1.092  0.00  0.00    +0.116 C 
ATOM     13  N   UNL     1      -1.348  -2.255  -0.067  0.00  0.00    -0.284 NA
ATOM     14  C   UNL     1      -0.807  -2.804  -1.319  0.00  0.00    +0.116 C 
ATOM     15  C   UNL     1       0.673  -2.428  -1.437  0.00  0.00    +0.130 C 
ATOM     16  O   UNL     1       1.375  -2.907  -0.287  0.00  0.00    -0.371 OA
ATOM     17  C   UNL     1       1.262  -3.062  -2.698  0.00  0.00    +0.039 C 
ENDBRANCH   1  13
BRANCH   1  18
ATOM     18  C   UNL     1      -3.544  -1.993  -1.119  0.00  0.00    +0.237 C 
ATOM     19  O   UNL     1      -4.412  -2.656  -1.645  0.00  0.00    -0.274 OA
ATOM     20  N   UNL     1      -3.260  -0.761  -1.586  0.00  0.00    -0.299 N 
ATOM     21  C   UNL     1      -2.146   0.000  -1.016  0.00  0.00    +0.132 C 
BRANCH  20  22
ATOM     22  C   UNL     1      -4.066  -0.183  -2.664  0.00  0.00    +0.142 C 
BRANCH  22  23
ATOM     23  C   UNL     1      -5.222   0.582  -2.072  0.00  0.00    -0.004 C 
ATOM     24  C   UNL     1      -5.296   1.890  -1.813  0.00  0.00    +0.063 C 
ATOM     25  N   UNL     1      -6.498   2.206  -1.282  0.00  0.00    -0.159 NA
ATOM     26  N   UNL     1      -7.265   1.251  -1.145  0.00  0.00    -0.180 NA
ATOM     27  C   UNL     1      -6.575   0.046  -1.638  0.00  0.00    +0.154 C 
ATOM     28  C   UNL     1      -7.322  -0.562  -2.826  0.00  0.00    +0.039 C 
ATOM     29  C   UNL     1      -4.190   2.878  -2.077  0.00  0.00    +0.067 C 
ENDBRANCH  22  23
ENDBRANCH  20  22
ENDBRANCH   1  18
TORSDOF 4
