REMARK  Name = ZINC31076087
REMARK  4 active torsions:
REMARK  status: ('A' for Active; 'I' for Inactive)
REMARK    1  A    between atoms: C_1  and  C_2
REMARK    2  A    between atoms: C_5  and  S_7
REMARK    3  A    between atoms: S_7  and  N_10
REMARK    4  A    between atoms: C_18  and  C_20
REMARK                            x       y       z     vdW  Elec       q    Type
REMARK                         _______ _______ _______ _____ _____    ______ ____
ROOT
ATOM      1  N   UNL     1       1.603  -2.848  -1.611  0.00  0.00    -0.169 NA
ATOM      2  C   UNL     1       0.394  -3.304  -2.313  0.00  0.00    +0.115 C 
ATOM      3  C   UNL     1       0.090  -2.299  -3.442  0.00  0.00    +0.060 C 
ATOM      4  C   UNL     1       1.369  -1.952  -4.130  0.00  0.00    -0.004 A 
ATOM      5  C   UNL     1       2.640  -2.156  -3.688  0.00  0.00    -0.019 A 
ATOM      6  C   UNL     1       3.670  -1.731  -4.525  0.00  0.00    +0.013 A 
ATOM      7  C   UNL     1       3.381  -1.151  -5.712  0.00  0.00    +0.046 A 
ATOM      8  S   UNL     1       1.595  -1.174  -5.708  0.00  0.00    -0.101 S 
ATOM      9  C   UNL     1       2.882  -2.823  -2.335  0.00  0.00    +0.107 C 
ATOM     10  C   UNL     1       3.386  -4.252  -2.544  0.00  0.00    +0.031 C 
ENDROOT
BRANCH   1  11
ATOM     11  S   UNL     1       1.526  -2.376  -0.026  0.00  0.00    +0.068 S 
ATOM     12  O   UNL     1       2.831  -2.545   0.512  0.00  0.00    -0.152 OA
ATOM     13  O   UNL     1       0.384  -3.011   0.532  0.00  0.00    -0.152 OA
BRANCH  11  18
ATOM     14  C   UNL     1       1.402   3.539   0.007  0.00  0.00    +0.051 C 
ATOM     15  C   UNL     1       1.160   2.051   0.002  0.00  0.00    -0.011 A 
ATOM     16  C   UNL     1      -0.017   1.378   0.010  0.00  0.00    +0.013 A 
ATOM     17  C   UNL     1       0.002  -0.004   0.002  0.00  0.00    +0.036 A 
ATOM     18  C   UNL     1       1.196  -0.645  -0.013  0.00  0.00    +0.143 A 
ATOM     19  S   UNL     1       2.348   0.719  -0.017  0.00  0.00    -0.074 S 
ENDBRANCH  11  18
ENDBRANCH   1  11
TORSDOF 2
