REMARK  Name = ZINC59302762
REMARK  8 active torsions:
REMARK  status: ('A' for Active; 'I' for Inactive)
REMARK    1  A    between atoms: C_1  and  C_2
REMARK    2  A    between atoms: C_4  and  C_20
REMARK    3  A    between atoms: C_5  and  C_19
REMARK    4  A    between atoms: N_6  and  C_7
REMARK    5  A    between atoms: C_9  and  C_16
REMARK    6  A    between atoms: C_11  and  C_13
REMARK    7  A    between atoms: N_21  and  C_22
REMARK    8  A    between atoms: C_22  and  C_23
REMARK                            x       y       z     vdW  Elec       q    Type
REMARK                         _______ _______ _______ _____ _____    ______ ____
ROOT
ATOM      1  C   UNL     1      -0.028   1.502   0.007  0.00  0.00    +0.064 C 
ATOM      2  C   UNL     1      -0.005  -0.005   0.000  0.00  0.00    +0.022 A 
ATOM      3  C   UNL     1       0.007  -0.782  -1.097  0.00  0.00    +0.032 A 
ATOM      4  C   UNL     1       0.028  -2.171  -0.625  0.00  0.00    +0.012 A 
ATOM      5  C   UNL     1       0.026  -2.110   0.741  0.00  0.00    +0.029 A 
ATOM      6  N   UNL     1       0.012  -0.805   1.108  0.00  0.00    -0.317 N 
ATOM      7  C   UNL     1       0.043  -3.291   1.677  0.00  0.00    +0.064 C 
ENDROOT
BRANCH   6   8
ATOM      8  C   UNL     1       0.011  -0.343   2.432  0.00  0.00    +0.048 A 
ATOM      9  C   UNL     1       1.111  -0.573   3.245  0.00  0.00    +0.041 A 
ATOM     10  C   UNL     1       1.114  -0.115   4.565  0.00  0.00    +0.066 A 
ATOM     11  C   UNL     1       0.011   0.575   5.065  0.00  0.00    +0.030 A 
ATOM     12  C   UNL     1      -1.093   0.805   4.244  0.00  0.00    +0.066 A 
ATOM     13  C   UNL     1      -1.086   0.348   2.923  0.00  0.00    +0.041 A 
BRANCH  12  14
ATOM     14  C   UNL     1      -2.264   1.536   4.767  0.00  0.00    +0.387 C 
ATOM     15  O   UNL     1      -2.267   1.939   5.921  0.00  0.00    -0.241 OA
ATOM     16  O   UNL     1      -3.231   1.737   4.046  0.00  0.00    -0.241 OA
ENDBRANCH  12  14
BRANCH  10  17
ATOM     17  C   UNL     1       2.284  -0.362   5.430  0.00  0.00    +0.387 C 
ATOM     18  O   UNL     1       3.252  -0.968   4.991  0.00  0.00    -0.241 OA
ATOM     19  O   UNL     1       2.287   0.040   6.585  0.00  0.00    -0.241 OA
ENDBRANCH  10  17
ENDBRANCH   6   8
BRANCH   4  20
ATOM     20  C   UNL     1       0.046  -3.386  -1.456  0.00  0.00    +0.088 C 
ATOM     21  N   UNL     1      -0.057  -3.292  -2.744  0.00  0.00    -0.386 N 
ATOM     22  H   UNL     1      -0.071  -2.420  -3.167  0.00  0.00    +0.159 HD
BRANCH  21  23
ATOM     23  C   UNL     1      -0.152  -4.504  -3.561  0.00  0.00    +0.147 C 
BRANCH  23  24
ATOM     24  C   UNL     1      -1.500  -4.553  -4.232  0.00  0.00    -0.028 A 
ATOM     25  C   UNL     1      -2.565  -5.168  -3.601  0.00  0.00    +0.005 A 
ATOM     26  C   UNL     1      -3.802  -5.212  -4.217  0.00  0.00    +0.000 A 
ATOM     27  C   UNL     1      -3.974  -4.642  -5.464  0.00  0.00    +0.000 A 
ATOM     28  C   UNL     1      -2.909  -4.027  -6.095  0.00  0.00    +0.000 A 
ATOM     29  C   UNL     1      -1.673  -3.978  -5.478  0.00  0.00    +0.005 A 
ENDBRANCH  23  24
ENDBRANCH  21  23
ENDBRANCH   4  20
TORSDOF 6
