REMARK  Name = ZINC32537135
REMARK  6 active torsions:
REMARK  status: ('A' for Active; 'I' for Inactive)
REMARK    1  A    between atoms: C_1  and  C_2
REMARK    2  A    between atoms: C_4  and  N_18
REMARK    3  A    between atoms: C_5  and  C_17
REMARK    4  A    between atoms: C_7  and  S_8
REMARK    5  A    between atoms: S_8  and  N_11
REMARK    6  A    between atoms: N_11  and  C_12
REMARK                            x       y       z     vdW  Elec       q    Type
REMARK                         _______ _______ _______ _____ _____    ______ ____
ROOT
ATOM      1  C   UNL     1      -1.250  -0.799   0.051  0.00  0.00    +0.046 C 
ATOM      2  C   UNL     1       0.020  -0.003   0.204  0.00  0.00    -0.022 A 
ATOM      3  C   UNL     1       1.202  -0.643   0.522  0.00  0.00    +0.030 A 
ATOM      4  C   UNL     1       2.372   0.091   0.662  0.00  0.00    +0.054 A 
ATOM      5  C   UNL     1       2.350   1.468   0.482  0.00  0.00    -0.026 A 
ATOM      6  C   UNL     1       1.165   2.103   0.165  0.00  0.00    +0.034 A 
ATOM      7  C   UNL     1       0.001   1.368   0.026  0.00  0.00    +0.109 A 
ATOM      8  C   UNL     1       3.617   2.270   0.634  0.00  0.00    +0.046 C 
ENDROOT
BRANCH   4   9
ATOM      9  N   UNL     1       3.569  -0.554   0.983  0.00  0.00    -0.207 N 
ATOM     10  C   UNL     1       4.407  -1.161  -0.062  0.00  0.00    +0.131 C 
ATOM     11  C   UNL     1       4.616  -2.638   0.240  0.00  0.00    +0.022 C 
ATOM     12  C   UNL     1       5.402  -2.820   1.536  0.00  0.00    +0.026 C 
ATOM     13  C   UNL     1       4.528  -2.423   2.732  0.00  0.00    +0.189 C 
ATOM     14  S   UNL     1       4.088  -0.665   2.560  0.00  0.00    +0.045 S 
ATOM     15  O   UNL     1       5.253   0.145   2.624  0.00  0.00    -0.155 OA
ATOM     16  O   UNL     1       2.944  -0.362   3.347  0.00  0.00    -0.155 OA
ENDBRANCH   4   9
BRANCH   7  17
ATOM     17  S   UNL     1      -1.507   2.181  -0.386  0.00  0.00    +0.059 S 
ATOM     18  O   UNL     1      -1.208   3.566  -0.487  0.00  0.00    -0.153 OA
ATOM     19  O   UNL     1      -2.084   1.446  -1.457  0.00  0.00    -0.153 OA
BRANCH  17  20
ATOM     20  N   UNL     1      -2.525   2.009   0.908  0.00  0.00    -0.187 NA
ATOM     21  H   UNL     1      -3.360   1.295   0.845  0.00  0.00    +0.148 HD
BRANCH  20  22
ATOM     22  C   UNL     1      -2.191   2.633   2.191  0.00  0.00    +0.077 C 
ATOM     23  C   UNL     1      -1.554   1.592   3.135  0.00  0.00    +0.020 C 
ATOM     24  C   UNL     1      -2.107   1.960   4.534  0.00  0.00    +0.002 C 
ATOM     25  C   UNL     1      -3.567   2.375   4.226  0.00  0.00    +0.002 C 
ATOM     26  C   UNL     1      -3.471   3.131   2.885  0.00  0.00    +0.020 C 
ENDBRANCH  20  22
ENDBRANCH  17  20
ENDBRANCH   7  17
TORSDOF 4
