REMARK  Name = ZINC32635169
REMARK  10 active torsions:
REMARK  status: ('A' for Active; 'I' for Inactive)
REMARK    1  A    between atoms: C_1  and  C_2
REMARK    2  A    between atoms: C_2  and  C_3
REMARK    3  A    between atoms: C_2  and  C_4
REMARK    4  A    between atoms: C_2  and  O_5
REMARK    5  A    between atoms: O_5  and  C_6
REMARK    6  A    between atoms: N_8  and  C_9
REMARK    7  A    between atoms: C_9  and  C_10
REMARK    8  A    between atoms: C_10  and  C_11
REMARK    9  A    between atoms: C_11  and  N_13
REMARK   10  A    between atoms: N_15  and  C_26
REMARK                            x       y       z     vdW  Elec       q    Type
REMARK                         _______ _______ _______ _____ _____    ______ ____
ROOT
ATOM      1  N   UNL     1       6.430  -0.482  -5.347  0.00  0.00    -0.159 NA
ATOM      2  C   UNL     1       7.720  -0.251  -5.560  0.00  0.00    +0.154 C 
ATOM      3  N   UNL     1       8.598   0.477  -4.761  0.00  0.00    -0.276 N 
ATOM      4  C   UNL     1       9.861   0.766  -5.365  0.00  0.00    +0.116 C 
ATOM      5  C   UNL     1      11.060   1.315  -4.610  0.00  0.00    +0.190 C 
ATOM      6  S   UNL     1      12.392   1.036  -5.868  0.00  0.00    -0.028 S 
ATOM      7  O   UNL     1      12.754   2.284  -6.444  0.00  0.00    -0.174 OA
ATOM      8  O   UNL     1      13.398   0.207  -5.302  0.00  0.00    -0.174 OA
ATOM      9  C   UNL     1      11.423   0.055  -7.108  0.00  0.00    +0.182 C 
ATOM     10  C   UNL     1      10.350  -0.510  -6.151  0.00  0.00    +0.097 C 
ATOM     11  S   UNL     1       8.725  -0.817  -6.941  0.00  0.00    -0.086 S 
ENDROOT
BRANCH   3  12
ATOM     12  C   UNL     1       8.269   0.894  -3.467  0.00  0.00    +0.036 A 
ATOM     13  C   UNL     1       8.136  -0.039  -2.447  0.00  0.00    +0.024 A 
ATOM     14  C   UNL     1       7.811   0.375  -1.171  0.00  0.00    +0.017 A 
ATOM     15  C   UNL     1       7.617   1.720  -0.907  0.00  0.00    +0.018 A 
ATOM     16  C   UNL     1       7.748   2.652  -1.921  0.00  0.00    +0.017 A 
ATOM     17  C   UNL     1       8.080   2.244  -3.198  0.00  0.00    +0.024 A 
ATOM     18 BR   UNL     1       7.172   2.284   0.842  0.00  0.00    -0.050 Br
ENDBRANCH   3  12
BRANCH   1  19
ATOM     19  C   UNL     1       5.800   0.131  -4.348  0.00  0.00    +0.240 C 
ATOM     20  O   UNL     1       5.781   1.346  -4.296  0.00  0.00    -0.274 OA
BRANCH  19  21
ATOM     21  C   UNL     1       5.112  -0.680  -3.281  0.00  0.00    +0.117 C 
BRANCH  21  22
ATOM     22  C   UNL     1       4.344   0.256  -2.345  0.00  0.00    +0.117 C 
BRANCH  22  25
ATOM     23  C   UNL     1       2.825   0.077  -0.448  0.00  0.00    +0.401 C 
ATOM     24  O   UNL     1       2.775   1.291  -0.412  0.00  0.00    -0.226 OA
ATOM     25  N   UNL     1       3.582  -0.538  -1.378  0.00  0.00    -0.281 N 
ATOM     26  H   UNL     1       3.623  -1.507  -1.407  0.00  0.00    +0.152 HD
BRANCH  23  27
ATOM     27  O   UNL     1       2.125  -0.652   0.441  0.00  0.00    -0.445 OA
BRANCH  27  29
ATOM     28  C   UNL     1       0.311   0.928   0.670  0.00  0.00    +0.055 C 
ATOM     29  C   UNL     1       1.344   0.066   1.398  0.00  0.00    +0.107 C 
ATOM     30  C   UNL     1       2.260   0.963   2.233  0.00  0.00    +0.055 C 
ATOM     31  C   UNL     1       0.625  -0.925   2.316  0.00  0.00    +0.055 C 
ENDBRANCH  27  29
ENDBRANCH  23  27
ENDBRANCH  22  25
ENDBRANCH  21  22
ENDBRANCH  19  21
ENDBRANCH   1  19
TORSDOF 7
