REMARK  Name = ZINC13332729
REMARK  3 active torsions:
REMARK  status: ('A' for Active; 'I' for Inactive)
REMARK    1  A    between atoms: C_2  and  C_24
REMARK    2  A    between atoms: C_3  and  N_12
REMARK    3  A    between atoms: C_13  and  C_15
REMARK                            x       y       z     vdW  Elec       q    Type
REMARK                         _______ _______ _______ _____ _____    ______ ____
ROOT
ATOM      1  C   UNL     1      -3.570   6.432  -0.232  0.00  0.00    +0.066 A 
ATOM      2  C   UNL     1      -2.388   5.686  -0.142  0.00  0.00    +0.088 A 
ATOM      3  C   UNL     1      -2.453   4.287  -0.044  0.00  0.00    +0.052 A 
ATOM      4  C   UNL     1      -3.686   3.650  -0.041  0.00  0.00    +0.073 A 
ATOM      5  C   UNL     1      -4.848   4.399  -0.124  0.00  0.00    +0.164 A 
ATOM      6  C   UNL     1      -4.788   5.787  -0.223  0.00  0.00    +0.163 A 
ATOM      7  O   UNL     1      -5.945   6.506  -0.311  0.00  0.00    -0.488 OA
ATOM      8  C   UNL     1      -6.764   6.520   0.860  0.00  0.00    +0.232 C 
ATOM      9  C   UNL     1      -7.662   5.293   0.904  0.00  0.00    +0.082 C 
ATOM     10  C   UNL     1      -6.871   4.002   1.040  0.00  0.00    +0.232 C 
ATOM     11  O   UNL     1      -6.062   3.778  -0.116  0.00  0.00    -0.488 OA
ENDROOT
BRANCH   3  12
ATOM     12  N   UNL     1      -1.281   3.538   0.045  0.00  0.00    -0.281 N 
ATOM     13  C   UNL     1      -1.207   2.330  -0.548  0.00  0.00    +0.249 C 
ATOM     14  O   UNL     1      -2.188   1.857  -1.091  0.00  0.00    -0.270 OA
ATOM     15  H   UNL     1      -0.519   3.887   0.533  0.00  0.00    +0.155 HD
BRANCH  13  16
ATOM     16  C   UNL     1       0.060   1.582  -0.538  0.00  0.00    +0.047 A 
ATOM     17  C   UNL     1       1.186   2.098   0.066  0.00  0.00    +0.058 A 
ATOM     18  S   UNL     1       2.378   0.869  -0.200  0.00  0.00    -0.101 S 
ATOM     19  C   UNL     1       1.388  -0.297  -1.092  0.00  0.00    -0.006 A 
ATOM     20  C   UNL     1       0.167   0.280  -1.168  0.00  0.00    -0.025 A 
ATOM     21  C   UNL     1      -0.988  -0.420  -1.875  0.00  0.00    +0.037 C 
ATOM     22  C   UNL     1      -0.419  -1.508  -2.787  0.00  0.00    +0.005 C 
ATOM     23  C   UNL     1       0.524  -2.416  -1.992  0.00  0.00    +0.005 C 
ATOM     24  C   UNL     1       1.795  -1.627  -1.645  0.00  0.00    +0.043 C 
ENDBRANCH  13  16
ENDBRANCH   3  12
BRANCH   2  25
ATOM     25  C   UNL     1      -1.084   6.365  -0.151  0.00  0.00    +0.388 C 
ATOM     26  O   UNL     1      -0.059   5.713  -0.173  0.00  0.00    -0.241 OA
ATOM     27  O   UNL     1      -1.025   7.712  -0.135  0.00  0.00    -0.241 OA
ENDBRANCH   2  25
TORSDOF 3
