REMARK  Name = ZINC64670749
REMARK  2 active torsions:
REMARK  status: ('A' for Active; 'I' for Inactive)
REMARK    1  A    between atoms: C_8  and  C_16
REMARK    2  A    between atoms: C_18  and  C_21
REMARK                            x       y       z     vdW  Elec       q    Type
REMARK                         _______ _______ _______ _____ _____    ______ ____
ROOT
ATOM      1  C   UNL     1      -0.016   1.347   0.009  0.00  0.00    +0.001 A 
ATOM      2  C   UNL     1       1.165   2.101   0.002  0.00  0.00    +0.002 A 
ATOM      3  C   UNL     1       2.390   1.534  -0.009  0.00  0.00    +0.026 A 
ATOM      4  C   UNL     1       2.530   0.120  -0.014  0.00  0.00    +0.043 A 
ATOM      5  N   UNL     1       3.592  -0.653  -0.047  0.00  0.00    -0.377 N 
ATOM      6  C   UNL     1       3.156  -2.044   0.048  0.00  0.00    +0.117 C 
ATOM      7  C   UNL     1       3.655  -2.889  -1.127  0.00  0.00    +0.087 C 
ATOM      8  C   UNL     1       2.925  -4.236  -1.102  0.00  0.00    +0.014 C 
ATOM      9  C   UNL     1       1.430  -4.058  -1.357  0.00  0.00    +0.005 C 
ATOM     10  C   UNL     1       0.797  -3.238  -0.219  0.00  0.00    +0.033 C 
ATOM     11  C   UNL     1       1.639  -1.997  -0.033  0.00  0.00    -0.038 C 
ATOM     12  C   UNL     1       1.294  -0.702  -0.015  0.00  0.00    -0.001 A 
ATOM     13  C   UNL     1       0.002  -0.004   0.002  0.00  0.00    +0.010 A 
ATOM     14  H   UNL     1       4.511  -0.351  -0.121  0.00  0.00    +0.160 HD
ENDROOT
BRANCH   7  15
ATOM     15  C   UNL     1       3.366  -2.176  -2.423  0.00  0.00    +0.177 A 
ATOM     16  N   UNL     1       4.281  -1.796  -3.322  0.00  0.00    -0.195 NA
ATOM     17  C   UNL     1       3.700  -1.205  -4.329  0.00  0.00    +0.242 A 
ATOM     18  O   UNL     1       2.380  -1.190  -4.102  0.00  0.00    -0.337 OA
ATOM     19  N   UNL     1       2.185  -1.835  -2.852  0.00  0.00    -0.061 NA
BRANCH  17  20
ATOM     20  C   UNL     1       4.394  -0.638  -5.540  0.00  0.00    +0.207 C 
ATOM     21 CL   UNL     1       4.517  -1.909  -6.813  0.00  0.00    -0.115 Cl
ENDBRANCH  17  20
ENDBRANCH   7  15
TORSDOF 2
