REMARK  Name = ZINC43737305
REMARK  10 active torsions:
REMARK  status: ('A' for Active; 'I' for Inactive)
REMARK    1  A    between atoms: C_1  and  C_2
REMARK    2  A    between atoms: C_2  and  C_3
REMARK    3  A    between atoms: C_3  and  C_5
REMARK    4  A    between atoms: C_3  and  N_6
REMARK    5  A    between atoms: C_7  and  C_8
REMARK    6  A    between atoms: C_11  and  O_38
REMARK    7  A    between atoms: C_14  and  O_37
REMARK    8  A    between atoms: C_23  and  C_36
REMARK    9  A    between atoms: C_24  and  O_35
REMARK   10  A    between atoms: C_27  and  C_29
REMARK                            x       y       z     vdW  Elec       q    Type
REMARK                         _______ _______ _______ _____ _____    ______ ____
ROOT
ATOM      1  C   UNL     1       5.146   1.116  -2.022  0.00  0.00    +0.036 C 
ATOM      2  C   UNL     1       5.450   2.612  -1.934  0.00  0.00    +0.018 C 
ATOM      3  C   UNL     1       6.934   2.850  -2.221  0.00  0.00    +0.032 C 
ATOM      4  C   UNL     1       7.779   2.096  -1.192  0.00  0.00    +0.117 C 
ATOM      5  C   UNL     1       7.476   0.599  -1.282  0.00  0.00    +0.067 C 
ATOM      6  C   UNL     1       5.993   0.361  -0.996  0.00  0.00    +0.079 C 
ATOM      7  C   UNL     1       5.689  -1.135  -1.084  0.00  0.00    +0.036 C 
ATOM      8  C   UNL     1       6.019  -1.641  -2.490  0.00  0.00    +0.009 C 
ATOM      9  C   UNL     1       5.171  -0.886  -3.516  0.00  0.00    +0.025 C 
ATOM     10  C   UNL     1       5.475   0.610  -3.428  0.00  0.00    +0.009 C 
ATOM     11  C   UNL     1       4.597   1.345  -4.447  0.00  0.00    +0.005 C 
ATOM     12  C   UNL     1       4.984   0.878  -5.848  0.00  0.00    +0.010 C 
ATOM     13  C   UNL     1       4.717  -0.620  -6.014  0.00  0.00    +0.004 C 
ATOM     14  C   UNL     1       5.436  -1.408  -4.907  0.00  0.00    +0.075 C 
ATOM     15  C   UNL     1       6.924  -1.332  -5.296  0.00  0.00    +0.036 C 
ATOM     16  C   UNL     1       6.901  -1.467  -6.836  0.00  0.00    +0.011 C 
ATOM     17  C   UNL     1       5.467  -1.066  -7.298  0.00  0.00    +0.027 C 
ATOM     18  C   UNL     1       3.219  -0.920  -6.097  0.00  0.00    +0.014 C 
ENDROOT
BRANCH  17  19
ATOM     19  C   UNL     1       5.580   0.088  -8.259  0.00  0.00    -0.022 C 
ATOM     20  C   UNL     1       6.664   0.825  -8.492  0.00  0.00    +0.094 C 
ATOM     21  C   UNL     1       6.344   1.842  -9.498  0.00  0.00    +0.332 C 
ATOM     22  O   UNL     1       7.124   2.671  -9.926  0.00  0.00    -0.246 OA
ATOM     23  O   UNL     1       5.059   1.720  -9.876  0.00  0.00    -0.457 OA
ATOM     24  C   UNL     1       4.485   0.629  -9.150  0.00  0.00    +0.264 C 
ENDBRANCH  17  19
BRANCH   1  26
ATOM     25  N   UNL     1       2.942   1.857  -1.366  0.00  0.00    -0.390 N 
ATOM     26  C   UNL     1       3.685   0.883  -1.734  0.00  0.00    +0.060 C 
ATOM     27  H   UNL     1       3.298   2.759  -1.349  0.00  0.00    +0.159 HD
BRANCH  25  28
ATOM     28  C   UNL     1       1.553   1.611  -0.971  0.00  0.00    +0.075 C 
ATOM     29  C   UNL     1       1.346   2.063   0.476  0.00  0.00    +0.030 C 
BRANCH  28  31
ATOM     30  C   UNL     1       0.730   1.860  -3.317  0.00  0.00    +0.006 C 
ATOM     31  C   UNL     1       0.615   2.397  -1.889  0.00  0.00    +0.021 C 
ENDBRANCH  28  31
ENDBRANCH  25  28
ENDBRANCH   1  26
BRANCH  14  32
ATOM     32  O   UNL     1       5.019  -2.773  -4.983  0.00  0.00    -0.388 OA
ATOM     33  H   UNL     1       5.467  -3.357  -4.356  0.00  0.00    +0.210 HD
ENDBRANCH  14  32
BRANCH   6  34
ATOM     34  O   UNL     1       5.683   0.832   0.317  0.00  0.00    -0.388 OA
ATOM     35  H   UNL     1       6.184   0.397   1.020  0.00  0.00    +0.210 HD
ENDBRANCH   6  34
BRANCH   4  36
ATOM     36  O   UNL     1       9.165   2.319  -1.460  0.00  0.00    -0.392 OA
ATOM     37  H   UNL     1       9.429   3.248  -1.421  0.00  0.00    +0.210 HD
ENDBRANCH   4  36
TORSDOF 7
