REMARK  Name = ZINC39846278
REMARK  8 active torsions:
REMARK  status: ('A' for Active; 'I' for Inactive)
REMARK    1  A    between atoms: C_1  and  C_2
REMARK    2  A    between atoms: C_5  and  C_19
REMARK    3  A    between atoms: C_6  and  C_7
REMARK    4  A    between atoms: C_6  and  C_8
REMARK    5  A    between atoms: C_12  and  C_17
REMARK    6  A    between atoms: C_13  and  C_15
REMARK    7  A    between atoms: N_21  and  C_22
REMARK    8  A    between atoms: N_21  and  C_23
REMARK                            x       y       z     vdW  Elec       q    Type
REMARK                         _______ _______ _______ _____ _____    ______ ____
ROOT
ATOM      1  C   UNL     1       0.960   1.409  -0.486  0.00  0.00    +0.018 C 
ATOM      2  C   UNL     1       0.752  -0.102  -0.377  0.00  0.00    +0.018 C 
ATOM      3  C   UNL     1       1.432  -0.974  -1.480  0.00  0.00    +0.015 C 
ATOM      4  C   UNL     1       1.452  -2.398  -0.874  0.00  0.00    +0.024 C 
ATOM      5  C   UNL     1       0.783  -2.224   0.526  0.00  0.00    +0.097 C 
ATOM      6  C   UNL     1       1.315  -0.797   0.917  0.00  0.00    -0.005 C 
ATOM      7  C   UNL     1       0.677  -0.250   2.196  0.00  0.00    +0.013 C 
ATOM      8  C   UNL     1       2.843  -0.762   0.979  0.00  0.00    +0.013 C 
ATOM      9  C   UNL     1      -0.675  -1.887   0.207  0.00  0.00    +0.080 A 
ATOM     10  C   UNL     1      -0.699  -0.585  -0.328  0.00  0.00    +0.072 A 
ATOM     11  N   UNL     1      -1.827  -0.023  -0.693  0.00  0.00    -0.236 NA
ATOM     12  C   UNL     1      -2.975  -0.680  -0.535  0.00  0.00    +0.176 A 
ATOM     13  C   UNL     1      -2.968  -1.972   0.022  0.00  0.00    +0.176 A 
ATOM     14  N   UNL     1      -1.790  -2.562   0.359  0.00  0.00    -0.236 NA
ENDROOT
BRANCH   5  15
ATOM     15  C   UNL     1       1.024  -3.330   1.520  0.00  0.00    +0.228 C 
ATOM     16  O   UNL     1       1.661  -3.110   2.529  0.00  0.00    -0.275 OA
ATOM     17  N   UNL     1       0.533  -4.564   1.290  0.00  0.00    -0.307 N 
ATOM     18  C   UNL     1       0.674  -5.611   2.305  0.00  0.00    +0.131 C 
ATOM     19  C   UNL     1      -0.143  -4.858   0.023  0.00  0.00    +0.131 C 
ENDBRANCH   5  15
BRANCH  13  20
ATOM     20  C   UNL     1      -4.197  -2.687   0.196  0.00  0.00    +0.122 C 
ATOM     21  N   UNL     1      -5.172  -3.253   0.334  0.00  0.00    -0.189 NA
ENDBRANCH  13  20
BRANCH  12  22
ATOM     22  C   UNL     1      -4.211  -0.075  -0.930  0.00  0.00    +0.122 C 
ATOM     23  N   UNL     1      -5.191   0.406  -1.244  0.00  0.00    -0.189 NA
ENDBRANCH  12  22
TORSDOF 3
