REMARK  Name = ZINC00669101
REMARK  8 active torsions:
REMARK  status: ('A' for Active; 'I' for Inactive)
REMARK    1  A    between atoms: C_1  and  C_2
REMARK    2  A    between atoms: C_3  and  C_24
REMARK    3  A    between atoms: C_4  and  C_20
REMARK    4  A    between atoms: C_5  and  N_7
REMARK    5  A    between atoms: C_8  and  C_10
REMARK    6  A    between atoms: C_15  and  N_16
REMARK    7  A    between atoms: C_20  and  O_22
REMARK    8  A    between atoms: O_22  and  C_23
REMARK                            x       y       z     vdW  Elec       q    Type
REMARK                         _______ _______ _______ _____ _____    ______ ____
ROOT
ATOM      1  C   UNL     1       7.444  -2.059  -1.921  0.00  0.00    +0.052 C 
ATOM      2  C   UNL     1       5.976  -1.875  -1.637  0.00  0.00    -0.003 A 
ATOM      3  C   UNL     1       5.001  -2.819  -1.593  0.00  0.00    +0.008 A 
ATOM      4  C   UNL     1       3.660  -2.358  -1.288  0.00  0.00    +0.095 A 
ATOM      5  C   UNL     1       3.500  -0.994  -1.080  0.00  0.00    +0.087 A 
ATOM      6  S   UNL     1       5.101  -0.366  -1.278  0.00  0.00    -0.077 S 
ENDROOT
BRANCH   3   7
ATOM      7  C   UNL     1       5.294  -4.251  -1.838  0.00  0.00    -0.016 A 
ATOM      8  C   UNL     1       4.747  -4.897  -2.946  0.00  0.00    +0.011 A 
ATOM      9  C   UNL     1       5.027  -6.229  -3.174  0.00  0.00    +0.039 A 
ATOM     10  C   UNL     1       5.841  -6.927  -2.296  0.00  0.00    +0.123 A 
ATOM     11  C   UNL     1       6.383  -6.291  -1.191  0.00  0.00    +0.039 A 
ATOM     12  C   UNL     1       6.113  -4.958  -0.959  0.00  0.00    +0.011 A 
ATOM     13  F   UNL     1       6.107  -8.233  -2.520  0.00  0.00    -0.205 F 
ENDBRANCH   3   7
BRANCH   5  14
ATOM     14  N   UNL     1       2.339  -0.302  -0.781  0.00  0.00    -0.275 N 
ATOM     15  C   UNL     1       2.376   1.034  -0.606  0.00  0.00    +0.251 C 
ATOM     16  O   UNL     1       3.429   1.631  -0.711  0.00  0.00    -0.270 OA
ATOM     17  H   UNL     1       1.498  -0.779  -0.697  0.00  0.00    +0.156 HD
BRANCH  15  18
ATOM     18  C   UNL     1       1.137   1.772  -0.286  0.00  0.00    +0.067 A 
ATOM     19  C   UNL     1      -0.046   1.076  -0.028  0.00  0.00    +0.017 A 
ATOM     20  C   UNL     1      -1.201   1.771   0.265  0.00  0.00    +0.021 A 
ATOM     21  C   UNL     1      -1.186   3.155   0.314  0.00  0.00    +0.043 A 
ATOM     22  C   UNL     1      -0.016   3.851   0.059  0.00  0.00    +0.053 A 
ATOM     23  C   UNL     1       1.144   3.167  -0.241  0.00  0.00    +0.140 A 
ATOM     24 CL   UNL     1      -2.642   4.023   0.690  0.00  0.00    -0.083 Cl
BRANCH  23  25
ATOM     25  N   UNL     1       2.394   3.912  -0.513  0.00  0.00    +0.057 N 
ATOM     26  O   UNL     1       2.778   4.763   0.269  0.00  0.00    -0.126 OA
ATOM     27  O   UNL     1       3.039   3.673  -1.518  0.00  0.00    -0.126 OA
ENDBRANCH  23  25
ENDBRANCH  15  18
ENDBRANCH   5  14
BRANCH   4  28
ATOM     28  C   UNL     1       2.530  -3.284  -1.207  0.00  0.00    +0.342 C 
ATOM     29  O   UNL     1       1.877  -3.534  -2.203  0.00  0.00    -0.245 OA
BRANCH  28  30
ATOM     30  O   UNL     1       2.213  -3.860  -0.030  0.00  0.00    -0.464 OA
ATOM     31  C   UNL     1       1.080  -4.768  -0.024  0.00  0.00    +0.280 C 
ENDBRANCH  28  30
ENDBRANCH   4  28
TORSDOF 6
