REMARK  Name = ZINC32094006
REMARK  4 active torsions:
REMARK  status: ('A' for Active; 'I' for Inactive)
REMARK    1  A    between atoms: C_1  and  C_2
REMARK    2  A    between atoms: C_15  and  O_26
REMARK    3  A    between atoms: C_17  and  C_19
REMARK    4  A    between atoms: C_23  and  O_25
REMARK                            x       y       z     vdW  Elec       q    Type
REMARK                         _______ _______ _______ _____ _____    ______ ____
ROOT
ATOM      1  C   UNL     1      -0.018   1.503   0.010  0.00  0.00    +0.068 C 
ATOM      2  C   UNL     1       0.002  -0.004   0.002  0.00  0.00    +0.066 A 
ATOM      3  C   UNL     1       0.008  -0.806  -1.124  0.00  0.00    +0.027 A 
ATOM      4  C   UNL     1       0.032  -2.129  -0.706  0.00  0.00    +0.165 A 
ATOM      5  N   UNL     1       0.034  -2.119   0.648  0.00  0.00    -0.194 N 
ATOM      6  N   UNL     1       0.023  -0.778   1.064  0.00  0.00    -0.168 NA
ATOM      7  C   UNL     1       0.049  -3.241   1.481  0.00  0.00    +0.178 A 
ATOM      8  C   UNL     1       0.553  -3.144   2.777  0.00  0.00    +0.053 A 
ATOM      9  C   UNL     1       0.546  -4.285   3.564  0.00  0.00    +0.045 A 
ATOM     10  C   UNL     1       0.035  -5.453   3.014  0.00  0.00    +0.152 A 
ATOM     11  N   UNL     1      -0.423  -5.454   1.776  0.00  0.00    -0.136 NA
ATOM     12  N   UNL     1      -0.422  -4.399   1.045  0.00  0.00    -0.128 NA
ATOM     13 CL   UNL     1       0.001  -6.913   3.953  0.00  0.00    -0.060 Cl
ATOM     14  N   UNL     1       0.057  -3.160  -1.598  0.00  0.00    -0.197 NA
ATOM     15  C   UNL     1       0.344  -2.913  -2.841  0.00  0.00    +0.190 C 
ATOM     16  C   UNL     1       0.716  -1.552  -3.354  0.00  0.00    +0.108 C 
ATOM     17  C   UNL     1      -0.011  -0.441  -2.587  0.00  0.00    +0.063 C 
ENDROOT
BRANCH  17  18
ATOM     18  C   UNL     1       0.697   0.872  -2.796  0.00  0.00    -0.036 A 
ATOM     19  C   UNL     1       2.029   1.002  -2.447  0.00  0.00    +0.004 A 
ATOM     20  C   UNL     1       2.682   2.205  -2.637  0.00  0.00    +0.004 A 
ATOM     21  C   UNL     1       2.005   3.282  -3.176  0.00  0.00    +0.045 A 
ATOM     22  C   UNL     1       0.669   3.155  -3.527  0.00  0.00    +0.117 A 
ATOM     23  C   UNL     1       0.018   1.944  -3.341  0.00  0.00    +0.049 A 
BRANCH  22  24
ATOM     24  O   UNL     1       0.001   4.213  -4.058  0.00  0.00    -0.507 OA
ATOM     25  H   UNL     1       0.046   4.262  -5.022  0.00  0.00    +0.292 HD
ENDBRANCH  22  24
ENDBRANCH  17  18
BRANCH  15  26
ATOM     26  O   UNL     1       0.306  -3.936  -3.720  0.00  0.00    -0.495 OA
ATOM     27  H   UNL     1       0.060  -4.784  -3.325  0.00  0.00    +0.293 HD
ENDBRANCH  15  26
TORSDOF 3
