REMARK  Name = ZINC00028033
REMARK  7 active torsions:
REMARK  status: ('A' for Active; 'I' for Inactive)
REMARK    1  A    between atoms: C_1  and  C_2
REMARK    2  A    between atoms: C_4  and  C_25
REMARK    3  A    between atoms: C_5  and  C_24
REMARK    4  A    between atoms: C_6  and  C_9
REMARK    5  A    between atoms: C_7  and  C_8
REMARK    6  A    between atoms: C_11  and  C_22
REMARK    7  A    between atoms: C_12  and  N_21
REMARK                            x       y       z     vdW  Elec       q    Type
REMARK                         _______ _______ _______ _____ _____    ______ ____
ROOT
ATOM      1  C   UNL     1       1.493   1.742   2.705  0.00  0.00    +0.101 C 
ATOM      2  C   UNL     1       1.783   0.581   3.616  0.00  0.00    +0.098 C 
ATOM      3  C   UNL     1       2.118   0.789   4.910  0.00  0.00    +0.198 C 
ATOM      4  O   UNL     1       2.197   2.027   5.420  0.00  0.00    -0.445 OA
ATOM      5  C   UNL     1       2.377   3.079   4.599  0.00  0.00    +0.115 C 
ATOM      6  C   UNL     1       2.056   3.013   3.294  0.00  0.00    +0.046 C 
ATOM      7  C   UNL     1       2.230   4.119   2.441  0.00  0.00    +0.163 C 
ATOM      8  O   UNL     1       1.940   4.016   1.265  0.00  0.00    -0.292 OA
ATOM      9  C   UNL     1       2.768   5.426   2.957  0.00  0.00    +0.080 C 
ATOM     10  C   UNL     1       2.406   5.559   4.440  0.00  0.00    +0.016 C 
ATOM     11  C   UNL     1       2.960   4.344   5.186  0.00  0.00    +0.075 C 
ENDROOT
BRANCH   1  17
ATOM     12  C   UNL     1      -3.007   2.757   4.644  0.00  0.00    +0.044 C 
ATOM     13  C   UNL     1      -2.151   2.372   3.466  0.00  0.00    -0.047 A 
ATOM     14  C   UNL     1      -2.733   2.149   2.232  0.00  0.00    +0.007 A 
ATOM     15  C   UNL     1      -1.948   1.789   1.153  0.00  0.00    -0.047 A 
ATOM     16  C   UNL     1      -0.580   1.658   1.306  0.00  0.00    -0.043 A 
ATOM     17  C   UNL     1       0.002   1.886   2.538  0.00  0.00    -0.028 A 
ATOM     18  C   UNL     1      -0.783   2.245   3.618  0.00  0.00    -0.043 A 
ATOM     19  C   UNL     1      -0.148   2.493   4.962  0.00  0.00    +0.044 C 
ATOM     20  C   UNL     1       0.276   1.265   0.129  0.00  0.00    +0.044 C 
ATOM     21  C   UNL     1      -2.583   1.540  -0.191  0.00  0.00    +0.044 C 
ENDBRANCH   1  17
BRANCH   3  22
ATOM     22  N   UNL     1       2.382  -0.289   5.718  0.00  0.00    -0.328 N 
ATOM     23  H   UNL     1       2.623  -0.151   6.647  0.00  0.00    +0.145 HD
ATOM     24  H   UNL     1       2.328  -1.189   5.360  0.00  0.00    +0.145 HD
ENDBRANCH   3  22
BRANCH   2  25
ATOM     25  C   UNL     1       1.705  -0.756   3.111  0.00  0.00    +0.101 C 
ATOM     26  N   UNL     1       1.643  -1.817   2.710  0.00  0.00    -0.191 NA
ENDBRANCH   2  25
TORSDOF 3
