REMARK  Name = ZINC41546541
REMARK  3 active torsions:
REMARK  status: ('A' for Active; 'I' for Inactive)
REMARK    1  A    between atoms: C_1  and  C_2
REMARK    2  A    between atoms: C_2  and  C_13
REMARK    3  A    between atoms: N_15  and  C_16
REMARK                            x       y       z     vdW  Elec       q    Type
REMARK                         _______ _______ _______ _____ _____    ______ ____
ROOT
ATOM      1  C   UNL     1      -0.023   1.511   0.028  0.00  0.00    +0.076 C 
ATOM      2  C   UNL     1       0.001  -0.019   0.008  0.00  0.00    +0.258 C 
ATOM      3  C   UNL     1      -1.412  -0.544   0.010  0.00  0.00    +0.270 C 
ATOM      4  O   UNL     1      -2.312   0.127  -0.452  0.00  0.00    -0.271 OA
ATOM      5  N   UNL     1      -1.673  -1.763   0.528  0.00  0.00    -0.279 N 
ATOM      6  C   UNL     1      -0.645  -2.467   1.169  0.00  0.00    +0.076 A 
ATOM      7  C   UNL     1      -0.810  -3.801   1.508  0.00  0.00    +0.027 A 
ATOM      8  C   UNL     1       0.219  -4.485   2.129  0.00  0.00    +0.002 A 
ATOM      9  C   UNL     1       1.410  -3.843   2.411  0.00  0.00    +0.004 A 
ATOM     10  C   UNL     1       1.579  -2.511   2.080  0.00  0.00    +0.047 A 
ATOM     11  C   UNL     1       0.552  -1.817   1.464  0.00  0.00    +0.144 A 
ATOM     12  O   UNL     1       0.695  -0.499   1.162  0.00  0.00    -0.465 OA
ATOM     13  H   UNL     1      -2.561  -2.146   0.457  0.00  0.00    +0.155 HD
ENDROOT
BRANCH   2  14
ATOM     14  C   UNL     1       0.709  -0.493  -1.236  0.00  0.00    +0.270 C 
ATOM     15  O   UNL     1       0.070  -0.778  -2.226  0.00  0.00    -0.271 OA
ATOM     16  N   UNL     1       2.053  -0.599  -1.247  0.00  0.00    -0.279 N 
ATOM     17  H   UNL     1       2.570  -0.296  -0.484  0.00  0.00    +0.155 HD
BRANCH  16  18
ATOM     18  C   UNL     1       2.703  -1.149  -2.361  0.00  0.00    +0.069 A 
ATOM     19  C   UNL     1       2.027  -2.027  -3.196  0.00  0.00    +0.029 A 
ATOM     20  C   UNL     1       2.669  -2.568  -4.293  0.00  0.00    +0.040 A 
ATOM     21  C   UNL     1       3.986  -2.235  -4.561  0.00  0.00    +0.126 A 
ATOM     22  C   UNL     1       4.664  -1.359  -3.729  0.00  0.00    +0.078 A 
ATOM     23  C   UNL     1       4.023  -0.810  -2.633  0.00  0.00    +0.147 A 
ATOM     24  F   UNL     1       4.682   0.049  -1.825  0.00  0.00    -0.203 F 
ATOM     25  F   UNL     1       4.612  -2.765  -5.634  0.00  0.00    -0.205 F 
ENDBRANCH  16  18
ENDBRANCH   2  14
TORSDOF 2
