REMARK  Name = ZINC66173511
REMARK  6 active torsions:
REMARK  status: ('A' for Active; 'I' for Inactive)
REMARK    1  A    between atoms: C_1  and  C_2
REMARK    2  A    between atoms: C_2  and  C_3
REMARK    3  A    between atoms: N_12  and  C_13
REMARK    4  A    between atoms: N_21  and  S_23
REMARK    5  A    between atoms: S_23  and  C_26
REMARK    6  A    between atoms: C_26  and  C_27
REMARK                            x       y       z     vdW  Elec       q    Type
REMARK                         _______ _______ _______ _____ _____    ______ ____
ROOT
ATOM      1  C   UNL     1       1.990   0.362  -6.820  0.00  0.00    +0.038 A 
ATOM      2  C   UNL     1       1.838   1.737  -6.730  0.00  0.00    +0.023 A 
ATOM      3  C   UNL     1       2.274   2.544  -7.761  0.00  0.00    +0.002 A 
ATOM      4  C   UNL     1       2.854   1.977  -8.878  0.00  0.00    +0.005 A 
ATOM      5  C   UNL     1       3.007   0.600  -8.974  0.00  0.00    -0.027 A 
ATOM      6  C   UNL     1       2.589  -0.210  -7.944  0.00  0.00    -0.020 A 
ATOM      7  C   UNL     1       2.754  -1.707  -7.961  0.00  0.00    +0.054 C 
ATOM      8  C   UNL     1       2.958  -2.215  -9.387  0.00  0.00    +0.114 C 
ATOM      9  N   UNL     1       3.975  -1.367 -10.030  0.00  0.00    -0.177 NA
ATOM     10  C   UNL     1       3.636   0.049 -10.229  0.00  0.00    +0.144 C 
ENDROOT
BRANCH   1  19
ATOM     11  C   UNL     1       0.050  -0.362  -1.438  0.00  0.00    +0.006 C 
ATOM     12  C   UNL     1       0.441  -1.827  -1.228  0.00  0.00    +0.006 C 
ATOM     13  C   UNL     1       1.442  -2.249  -2.306  0.00  0.00    +0.019 C 
ATOM     14  C   UNL     1       0.788  -2.116  -3.685  0.00  0.00    +0.109 C 
ATOM     15  N   UNL     1       0.280  -0.746  -3.837  0.00  0.00    -0.285 N 
ATOM     16  C   UNL     1      -0.619  -0.207  -2.807  0.00  0.00    +0.112 C 
ATOM     17  C   UNL     1       0.631   0.004  -4.900  0.00  0.00    +0.306 C 
ATOM     18  O   UNL     1       0.123   1.095  -5.070  0.00  0.00    -0.252 OA
ATOM     19  N   UNL     1       1.547  -0.457  -5.776  0.00  0.00    -0.269 N 
ATOM     20  H   UNL     1       1.898  -1.356  -5.682  0.00  0.00    +0.156 HD
BRANCH  11  22
ATOM     21  C   UNL     1      -1.220   1.563  -0.477  0.00  0.00    +0.004 C 
ATOM     22  C   UNL     1      -0.925   0.068  -0.340  0.00  0.00    +0.002 C 
ENDBRANCH  11  22
ENDBRANCH   1  19
BRANCH   9  23
ATOM     23  S   UNL     1       5.433  -1.987 -10.513  0.00  0.00    +0.032 S 
ATOM     24  O   UNL     1       6.323  -0.880 -10.489  0.00  0.00    -0.158 OA
ATOM     25  O   UNL     1       5.648  -3.108  -9.666  0.00  0.00    -0.158 OA
BRANCH  23  26
ATOM     26  C   UNL     1       5.163  -2.536 -12.220  0.00  0.00    +0.182 C 
ATOM     27  C   UNL     1       6.458  -3.133 -12.775  0.00  0.00    +0.029 C 
ENDBRANCH  23  26
ENDBRANCH   9  23
TORSDOF 4
