REMARK  Name = ZINC08074994
REMARK  1 active torsions:
REMARK  status: ('A' for Active; 'I' for Inactive)
REMARK    1  A    between atoms: C_12  and  C_14
REMARK                            x       y       z     vdW  Elec       q    Type
REMARK                         _______ _______ _______ _____ _____    ______ ____
ROOT
ATOM      1  C   UNL     1      -1.127   1.650  -0.351  0.00  0.00    +0.002 A 
ATOM      2  C   UNL     1       0.111   1.039  -0.436  0.00  0.00    +0.002 A 
ATOM      3  C   UNL     1       1.266   1.789  -0.305  0.00  0.00    +0.025 A 
ATOM      4  C   UNL     1       1.178   3.150  -0.080  0.00  0.00    +0.059 A 
ATOM      5  C   UNL     1      -0.070   3.768   0.020  0.00  0.00    +0.055 A 
ATOM      6  C   UNL     1      -1.222   3.010  -0.119  0.00  0.00    +0.025 A 
ATOM      7  N   UNL     1      -0.144   5.143   0.268  0.00  0.00    -0.282 N 
ATOM      8  C   UNL     1       0.933   5.932   0.073  0.00  0.00    +0.241 C 
ATOM      9  O   UNL     1       0.850   7.125   0.274  0.00  0.00    -0.273 OA
ATOM     10  C   UNL     1       2.236   5.342  -0.393  0.00  0.00    +0.118 C 
ATOM     11  N   UNL     1       2.331   3.944   0.043  0.00  0.00    -0.254 N 
ATOM     12  C   UNL     1       3.478   3.442   0.542  0.00  0.00    +0.235 C 
ATOM     13  O   UNL     1       4.522   4.039   0.383  0.00  0.00    -0.274 OA
ATOM     14  C   UNL     1       2.331   5.416  -1.927  0.00  0.00    +0.036 C 
ATOM     15  C   UNL     1       3.153   6.703  -2.193  0.00  0.00    +0.003 C 
ATOM     16  C   UNL     1       4.197   6.686  -1.048  0.00  0.00    +0.003 C 
ATOM     17  C   UNL     1       3.415   6.148   0.170  0.00  0.00    +0.036 C 
ATOM     18  H   UNL     1      -0.975   5.532   0.582  0.00  0.00    +0.155 HD
ENDROOT
BRANCH  12  19
ATOM     19  C   UNL     1       3.464   2.138   1.298  0.00  0.00    +0.204 C 
ATOM     20 CL   UNL     1       5.085   1.852   2.035  0.00  0.00    -0.116 Cl
ENDBRANCH  12  19
TORSDOF 1
