REMARK  Name = ZINC60392928
REMARK  2 active torsions:
REMARK  status: ('A' for Active; 'I' for Inactive)
REMARK    1  A    between atoms: C_1  and  C_2
REMARK    2  A    between atoms: C_2  and  C_9
REMARK                            x       y       z     vdW  Elec       q    Type
REMARK                         _______ _______ _______ _____ _____    ______ ____
ROOT
ATOM      1  C   UNL     1      -0.019   1.526   0.010  0.00  0.00    +0.042 C 
ATOM      2  C   UNL     1       0.002  -0.004   0.002  0.00  0.00    +0.115 C 
ATOM      3  C   UNL     1       0.815  -0.520  -1.169  0.00  0.00    +0.244 C 
ATOM      4  O   UNL     1       0.595  -0.342  -2.348  0.00  0.00    -0.273 OA
ATOM      5  N   UNL     1       1.833  -1.217  -0.627  0.00  0.00    -0.238 N 
ATOM      6  C   UNL     1       1.777  -1.214   0.710  0.00  0.00    +0.307 C 
ATOM      7  O   UNL     1       2.586  -1.776   1.421  0.00  0.00    -0.252 OA
ATOM      8  N   UNL     1       0.724  -0.519   1.178  0.00  0.00    -0.285 N 
ATOM      9  H   UNL     1       2.520  -1.667  -1.143  0.00  0.00    +0.159 HD
ATOM     10  H   UNL     1       0.487  -0.383   2.109  0.00  0.00    +0.151 HD
ENDROOT
BRANCH   2  11
ATOM     11  C   UNL     1      -1.423  -0.560  -0.041  0.00  0.00    +0.001 C 
ATOM     12  C   UNL     1      -2.189  -0.095   1.200  0.00  0.00    +0.013 C 
ATOM     13  C   UNL     1      -3.614  -0.651   1.157  0.00  0.00    -0.010 C 
ATOM     14  C   UNL     1      -4.322  -0.143  -0.101  0.00  0.00    +0.007 C 
ATOM     15  C   UNL     1      -3.556  -0.608  -1.341  0.00  0.00    -0.010 C 
ATOM     16  C   UNL     1      -2.131  -0.052  -1.298  0.00  0.00    +0.013 C 
ATOM     17  C   UNL     1      -3.506  -2.137  -1.366  0.00  0.00    +0.007 C 
ATOM     18  C   UNL     1      -2.798  -2.645  -0.108  0.00  0.00    -0.010 C 
ATOM     19  C   UNL     1      -3.564  -2.180   1.132  0.00  0.00    +0.007 C 
ATOM     20  C   UNL     1      -1.373  -2.089  -0.066  0.00  0.00    +0.013 C 
ENDBRANCH   2  11
TORSDOF 1
