REMARK  Name = ZINC10908153
REMARK  10 active torsions:
REMARK  status: ('A' for Active; 'I' for Inactive)
REMARK    1  A    between atoms: C_1  and  C_2
REMARK    2  A    between atoms: C_2  and  C_3
REMARK    3  A    between atoms: C_2  and  C_4
REMARK    4  A    between atoms: C_4  and  C_6
REMARK    5  A    between atoms: C_4  and  N_60
REMARK    6  A    between atoms: C_9  and  C_12
REMARK    7  A    between atoms: C_18  and  C_19
REMARK    8  A    between atoms: C_18  and  N_60
REMARK    9  A    between atoms: N_23  and  C_28
REMARK   10  A    between atoms: N_26  and  C_27
REMARK                            x       y       z     vdW  Elec       q    Type
REMARK                         _______ _______ _______ _____ _____    ______ ____
ROOT
ATOM      1  C   UNL     1       2.451   3.937   0.000  0.00  0.00    -0.038 C 
ENDROOT
BRANCH   1   2
ATOM      2  C   UNL     1       1.156   3.165   0.008  0.00  0.00    -0.061 A 
ATOM      3  C   UNL     1       1.175   1.783   0.000  0.00  0.00    +0.002 A 
ATOM      4  C   UNL     1      -0.013   1.076   0.008  0.00  0.00    +0.004 A 
ATOM      5  C   UNL     1      -1.219   1.751   0.017  0.00  0.00    -0.044 A 
ATOM      6  C   UNL     1      -1.238   3.133   0.029  0.00  0.00    +0.004 A 
ATOM      7  C   UNL     1      -0.050   3.840   0.022  0.00  0.00    +0.002 A 
BRANCH   5   8
ATOM      8  C   UNL     1      -2.514   0.980   0.019  0.00  0.00    +0.019 C 
ATOM      9  C   UNL     1      -3.327   1.345  -1.224  0.00  0.00    +0.008 C 
ATOM     10  C   UNL     1      -4.641   0.562  -1.222  0.00  0.00    +0.001 C 
ATOM     11  C   UNL     1      -5.443   0.914   0.033  0.00  0.00    +0.000 C 
ATOM     12  C   UNL     1      -4.630   0.548   1.276  0.00  0.00    +0.001 C 
ATOM     13  C   UNL     1      -3.315   1.331   1.274  0.00  0.00    +0.008 C 
ENDBRANCH   5   8
ENDBRANCH   1   2
BRANCH   1  15
ATOM     14  C   UNL     1       1.592   5.203   1.976  0.00  0.00    +0.006 C 
ATOM     15  C   UNL     1       2.774   4.405   1.421  0.00  0.00    -0.027 C 
ATOM     16  C   UNL     1       3.033   3.189   2.312  0.00  0.00    +0.006 C 
ENDBRANCH   1  15
BRANCH   1  17
ATOM     17  N   UNL     1       2.311   5.108  -0.885  0.00  0.00    +0.387 N 
ATOM     18  H   UNL     1       1.887   5.881  -0.359  0.00  0.00    -0.084 HD
ATOM     19  H   UNL     1       1.708   4.863  -1.679  0.00  0.00    -0.084 HD
BRANCH  17  20
ATOM     20  C   UNL     1       3.632   5.530  -1.389  0.00  0.00    -0.027 C 
BRANCH  20  21
ATOM     21  C   UNL     1       3.459   6.726  -2.289  0.00  0.00    +0.011 A 
ATOM     22  C   UNL     1       3.981   7.920  -1.937  0.00  0.00    +0.090 A 
ATOM     23  C   UNL     1       3.804   9.030  -2.799  0.00  0.00    +0.256 A 
ATOM     24  O   UNL     1       4.266  10.117  -2.503  0.00  0.00    -0.268 OA
ATOM     25  N   UNL     1       3.121   8.871  -3.950  0.00  0.00    -0.264 N 
ATOM     26  C   UNL     1       2.611   7.669  -4.276  0.00  0.00    +0.332 A 
ATOM     27  O   UNL     1       1.996   7.541  -5.317  0.00  0.00    -0.246 OA
ATOM     28  N   UNL     1       2.776   6.606  -3.469  0.00  0.00    -0.302 N 
ATOM     29  C   UNL     1       2.215   5.308  -3.853  0.00  0.00    +0.153 C 
ATOM     30  C   UNL     1       2.932  10.012  -4.850  0.00  0.00    +0.157 C 
ENDBRANCH  20  21
ENDBRANCH  17  20
ENDBRANCH   1  17
TORSDOF 6
