REMARK  Name = ZINC20555537
REMARK  4 active torsions:
REMARK  status: ('A' for Active; 'I' for Inactive)
REMARK    1  A    between atoms: C_1  and  C_2
REMARK    2  A    between atoms: C_2  and  C_3
REMARK    3  A    between atoms: C_9  and  C_18
REMARK    4  A    between atoms: C_12  and  C_17
REMARK                            x       y       z     vdW  Elec       q    Type
REMARK                         _______ _______ _______ _____ _____    ______ ____
ROOT
ATOM      1  C   UNL     1      -1.441   6.193  -0.361  0.00  0.00    -0.006 C 
ATOM      2  C   UNL     1      -2.505   5.485   0.486  0.00  0.00    +0.010 C 
ATOM      3  C   UNL     1      -2.588   4.028   0.039  0.00  0.00    +0.054 C 
ATOM      4  C   UNL     1      -1.218   3.396   0.031  0.00  0.00    +0.020 A 
ATOM      5  C   UNL     1      -0.056   4.157   0.028  0.00  0.00    -0.013 A 
ATOM      6  C   UNL     1       1.185   3.521   0.011  0.00  0.00    +0.077 A 
ATOM      7  C   UNL     1       1.213   2.106   0.002  0.00  0.00    +0.013 A 
ATOM      8  C   UNL     1       2.420   1.395  -0.015  0.00  0.00    +0.014 A 
ATOM      9  C   UNL     1       2.400   0.033  -0.022  0.00  0.00    -0.050 A 
ATOM     10  C   UNL     1       1.192  -0.663  -0.013  0.00  0.00    +0.005 A 
ATOM     11  C   UNL     1       0.002  -0.004   0.002  0.00  0.00    +0.026 A 
ATOM     12  C   UNL     1      -0.017   1.403   0.010  0.00  0.00    +0.047 A 
ATOM     13  N   UNL     1      -1.165   2.078   0.019  0.00  0.00    -0.358 N 
ATOM     14  C   UNL     1       3.699  -0.731  -0.039  0.00  0.00    +0.044 C 
ATOM     15  C   UNL     1      -0.069   5.663   0.049  0.00  0.00    +0.041 C 
ATOM     16  H   UNL     1      -2.095   1.490   0.016  0.00  0.00    +0.166 HD
ENDROOT
BRANCH   6  17
ATOM     17  C   UNL     1       2.438   4.305   0.003  0.00  0.00    +0.387 C 
ATOM     18  O   UNL     1       2.942   4.633  -1.052  0.00  0.00    -0.241 OA
ATOM     19  O   UNL     1       3.021   4.654   1.166  0.00  0.00    -0.241 OA
ENDBRANCH   6  17
BRANCH   1  21
ATOM     20  C   UNL     1      -2.845   8.244  -0.615  0.00  0.00    +0.004 C 
ATOM     21  C   UNL     1      -1.506   7.702  -0.113  0.00  0.00    +0.000 C 
ENDBRANCH   1  21
TORSDOF 2
