REMARK  Name = ZINC34955678
REMARK  4 active torsions:
REMARK  status: ('A' for Active; 'I' for Inactive)
REMARK    1  A    between atoms: C_1  and  C_2
REMARK    2  A    between atoms: C_7  and  C_22
REMARK    3  A    between atoms: N_9  and  S_10
REMARK    4  A    between atoms: S_10  and  C_13
REMARK                            x       y       z     vdW  Elec       q    Type
REMARK                         _______ _______ _______ _____ _____    ______ ____
ROOT
ATOM      1  S   UNL     1       1.728   0.531   2.038  0.00  0.00    +0.061 S 
ATOM      2  O   UNL     1       1.024   1.764   1.964  0.00  0.00    -0.153 OA
ATOM      3  O   UNL     1       2.041  -0.094   3.275  0.00  0.00    -0.153 OA
ENDROOT
BRANCH   1   4
ATOM      4  C   UNL     1       3.256   0.773   1.194  0.00  0.00    +0.106 A 
ATOM      5  C   UNL     1       4.358   0.005   1.523  0.00  0.00    +0.030 A 
ATOM      6  C   UNL     1       5.555   0.192   0.865  0.00  0.00    +0.025 A 
ATOM      7  C   UNL     1       5.664   1.157  -0.139  0.00  0.00    +0.031 A 
ATOM      8  C   UNL     1       4.553   1.921  -0.460  0.00  0.00    -0.023 A 
ATOM      9  C   UNL     1       3.354   1.727   0.198  0.00  0.00    +0.034 A 
ATOM     10  C   UNL     1       4.933   2.881  -1.566  0.00  0.00    +0.055 C 
ATOM     11  C   UNL     1       6.414   2.577  -1.848  0.00  0.00    +0.106 C 
ATOM     12  N   UNL     1       6.769   1.502  -0.918  0.00  0.00    -0.343 N 
ATOM     13  H   UNL     1       7.645   1.090  -0.853  0.00  0.00    +0.146 HD
ENDBRANCH   1   4
BRANCH   1  20
ATOM     14  C   UNL     1      -0.167   1.407   0.126  0.00  0.00    +0.026 C 
ATOM     15  C   UNL     1      -0.070  -0.119   0.108  0.00  0.00    +0.077 C 
ATOM     16  C   UNL     1      -1.453  -0.725   0.370  0.00  0.00    +0.020 C 
ATOM     17  C   UNL     1      -1.325  -2.246   0.489  0.00  0.00    +0.003 C 
ATOM     18  C   UNL     1      -0.414  -2.592   1.669  0.00  0.00    +0.020 C 
ATOM     19  C   UNL     1       0.980  -2.007   1.422  0.00  0.00    +0.077 C 
ATOM     20  N   UNL     1       0.852  -0.567   1.160  0.00  0.00    -0.171 NA
ATOM     21  C   UNL     1       1.857  -2.232   2.655  0.00  0.00    +0.026 C 
ENDBRANCH   1  20
TORSDOF 2
