REMARK  Name = ZINC34830160
REMARK  7 active torsions:
REMARK  status: ('A' for Active; 'I' for Inactive)
REMARK    1  A    between atoms: C_1  and  C_2
REMARK    2  A    between atoms: C_5  and  C_8
REMARK    3  A    between atoms: N_17  and  C_18
REMARK    4  A    between atoms: C_18  and  C_19
REMARK    5  A    between atoms: C_19  and  C_20
REMARK    6  A    between atoms: C_26  and  C_29
REMARK    7  A    between atoms: C_30  and  C_32
REMARK                            x       y       z     vdW  Elec       q    Type
REMARK                         _______ _______ _______ _____ _____    ______ ____
ROOT
ATOM      1  C   UNL     1       3.001  -5.706   0.221  0.00  0.00    -0.068 C 
ENDROOT
BRANCH   1  10
ATOM      2  C   UNL     1       0.859  -6.166  -0.744  0.00  0.00    -0.006 C 
ATOM      3  C   UNL     1      -0.410  -7.000  -0.597  0.00  0.00    -0.047 A 
ATOM      4  C   UNL     1      -1.602  -6.730  -1.265  0.00  0.00    +0.010 A 
ATOM      5  C   UNL     1      -2.681  -7.524  -1.071  0.00  0.00    +0.045 A 
ATOM      6  S   UNL     1      -2.051  -8.726   0.092  0.00  0.00    -0.101 S 
ATOM      7  C   UNL     1      -0.408  -8.083   0.231  0.00  0.00    -0.010 A 
ATOM      8  C   UNL     1       0.744  -8.575   1.045  0.00  0.00    +0.024 C 
ATOM      9  C   UNL     1       2.010  -7.867   0.532  0.00  0.00    -0.072 C 
ATOM     10  N   UNL     1       1.735  -6.429   0.404  0.00  0.00    +0.388 N 
ATOM     11  H   UNL     1       1.286  -6.102   1.246  0.00  0.00    -0.080 HD
BRANCH   2  16
ATOM     12  C   UNL     1      -0.520  -0.556  -0.888  0.00  0.00    +0.044 C 
ATOM     13  C   UNL     1      -0.160  -2.019  -0.851  0.00  0.00    -0.050 A 
ATOM     14  C   UNL     1       0.113  -2.694  -2.026  0.00  0.00    +0.003 A 
ATOM     15  C   UNL     1       0.443  -4.036  -1.991  0.00  0.00    +0.002 A 
ATOM     16  C   UNL     1       0.500  -4.703  -0.782  0.00  0.00    -0.057 A 
ATOM     17  C   UNL     1       0.228  -4.028   0.394  0.00  0.00    +0.002 A 
ATOM     18  C   UNL     1      -0.098  -2.685   0.359  0.00  0.00    +0.003 A 
ENDBRANCH   2  16
ENDBRANCH   1  10
BRANCH   1  19
ATOM     19  C   UNL     1       3.869  -5.874   1.470  0.00  0.00    +0.077 C 
BRANCH  19  20
ATOM     20  C   UNL     1       5.168  -5.133   1.282  0.00  0.00    +0.214 C 
ATOM     21  O   UNL     1       5.378  -4.529   0.251  0.00  0.00    -0.276 OA
ATOM     22  N   UNL     1       6.095  -5.140   2.260  0.00  0.00    -0.298 N 
ATOM     23  C   UNL     1       5.856  -5.872   3.512  0.00  0.00    +0.127 C 
ATOM     24  C   UNL     1       6.025  -4.901   4.687  0.00  0.00    +0.127 C 
ATOM     25  N   UNL     1       7.294  -4.178   4.520  0.00  0.00    -0.289 N 
ATOM     26  C   UNL     1       7.532  -3.446   3.268  0.00  0.00    +0.091 C 
ATOM     27  C   UNL     1       7.366  -4.422   2.091  0.00  0.00    +0.130 C 
ATOM     28  C   UNL     1       6.525  -2.302   3.143  0.00  0.00    +0.029 C 
ATOM     29  C   UNL     1       8.221  -4.186   5.498  0.00  0.00    +0.282 C 
ATOM     30  O   UNL     1       9.319  -3.699   5.300  0.00  0.00    -0.267 OA
BRANCH  29  31
ATOM     31  C   UNL     1       7.908  -4.781   6.801  0.00  0.00    +0.189 A 
ATOM     32  C   UNL     1       8.791  -4.987   7.822  0.00  0.00    +0.054 A 
ATOM     33  C   UNL     1       8.066  -5.574   8.871  0.00  0.00    +0.042 A 
ATOM     34  C   UNL     1       6.788  -5.700   8.449  0.00  0.00    +0.196 A 
ATOM     35  O   UNL     1       6.696  -5.216   7.203  0.00  0.00    -0.458 OA
ENDBRANCH  29  31
ENDBRANCH  19  20
ENDBRANCH   1  19
TORSDOF 5
