REMARK  Name = ZINC21060368
REMARK  6 active torsions:
REMARK  status: ('A' for Active; 'I' for Inactive)
REMARK    1  A    between atoms: C_1  and  C_2
REMARK    2  A    between atoms: C_3  and  N_22
REMARK    3  A    between atoms: C_5  and  S_9
REMARK    4  A    between atoms: S_9  and  N_12
REMARK    5  A    between atoms: C_14  and  C_21
REMARK    6  A    between atoms: C_17  and  C_20
REMARK                            x       y       z     vdW  Elec       q    Type
REMARK                         _______ _______ _______ _____ _____    ______ ____
ROOT
ATOM      1  C   UNL     1      -3.140   3.062   4.910  0.00  0.00    +0.047 C 
ATOM      2  C   UNL     1      -2.360   2.653   3.688  0.00  0.00    -0.011 A 
ATOM      3  C   UNL     1      -1.437   3.527   3.127  0.00  0.00    +0.031 A 
ATOM      4  C   UNL     1      -0.717   3.144   2.003  0.00  0.00    +0.051 A 
ATOM      5  C   UNL     1      -0.927   1.900   1.439  0.00  0.00    +0.109 A 
ATOM      6  C   UNL     1      -1.846   1.032   1.999  0.00  0.00    +0.049 A 
ATOM      7  C   UNL     1      -2.562   1.408   3.123  0.00  0.00    +0.047 A 
ATOM      8 CL   UNL     1      -3.715   0.315   3.822  0.00  0.00    -0.083 Cl
ENDROOT
BRANCH   5   9
ATOM      9  S   UNL     1      -0.017   1.417   0.010  0.00  0.00    +0.061 S 
ATOM     10  O   UNL     1       0.002  -0.004   0.002  0.00  0.00    -0.153 OA
ATOM     11  O   UNL     1       1.172   2.195   0.003  0.00  0.00    -0.153 OA
BRANCH   9  12
ATOM     12  N   UNL     1      -0.897   1.885  -1.312  0.00  0.00    -0.172 NA
ATOM     13  C   UNL     1      -1.888   0.984  -1.921  0.00  0.00    +0.140 C 
ATOM     14  C   UNL     1      -3.209   1.756  -2.073  0.00  0.00    +0.131 C 
ATOM     15  O   UNL     1      -2.958   2.982  -2.764  0.00  0.00    -0.371 OA
ATOM     16  C   UNL     1      -2.082   3.875  -2.072  0.00  0.00    +0.131 C 
ATOM     17  C   UNL     1      -0.708   3.214  -1.917  0.00  0.00    +0.140 C 
ATOM     18  C   UNL     1      -2.658   4.188  -0.690  0.00  0.00    +0.039 C 
ATOM     19  C   UNL     1      -4.204   0.912  -2.873  0.00  0.00    +0.039 C 
ENDBRANCH   9  12
ENDBRANCH   5   9
BRANCH   3  20
ATOM     20  N   UNL     1      -1.230   4.785   3.696  0.00  0.00    -0.358 N 
ATOM     21  H   UNL     1      -0.499   5.477   3.251  0.00  0.00    +0.142 HD
ATOM     22  H   UNL     1      -1.798   5.086   4.588  0.00  0.00    +0.142 HD
ENDBRANCH   3  20
TORSDOF 3
