REMARK  Name = ZINC42587903
REMARK  7 active torsions:
REMARK  status: ('A' for Active; 'I' for Inactive)
REMARK    1  A    between atoms: C_1  and  C_2
REMARK    2  A    between atoms: C_2  and  C_4
REMARK    3  A    between atoms: C_2  and  N_10
REMARK    4  A    between atoms: N_10  and  C_11
REMARK    5  A    between atoms: C_11  and  C_13
REMARK    6  A    between atoms: C_11  and  C_14
REMARK    7  A    between atoms: N_19  and  C_20
REMARK                            x       y       z     vdW  Elec       q    Type
REMARK                         _______ _______ _______ _____ _____    ______ ____
ROOT
ATOM      1  N   UNL     1       0.713  -0.491   1.192  0.00  0.00    +0.391 N 
ATOM      2  H   UNL     1       0.290  -0.099   2.020  0.00  0.00    -0.084 HD
ATOM      3  H   UNL     1       0.655  -1.497   1.230  0.00  0.00    -0.084 HD
ENDROOT
BRANCH   1   5
ATOM      4  C   UNL     1      -0.019   1.526   0.010  0.00  0.00    -0.008 C 
ATOM      5  C   UNL     1       0.002  -0.004   0.002  0.00  0.00    -0.036 C 
BRANCH   5   6
ATOM      6  C   UNL     1      -1.412  -0.526   0.013  0.00  0.00    -0.023 A 
ATOM      7  C   UNL     1      -2.157  -0.992  -1.019  0.00  0.00    +0.011 A 
ATOM      8  C   UNL     1      -3.447  -1.424  -0.772  0.00  0.00    +0.028 A 
ATOM      9  C   UNL     1      -3.928  -1.369   0.495  0.00  0.00    +0.078 A 
ATOM     10  S   UNL     1      -2.536  -0.697   1.389  0.00  0.00    -0.083 S 
ATOM     11 CL   UNL     1      -5.489  -1.836   1.093  0.00  0.00    -0.076 Cl
ENDBRANCH   5   6
ENDBRANCH   1   5
BRANCH   1  12
ATOM     12  C   UNL     1       2.122  -0.083   1.122  0.00  0.00    +0.014 C 
ATOM     13  C   UNL     1       2.796  -0.777  -0.064  0.00  0.00    -0.004 C 
BRANCH  12  14
ATOM     14  C   UNL     1       2.822  -0.474   2.398  0.00  0.00    +0.206 C 
ATOM     15  O   UNL     1       2.208  -1.038   3.278  0.00  0.00    -0.277 OA
ATOM     16  N   UNL     1       4.132  -0.198   2.560  0.00  0.00    -0.242 N 
ATOM     17  C   UNL     1       4.758  -0.548   3.700  0.00  0.00    +0.306 C 
ATOM     18  O   UNL     1       4.142  -1.113   4.583  0.00  0.00    -0.252 OA
ATOM     19  N   UNL     1       6.067  -0.272   3.862  0.00  0.00    -0.302 N 
ATOM     20  C   UNL     1       6.748  -0.653   5.102  0.00  0.00    +0.129 C 
ATOM     21  H   UNL     1       4.623   0.253   1.855  0.00  0.00    +0.159 HD
ATOM     22  H   UNL     1       6.559   0.178   3.158  0.00  0.00    +0.150 HD
ENDBRANCH  12  14
ENDBRANCH   1  12
TORSDOF 4
