REMARK  Name = ZINC04517221
REMARK  7 active torsions:
REMARK  status: ('A' for Active; 'I' for Inactive)
REMARK    1  A    between atoms: C_1  and  C_2
REMARK    2  A    between atoms: C_3  and  C_20
REMARK    3  A    between atoms: C_12  and  N_16
REMARK    4  A    between atoms: C_13  and  C_14
REMARK    5  A    between atoms: C_20  and  O_22
REMARK    6  A    between atoms: O_22  and  C_23
REMARK    7  A    between atoms: C_23  and  C_24
REMARK                            x       y       z     vdW  Elec       q    Type
REMARK                         _______ _______ _______ _____ _____    ______ ____
ROOT
ATOM      1  C   UNL     1       1.875  -3.725   2.193  0.00  0.00    +0.061 C 
ATOM      2  C   UNL     1       1.628  -2.704   1.112  0.00  0.00    +0.019 C 
ATOM      3  C   UNL     1       1.574  -1.376   1.331  0.00  0.00    +0.078 C 
ATOM      4  C   UNL     1       1.309  -0.744  -0.016  0.00  0.00    +0.148 C 
ATOM      5  C   UNL     1       0.002  -0.004   0.002  0.00  0.00    +0.020 A 
ATOM      6  C   UNL     1      -1.188  -0.710   0.012  0.00  0.00    +0.009 A 
ATOM      7  C   UNL     1      -2.394  -0.037   0.030  0.00  0.00    +0.001 A 
ATOM      8  C   UNL     1      -2.417   1.346   0.038  0.00  0.00    +0.004 A 
ATOM      9  C   UNL     1      -1.233   2.055   0.031  0.00  0.00    +0.046 A 
ATOM     10  C   UNL     1      -0.017   1.383   0.010  0.00  0.00    +0.135 A 
ATOM     11  O   UNL     1       1.138   2.093   0.002  0.00  0.00    -0.441 OA
ATOM     12  C   UNL     1       2.289   1.513  -0.374  0.00  0.00    +0.199 C 
ATOM     13  C   UNL     1       2.436   0.165  -0.403  0.00  0.00    +0.110 C 
ATOM     14  C   UNL     1       1.232  -1.922  -0.961  0.00  0.00    +0.238 C 
ATOM     15  O   UNL     1       1.032  -1.889  -2.156  0.00  0.00    -0.274 OA
ATOM     16  N   UNL     1       1.432  -3.017  -0.201  0.00  0.00    -0.288 N 
ATOM     17  H   UNL     1       1.437  -3.923  -0.547  0.00  0.00    +0.155 HD
ENDROOT
BRANCH  12  18
ATOM     18  N   UNL     1       3.347   2.307  -0.739  0.00  0.00    -0.328 N 
ATOM     19  H   UNL     1       4.185   1.902  -1.013  0.00  0.00    +0.145 HD
ATOM     20  H   UNL     1       3.257   3.272  -0.724  0.00  0.00    +0.145 HD
ENDBRANCH  12  18
BRANCH  13  21
ATOM     21  C   UNL     1       3.688  -0.398  -0.809  0.00  0.00    +0.102 C 
ATOM     22  N   UNL     1       4.682  -0.845  -1.131  0.00  0.00    -0.191 NA
ENDBRANCH  13  21
BRANCH   3  23
ATOM     23  C   UNL     1       1.735  -0.708   2.569  0.00  0.00    +0.339 C 
ATOM     24  O   UNL     1       1.946  -1.348   3.582  0.00  0.00    -0.245 OA
BRANCH  23  25
ATOM     25  O   UNL     1       1.654   0.637   2.625  0.00  0.00    -0.457 OA
BRANCH  25  26
ATOM     26  C   UNL     1       1.826   1.244   3.908  0.00  0.00    +0.259 C 
BRANCH  26  27
ATOM     27  C   UNL     1       1.704   2.741   3.775  0.00  0.00    +0.006 C 
ATOM     28  C   UNL     1       0.986   3.418   4.637  0.00  0.00    +0.007 C 
ENDBRANCH  26  27
ENDBRANCH  25  26
ENDBRANCH  23  25
ENDBRANCH   3  23
TORSDOF 6
