REMARK  Name = ZINC54552282
REMARK  5 active torsions:
REMARK  status: ('A' for Active; 'I' for Inactive)
REMARK    1  A    between atoms: C_1  and  C_2
REMARK    2  A    between atoms: C_2  and  C_3
REMARK    3  A    between atoms: C_7  and  C_21
REMARK    4  A    between atoms: C_12  and  C_18
REMARK    5  A    between atoms: C_15  and  C_17
REMARK                            x       y       z     vdW  Elec       q    Type
REMARK                         _______ _______ _______ _____ _____    ______ ____
ROOT
ATOM      1  C   UNL     1      -1.388  -0.733  -0.094  0.00  0.00    +0.100 C 
ATOM      2  C   UNL     1      -1.345  -2.261   0.017  0.00  0.00    +0.182 C 
ATOM      3  O   UNL     1      -2.662  -2.784  -0.171  0.00  0.00    -0.373 OA
ATOM      4  C   UNL     1      -3.218  -2.518  -1.461  0.00  0.00    +0.132 C 
ATOM      5  C   UNL     1      -3.357  -1.003  -1.649  0.00  0.00    +0.138 C 
ATOM      6  N   UNL     1      -2.058  -0.378  -1.355  0.00  0.00    -0.308 N 
ATOM      7  C   UNL     1      -1.483   0.516  -2.238  0.00  0.00    +0.114 A 
ATOM      8  C   UNL     1      -1.740   1.893  -2.107  0.00  0.00    +0.101 A 
ATOM      9  C   UNL     1      -1.145   2.780  -3.015  0.00  0.00    +0.020 A 
ATOM     10  C   UNL     1      -0.329   2.258  -4.002  0.00  0.00    +0.022 A 
ATOM     11  C   UNL     1      -0.124   0.891  -4.067  0.00  0.00    +0.014 A 
ATOM     12  N   UNL     1      -0.689   0.073  -3.201  0.00  0.00    -0.346 N 
ATOM     13  C   UNL     1       0.765   0.327  -5.145  0.00  0.00    +0.063 C 
ATOM     14  C   UNL     1      -4.595  -3.176  -1.570  0.00  0.00    +0.039 C 
ATOM     15  H   UNL     1      -0.521  -0.880  -3.272  0.00  0.00    +0.167 HD
ENDROOT
BRANCH   8  16
ATOM     16  C   UNL     1      -2.617   2.393  -1.037  0.00  0.00    +0.390 C 
ATOM     17  O   UNL     1      -2.774   3.597  -0.888  0.00  0.00    -0.240 OA
ATOM     18  O   UNL     1      -3.189   1.605  -0.297  0.00  0.00    -0.240 OA
ENDBRANCH   8  16
BRANCH   1  20
ATOM     19  C   UNL     1       0.679  -0.422   1.274  0.00  0.00    +0.006 C 
ATOM     20  C   UNL     1       0.037  -0.176  -0.093  0.00  0.00    +0.021 C 
ENDBRANCH   1  20
TORSDOF 2
