REMARK  Name = ZINC39883617
REMARK  10 active torsions:
REMARK  status: ('A' for Active; 'I' for Inactive)
REMARK    1  A    between atoms: C_1  and  C_2
REMARK    2  A    between atoms: C_5  and  C_8
REMARK    3  A    between atoms: C_8  and  N_9
REMARK    4  A    between atoms: N_9  and  C_10
REMARK    5  A    between atoms: C_18  and  C_20
REMARK    6  A    between atoms: C_20  and  C_21
REMARK    7  A    between atoms: C_27  and  C_30
REMARK    8  A    between atoms: C_30  and  C_31
REMARK    9  A    between atoms: C_30  and  C_32
REMARK   10  A    between atoms: C_30  and  C_33
REMARK                            x       y       z     vdW  Elec       q    Type
REMARK                         _______ _______ _______ _____ _____    ______ ____
ROOT
ATOM      1  N   UNL     1       1.402  -4.717  -0.125  0.00  0.00    -0.292 N 
ATOM      2  C   UNL     1       2.171  -4.809  -1.227  0.00  0.00    +0.221 C 
ATOM      3  O   UNL     1       1.674  -4.680  -2.326  0.00  0.00    -0.275 OA
ENDROOT
BRANCH   1   4
ATOM      4  C   UNL     1       1.979  -4.984   1.195  0.00  0.00    +0.099 C 
ATOM      5  C   UNL     1       0.942  -4.653   2.282  0.00  0.00    +0.046 C 
ATOM      6  C   UNL     1       1.454  -5.232   3.632  0.00  0.00    +0.168 C 
ATOM      7  S   UNL     1       2.126  -6.853   3.070  0.00  0.00    -0.029 S 
ATOM      8  O   UNL     1       1.113  -7.841   3.191  0.00  0.00    -0.174 OA
ATOM      9  O   UNL     1       3.389  -7.067   3.684  0.00  0.00    -0.174 OA
ATOM     10  C   UNL     1       2.381  -6.476   1.289  0.00  0.00    +0.188 C 
ENDBRANCH   1   4
BRANCH   1  11
ATOM     11  C   UNL     1      -0.011  -4.352  -0.246  0.00  0.00    +0.143 C 
BRANCH  11  16
ATOM     12  C   UNL     1      -0.503   1.402  -0.467  0.00  0.00    +0.044 C 
ATOM     13  C   UNL     1      -0.375  -0.099  -0.409  0.00  0.00    -0.050 A 
ATOM     14  C   UNL     1      -0.089  -0.812  -1.558  0.00  0.00    +0.003 A 
ATOM     15  C   UNL     1       0.029  -2.189  -1.505  0.00  0.00    +0.005 A 
ATOM     16  C   UNL     1      -0.139  -2.851  -0.303  0.00  0.00    -0.030 A 
ATOM     17  C   UNL     1      -0.424  -2.137   0.845  0.00  0.00    +0.005 A 
ATOM     18  C   UNL     1      -0.538  -0.761   0.793  0.00  0.00    +0.003 A 
ENDBRANCH  11  16
ENDBRANCH   1  11
BRANCH   2  19
ATOM     19  C   UNL     1       3.650  -5.071  -1.095  0.00  0.00    +0.134 C 
BRANCH  19  20
ATOM     20  C   UNL     1       4.300  -4.976  -2.451  0.00  0.00    +0.007 A 
ATOM     21  C   UNL     1       4.554  -5.986  -3.294  0.00  0.00    +0.200 A 
ATOM     22  O   UNL     1       5.143  -5.522  -4.410  0.00  0.00    -0.463 OA
ATOM     23  C   UNL     1       5.302  -4.184  -4.349  0.00  0.00    +0.135 A 
ATOM     24  C   UNL     1       4.777  -3.758  -3.117  0.00  0.00    +0.024 A 
ATOM     25  C   UNL     1       4.799  -2.407  -2.776  0.00  0.00    +0.016 A 
ATOM     26  C   UNL     1       5.336  -1.492  -3.656  0.00  0.00    -0.041 A 
ATOM     27  C   UNL     1       5.851  -1.912  -4.873  0.00  0.00    +0.008 A 
ATOM     28  C   UNL     1       5.842  -3.246  -5.219  0.00  0.00    +0.047 A 
BRANCH  26  29
ATOM     29  C   UNL     1       5.364  -0.030  -3.293  0.00  0.00    -0.013 C 
ATOM     30  C   UNL     1       6.178   0.164  -2.013  0.00  0.00    +0.015 C 
ATOM     31  C   UNL     1       6.006   0.766  -4.431  0.00  0.00    +0.015 C 
ATOM     32  C   UNL     1       3.934   0.467  -3.068  0.00  0.00    +0.015 C 
ENDBRANCH  26  29
ENDBRANCH  19  20
ENDBRANCH   2  19
TORSDOF 6
