REMARK  Name = ZINC35027115
REMARK  7 active torsions:
REMARK  status: ('A' for Active; 'I' for Inactive)
REMARK    1  A    between atoms: C_1  and  C_2
REMARK    2  A    between atoms: C_2  and  N_3
REMARK    3  A    between atoms: C_13  and  C_14
REMARK    4  A    between atoms: C_14  and  C_16
REMARK    5  A    between atoms: C_14  and  N_17
REMARK    6  A    between atoms: N_17  and  C_18
REMARK    7  A    between atoms: N_21  and  C_22
REMARK                            x       y       z     vdW  Elec       q    Type
REMARK                         _______ _______ _______ _____ _____    ______ ____
ROOT
ATOM      1  N   UNL     1      -2.068  -0.424   3.835  0.00  0.00    -0.279 N 
ATOM      2  C   UNL     1      -2.174  -1.704   4.539  0.00  0.00    +0.134 C 
ATOM      3  C   UNL     1      -2.549   0.700   4.403  0.00  0.00    +0.303 C 
ATOM      4  O   UNL     1      -2.461   1.762   3.819  0.00  0.00    -0.253 OA
ATOM      5  N   UNL     1      -3.128   0.645   5.619  0.00  0.00    -0.294 N 
ATOM      6  H   UNL     1      -3.199  -0.203   6.085  0.00  0.00    +0.151 HD
ENDROOT
BRANCH   5   7
ATOM      7  C   UNL     1      -3.651   1.866   6.237  0.00  0.00    +0.037 C 
ATOM      8  C   UNL     1      -2.515   2.875   6.414  0.00  0.00    +0.029 C 
ATOM      9  C   UNL     1      -3.061   4.151   7.059  0.00  0.00    -0.008 C 
ATOM     10  C   UNL     1      -3.661   3.814   8.425  0.00  0.00    +0.007 C 
ATOM     11  C   UNL     1      -4.798   2.805   8.249  0.00  0.00    -0.008 C 
ATOM     12  C   UNL     1      -4.251   1.530   7.603  0.00  0.00    +0.029 C 
ATOM     13  C   UNL     1      -5.880   3.408   7.351  0.00  0.00    +0.007 C 
ATOM     14  C   UNL     1      -5.280   3.744   5.984  0.00  0.00    -0.008 C 
ATOM     15  C   UNL     1      -4.143   4.753   6.161  0.00  0.00    +0.007 C 
ATOM     16  C   UNL     1      -4.733   2.469   5.339  0.00  0.00    +0.029 C 
ENDBRANCH   5   7
BRANCH   1  17
ATOM     17  C   UNL     1      -1.439  -0.364   2.513  0.00  0.00    +0.140 C 
ATOM     18  C   UNL     1      -2.211  -1.258   1.540  0.00  0.00    +0.036 C 
BRANCH  17  29
ATOM     19  N   UNL     1       0.922  -0.253   1.826  0.00  0.00    -0.295 N 
ATOM     20  C   UNL     1       2.217  -0.644   1.882  0.00  0.00    +0.262 A 
ATOM     21  O   UNL     1       3.067  -0.119   1.186  0.00  0.00    -0.267 OA
ATOM     22  C   UNL     1       2.557  -1.726   2.818  0.00  0.00    +0.065 A 
ATOM     23  C   UNL     1       3.860  -2.201   2.953  0.00  0.00    +0.015 A 
ATOM     24  C   UNL     1       4.123  -3.217   3.846  0.00  0.00    +0.001 A 
ATOM     25  C   UNL     1       3.102  -3.768   4.609  0.00  0.00    +0.002 A 
ATOM     26  C   UNL     1       1.808  -3.313   4.490  0.00  0.00    +0.028 A 
ATOM     27  C   UNL     1       1.516  -2.284   3.593  0.00  0.00    +0.078 A 
ATOM     28  N   UNL     1       0.256  -1.805   3.444  0.00  0.00    -0.232 NA
ATOM     29  C   UNL     1      -0.014  -0.844   2.614  0.00  0.00    +0.133 A 
BRANCH  19  31
ATOM     30  C   UNL     1       0.620   2.166   1.633  0.00  0.00    +0.027 C 
ATOM     31  C   UNL     1       0.527   0.821   0.911  0.00  0.00    +0.123 C 
ENDBRANCH  19  31
ENDBRANCH  17  29
ENDBRANCH   1  17
TORSDOF 4
