REMARK  Name = ZINC02341889
REMARK  4 active torsions:
REMARK  status: ('A' for Active; 'I' for Inactive)
REMARK    1  A    between atoms: C_4  and  N_7
REMARK    2  A    between atoms: C_13  and  S_20
REMARK    3  A    between atoms: S_20  and  C_21
REMARK    4  A    between atoms: C_21  and  C_22
REMARK                            x       y       z     vdW  Elec       q    Type
REMARK                         _______ _______ _______ _____ _____    ______ ____
ROOT
ATOM      1  N   UNL     1      -2.596  12.607  -1.770  0.00  0.00    -0.229 N 
ATOM      2  C   UNL     1      -2.082  11.832  -0.789  0.00  0.00    +0.272 A 
ATOM      3  O   UNL     1      -1.634  12.325   0.228  0.00  0.00    -0.266 OA
ATOM      4  C   UNL     1      -2.078  10.377  -0.988  0.00  0.00    +0.100 A 
ATOM      5  C   UNL     1      -1.571   9.491  -0.040  0.00  0.00    +0.130 A 
ATOM      6  N   UNL     1      -1.614   8.196  -0.304  0.00  0.00    -0.229 NA
ATOM      7  C   UNL     1      -2.117   7.743  -1.447  0.00  0.00    +0.190 A 
ATOM      8  N   UNL     1      -2.611   8.552  -2.377  0.00  0.00    -0.204 NA
ATOM      9  C   UNL     1      -2.610   9.861  -2.190  0.00  0.00    +0.152 A 
ATOM     10  N   UNL     1      -3.110  10.742  -3.124  0.00  0.00    -0.291 N 
ATOM     11  H   UNL     1      -3.490  10.393  -3.981  0.00  0.00    +0.172 HD
ATOM     12  C   UNL     1      -3.091  12.067  -2.896  0.00  0.00    +0.335 A 
ATOM     13  O   UNL     1      -3.541  12.810  -3.746  0.00  0.00    -0.246 OA
ENDROOT
BRANCH   1  17
ATOM     14  C   UNL     1      -2.646  16.747  -1.292  0.00  0.00    +0.000 A 
ATOM     15  C   UNL     1      -3.718  15.989  -0.858  0.00  0.00    +0.002 A 
ATOM     16  C   UNL     1      -3.705  14.617  -1.016  0.00  0.00    +0.026 A 
ATOM     17  C   UNL     1      -2.613  13.999  -1.610  0.00  0.00    +0.054 A 
ATOM     18  C   UNL     1      -1.535  14.761  -2.039  0.00  0.00    +0.026 A 
ATOM     19  C   UNL     1      -1.557  16.134  -1.885  0.00  0.00    +0.002 A 
ENDBRANCH   1  17
BRANCH   7  20
ATOM     20  S   UNL     1      -2.138   6.005  -1.737  0.00  0.00    -0.081 S 
BRANCH  20  21
ATOM     21  C   UNL     1      -1.374   5.422  -0.203  0.00  0.00    +0.113 C 
BRANCH  21  22
ATOM     22  C   UNL     1      -1.285   3.918  -0.226  0.00  0.00    -0.029 A 
ATOM     23  C   UNL     1      -2.306   3.164   0.265  0.00  0.00    +0.005 A 
ATOM     24  C   UNL     1      -2.241   1.772   0.253  0.00  0.00    +0.001 A 
ATOM     25  C   UNL     1      -1.154   1.126  -0.252  0.00  0.00    +0.008 A 
ATOM     26  C   UNL     1      -0.083   1.871  -0.773  0.00  0.00    -0.018 A 
ATOM     27  C   UNL     1      -0.146   3.287  -0.755  0.00  0.00    -0.014 A 
ATOM     28  C   UNL     1       0.928   4.032  -1.270  0.00  0.00    +0.009 A 
ATOM     29  C   UNL     1       2.015   3.385  -1.774  0.00  0.00    +0.001 A 
ATOM     30  C   UNL     1       2.080   1.993  -1.787  0.00  0.00    +0.001 A 
ATOM     31  C   UNL     1       1.059   1.239  -1.297  0.00  0.00    +0.008 A 
ENDBRANCH  21  22
ENDBRANCH  20  21
ENDBRANCH   7  20
TORSDOF 4
