REMARK  Name = ZINC07186575
REMARK  9 active torsions:
REMARK  status: ('A' for Active; 'I' for Inactive)
REMARK    1  A    between atoms: C_1  and  C_2
REMARK    2  A    between atoms: C_2  and  C_4
REMARK    3  A    between atoms: C_2  and  N_19
REMARK    4  A    between atoms: C_4  and  O_6
REMARK    5  A    between atoms: O_6  and  C_7
REMARK    6  A    between atoms: C_7  and  C_8
REMARK    7  A    between atoms: N_10  and  C_11
REMARK    8  A    between atoms: C_12  and  C_16
REMARK    9  A    between atoms: C_20  and  C_22
REMARK                            x       y       z     vdW  Elec       q    Type
REMARK                         _______ _______ _______ _____ _____    ______ ____
ROOT
ATOM      1  O   UNL     1       4.004  -6.076   0.634  0.00  0.00    -0.454 OA
ENDROOT
BRANCH   1   2
ATOM      2  C   UNL     1       3.757  -4.760   0.540  0.00  0.00    +0.328 C 
ATOM      3  O   UNL     1       4.578  -3.962   0.925  0.00  0.00    -0.249 OA
BRANCH   2   5
ATOM      4  C   UNL     1       2.325  -4.782  -1.484  0.00  0.00    +0.040 C 
ATOM      5  C   UNL     1       2.455  -4.278  -0.045  0.00  0.00    +0.179 C 
BRANCH   5   6
ATOM      6  N   UNL     1       2.428  -2.813  -0.037  0.00  0.00    -0.299 N 
ATOM      7  C   UNL     1       1.249  -2.160  -0.022  0.00  0.00    +0.245 C 
ATOM      8  O   UNL     1       0.207  -2.787  -0.016  0.00  0.00    -0.270 OA
ATOM      9  H   UNL     1       3.259  -2.313  -0.042  0.00  0.00    +0.150 HD
BRANCH   7  10
ATOM     10  C   UNL     1       1.222  -0.683  -0.013  0.00  0.00    +0.037 A 
ATOM     11  C   UNL     1       0.002  -0.004   0.002  0.00  0.00    +0.014 A 
ATOM     12  C   UNL     1      -0.017   1.375   0.010  0.00  0.00    +0.021 A 
ATOM     13  C   UNL     1       1.172   2.086   0.002  0.00  0.00    +0.041 A 
ATOM     14  C   UNL     1       2.385   1.419  -0.013  0.00  0.00    +0.021 A 
ATOM     15  C   UNL     1       2.417   0.040  -0.021  0.00  0.00    +0.014 A 
ATOM     16 CL   UNL     1       1.140   3.822   0.011  0.00  0.00    -0.084 Cl
ENDBRANCH   7  10
ENDBRANCH   5   6
ENDBRANCH   2   5
ENDBRANCH   1   2
BRANCH   1  17
ATOM     17  C   UNL     1       5.279  -6.468   1.208  0.00  0.00    +0.328 C 
BRANCH  17  18
ATOM     18  C   UNL     1       5.378  -7.971   1.232  0.00  0.00    +0.255 C 
ATOM     19  O   UNL     1       4.464  -8.646   0.807  0.00  0.00    -0.272 OA
ATOM     20  N   UNL     1       6.482  -8.566   1.726  0.00  0.00    -0.277 N 
ATOM     21  H   UNL     1       7.213  -8.026   2.066  0.00  0.00    +0.155 HD
BRANCH  20  22
ATOM     22  C   UNL     1       6.573  -9.950   1.748  0.00  0.00    +0.084 A 
ATOM     23  C   UNL     1       7.621 -10.739   2.207  0.00  0.00    +0.065 A 
ATOM     24  C   UNL     1       7.447 -12.168   2.114  0.00  0.00    +0.022 A 
ATOM     25  C   UNL     1       6.293 -12.613   1.582  0.00  0.00    +0.048 A 
ATOM     26  S   UNL     1       5.412 -11.113   1.203  0.00  0.00    -0.081 S 
BRANCH  23  27
ATOM     27  C   UNL     1       8.842 -10.148   2.764  0.00  0.00    +0.244 C 
ATOM     28  O   UNL     1       8.956  -8.938   2.831  0.00  0.00    -0.270 OA
ATOM     29  N   UNL     1       9.838 -10.944   3.199  0.00  0.00    -0.325 N 
ATOM     30  H   UNL     1       9.747 -11.908   3.145  0.00  0.00    +0.145 HD
ATOM     31  H   UNL     1      10.646 -10.553   3.567  0.00  0.00    +0.145 HD
ENDBRANCH  23  27
ENDBRANCH  20  22
ENDBRANCH  17  18
ENDBRANCH   1  17
TORSDOF 8
