REMARK  Name = ZINC63804812
REMARK  8 active torsions:
REMARK  status: ('A' for Active; 'I' for Inactive)
REMARK    1  A    between atoms: C_7  and  C_10
REMARK    2  A    between atoms: C_10  and  C_11
REMARK    3  A    between atoms: C_11  and  C_13
REMARK    4  A    between atoms: C_11  and  N_32
REMARK    5  A    between atoms: C_17  and  S_20
REMARK    6  A    between atoms: S_20  and  C_21
REMARK    7  A    between atoms: C_21  and  C_22
REMARK    8  A    between atoms: N_24  and  C_25
REMARK                            x       y       z     vdW  Elec       q    Type
REMARK                         _______ _______ _______ _____ _____    ______ ____
ROOT
ATOM      1  C   UNL     1      -0.377  -4.929  -1.468  0.00  0.00    +0.246 C 
ATOM      2  N   UNL     1      -1.695  -4.640  -0.888  0.00  0.00    -0.159 NA
ATOM      3  N   UNL     1      -2.584  -5.162  -1.573  0.00  0.00    -0.146 NA
ATOM      4  C   UNL     1      -1.991  -5.876  -2.711  0.00  0.00    +0.319 C 
ATOM      5  O   UNL     1      -0.642  -5.371  -2.815  0.00  0.00    -0.320 OA
ENDROOT
BRANCH   1   6
ATOM      6  C   UNL     1       0.485  -3.664  -1.484  0.00  0.00    -0.017 C 
BRANCH   6   7
ATOM      7  N   UNL     1      -0.208  -2.609  -2.235  0.00  0.00    +0.383 N 
ATOM      8  H   UNL     1       0.360  -1.776  -2.246  0.00  0.00    -0.089 HD
ATOM      9  H   UNL     1      -0.367  -2.920  -3.182  0.00  0.00    -0.089 HD
ATOM     10  H   UNL     1      -1.093  -2.408  -1.794  0.00  0.00    -0.089 HD
ENDBRANCH   6   7
BRANCH   6  11
ATOM     11  C   UNL     1       0.726  -3.193  -0.048  0.00  0.00    +0.021 C 
BRANCH  11  18
ATOM     12  C   UNL     1       0.046   1.345  -0.028  0.00  0.00    +0.001 A 
ATOM     13  C   UNL     1       1.232   2.091  -0.041  0.00  0.00    +0.002 A 
ATOM     14  C   UNL     1       2.454   1.518  -0.058  0.00  0.00    +0.026 A 
ATOM     15  C   UNL     1       2.583   0.101  -0.063  0.00  0.00    +0.043 A 
ATOM     16  N   UNL     1       3.637  -0.679  -0.079  0.00  0.00    -0.380 N 
ATOM     17  C   UNL     1       3.185  -2.075  -0.077  0.00  0.00    +0.144 C 
ATOM     18  C   UNL     1       1.674  -2.022  -0.057  0.00  0.00    -0.043 C 
ATOM     19  C   UNL     1       1.345  -0.710  -0.049  0.00  0.00    -0.001 A 
ATOM     20  C   UNL     1       0.056  -0.008  -0.031  0.00  0.00    +0.010 A 
ATOM     21  H   UNL     1       4.561  -0.383  -0.090  0.00  0.00    +0.160 HD
ENDBRANCH  11  18
ENDBRANCH   6  11
ENDBRANCH   1   6
BRANCH   4  22
ATOM     22  S   UNL     1      -1.971  -7.662  -2.391  0.00  0.00    -0.095 S 
BRANCH  22  23
ATOM     23  C   UNL     1      -1.000  -7.824  -0.867  0.00  0.00    +0.169 C 
BRANCH  23  24
ATOM     24  C   UNL     1      -0.905  -9.279  -0.485  0.00  0.00    +0.227 C 
ATOM     25  O   UNL     1      -1.440 -10.123  -1.173  0.00  0.00    -0.275 OA
ATOM     26  N   UNL     1      -0.226  -9.642   0.621  0.00  0.00    -0.285 N 
ATOM     27  H   UNL     1       0.257  -8.975   1.134  0.00  0.00    +0.155 HD
BRANCH  26  28
ATOM     28  C   UNL     1      -0.219 -10.980   1.030  0.00  0.00    +0.033 A 
ATOM     29  C   UNL     1      -0.215 -11.294   2.383  0.00  0.00    +0.024 A 
ATOM     30  C   UNL     1      -0.208 -12.616   2.783  0.00  0.00    +0.017 A 
ATOM     31  C   UNL     1      -0.205 -13.627   1.838  0.00  0.00    +0.018 A 
ATOM     32  C   UNL     1      -0.208 -13.316   0.490  0.00  0.00    +0.017 A 
ATOM     33  C   UNL     1      -0.221 -11.996   0.084  0.00  0.00    +0.024 A 
ATOM     34 BR   UNL     1      -0.195 -15.435   2.391  0.00  0.00    -0.050 Br
ENDBRANCH  26  28
ENDBRANCH  23  24
ENDBRANCH  22  23
ENDBRANCH   4  22
TORSDOF 8
