REMARK  Name = ZINC15002963
REMARK  2 active torsions:
REMARK  status: ('A' for Active; 'I' for Inactive)
REMARK    1  A    between atoms: C_8  and  C_12
REMARK    2  A    between atoms: N_14  and  C_15
REMARK                            x       y       z     vdW  Elec       q    Type
REMARK                         _______ _______ _______ _____ _____    ______ ____
ROOT
ATOM      1  C   UNL     1       2.425  -0.241   0.081  0.00  0.00    +0.255 C 
ATOM      2  O   UNL     1       1.383  -0.868   0.088  0.00  0.00    -0.270 OA
ATOM      3  N   UNL     1       2.403   1.103  -0.014  0.00  0.00    -0.279 N 
ATOM      4  H   UNL     1       3.234   1.598  -0.085  0.00  0.00    +0.155 HD
ENDROOT
BRANCH   1  12
ATOM      5  C   UNL     1       8.515  -1.000   0.352  0.00  0.00    +0.001 A 
ATOM      6  C   UNL     1       8.496  -2.385   0.448  0.00  0.00    +0.004 A 
ATOM      7  C   UNL     1       7.301  -3.072   0.453  0.00  0.00    +0.047 A 
ATOM      8  C   UNL     1       6.099  -2.378   0.362  0.00  0.00    +0.139 A 
ATOM      9  C   UNL     1       6.121  -0.975   0.265  0.00  0.00    +0.018 A 
ATOM     10  C   UNL     1       7.349  -0.296   0.262  0.00  0.00    +0.011 A 
ATOM     11  C   UNL     1       4.906  -0.251   0.165  0.00  0.00    +0.031 A 
ATOM     12  C   UNL     1       3.712  -0.951   0.177  0.00  0.00    +0.122 A 
ATOM     13  C   UNL     1       3.751  -2.414   0.281  0.00  0.00    +0.350 A 
ATOM     14  O   UNL     1       2.714  -3.050   0.289  0.00  0.00    -0.244 OA
ATOM     15  O   UNL     1       4.930  -3.053   0.368  0.00  0.00    -0.422 OA
ENDBRANCH   1  12
BRANCH   3  16
ATOM     16  C   UNL     1       1.180   1.785  -0.011  0.00  0.00    +0.072 A 
ATOM     17  C   UNL     1       0.064   1.214  -0.608  0.00  0.00    +0.029 A 
ATOM     18  C   UNL     1      -1.141   1.890  -0.609  0.00  0.00    +0.043 A 
ATOM     19  C   UNL     1      -1.242   3.132  -0.005  0.00  0.00    +0.161 A 
ATOM     20  C   UNL     1      -0.130   3.706   0.593  0.00  0.00    +0.195 A 
ATOM     21  C   UNL     1       1.081   3.034   0.591  0.00  0.00    +0.182 A 
ATOM     22  F   UNL     1       2.165   3.592   1.173  0.00  0.00    -0.200 F 
ATOM     23  F   UNL     1      -0.228   4.920   1.176  0.00  0.00    -0.199 F 
ATOM     24  F   UNL     1      -2.423   3.788  -0.003  0.00  0.00    -0.202 F 
ENDBRANCH   3  16
TORSDOF 2
