REMARK  Name = ZINC15722987
REMARK  4 active torsions:
REMARK  status: ('A' for Active; 'I' for Inactive)
REMARK    1  A    between atoms: C_1  and  C_2
REMARK    2  A    between atoms: C_7  and  N_12
REMARK    3  A    between atoms: C_9  and  C_11
REMARK    4  A    between atoms: C_13  and  C_15
REMARK                            x       y       z     vdW  Elec       q    Type
REMARK                         _______ _______ _______ _____ _____    ______ ____
ROOT
ATOM      1  C   UNL     1      -1.021  -0.972   0.003  0.00  0.00    +0.100 A 
ATOM      2  C   UNL     1      -0.393  -2.230  -0.008  0.00  0.00    +0.150 A 
ATOM      3  N   UNL     1       0.903  -2.052  -0.015  0.00  0.00    -0.172 NA
ATOM      4  N   UNL     1       1.185  -0.682  -0.009  0.00  0.00    -0.218 N 
ATOM      5  C   UNL     1       0.002  -0.004   0.002  0.00  0.00    +0.168 A 
ATOM      6  N   UNL     1      -0.016   1.329   0.009  0.00  0.00    -0.235 NA
ATOM      7  C   UNL     1       1.104   2.014   0.002  0.00  0.00    +0.118 A 
ATOM      8  C   UNL     1       2.345   1.353  -0.011  0.00  0.00    -0.008 A 
ATOM      9  C   UNL     1       2.370   0.003  -0.012  0.00  0.00    +0.050 A 
ATOM     10  C   UNL     1       3.647  -0.792  -0.007  0.00  0.00    +0.056 C 
ATOM     11  C   UNL     1       4.825   0.079  -0.440  0.00  0.00    +0.006 C 
ATOM     12  C   UNL     1       4.805   1.365   0.396  0.00  0.00    +0.005 C 
ATOM     13  C   UNL     1       3.594   2.194  -0.027  0.00  0.00    +0.038 C 
ENDROOT
BRANCH   1  15
ATOM     14  N   UNL     1      -3.331  -1.748   0.015  0.00  0.00    -0.308 N 
ATOM     15  C   UNL     1      -2.464  -0.716   0.015  0.00  0.00    +0.249 C 
ATOM     16  O   UNL     1      -2.880   0.428   0.025  0.00  0.00    -0.270 OA
ATOM     17  H   UNL     1      -3.000  -2.660   0.007  0.00  0.00    +0.149 HD
BRANCH  14  23
ATOM     18  C   UNL     1      -7.317  -1.164  -1.391  0.00  0.00    +0.008 C 
ATOM     19  C   UNL     1      -7.014  -2.421  -0.573  0.00  0.00    -0.009 C 
ATOM     20  C   UNL     1      -7.485  -2.217   0.869  0.00  0.00    +0.003 C 
ATOM     21  C   UNL     1      -6.750  -1.023   1.480  0.00  0.00    +0.002 C 
ATOM     22  C   UNL     1      -5.244  -1.289   1.468  0.00  0.00    +0.022 C 
ATOM     23  C   UNL     1      -4.774  -1.493   0.026  0.00  0.00    +0.076 C 
ATOM     24  C   UNL     1      -5.508  -2.688  -0.585  0.00  0.00    +0.009 C 
ATOM     25  C   UNL     1      -5.038  -2.892  -2.027  0.00  0.00    +0.009 C 
ENDBRANCH  14  23
ENDBRANCH   1  15
TORSDOF 2
