REMARK  Name = ZINC16672237
REMARK  9 active torsions:
REMARK  status: ('A' for Active; 'I' for Inactive)
REMARK    1  A    between atoms: C_1  and  O_2
REMARK    2  A    between atoms: O_2  and  C_3
REMARK    3  A    between atoms: C_8  and  O_9
REMARK    4  A    between atoms: O_9  and  C_10
REMARK    5  A    between atoms: C_11  and  C_27
REMARK    6  A    between atoms: N_13  and  C_16
REMARK    7  A    between atoms: C_16  and  C_17
REMARK    8  A    between atoms: C_19  and  N_24
REMARK    9  A    between atoms: C_22  and  O_23
REMARK                            x       y       z     vdW  Elec       q    Type
REMARK                         _______ _______ _______ _____ _____    ______ ____
ROOT
ATOM      1  C   UNL     1      -1.115  -1.106  -0.956  0.00  0.00    +0.162 A 
ATOM      2  C   UNL     1      -2.223  -0.283  -0.843  0.00  0.00    +0.053 A 
ATOM      3  C   UNL     1      -3.479  -0.826  -0.621  0.00  0.00    -0.037 A 
ATOM      4  C   UNL     1      -3.630  -2.192  -0.509  0.00  0.00    -0.019 A 
ATOM      5  C   UNL     1      -2.523  -3.021  -0.625  0.00  0.00    +0.055 A 
ATOM      6  C   UNL     1      -1.268  -2.485  -0.853  0.00  0.00    +0.162 A 
ATOM      7  C   UNL     1      -4.973  -2.825  -0.255  0.00  0.00    +0.118 C 
ATOM      8  N   UNL     1      -6.052  -1.883  -0.567  0.00  0.00    -0.287 NA
ATOM      9  C   UNL     1      -5.837  -0.610   0.139  0.00  0.00    +0.090 C 
ATOM     10  C   UNL     1      -4.655   0.111  -0.510  0.00  0.00    +0.051 C 
ENDROOT
BRANCH   7  11
ATOM     11  C   UNL     1      -5.117  -4.050  -1.121  0.00  0.00    -0.024 A 
ATOM     12  C   UNL     1      -5.461  -3.918  -2.454  0.00  0.00    +0.005 A 
ATOM     13  C   UNL     1      -5.593  -5.041  -3.249  0.00  0.00    +0.002 A 
ATOM     14  C   UNL     1      -5.382  -6.297  -2.712  0.00  0.00    +0.020 A 
ATOM     15  C   UNL     1      -5.038  -6.430  -1.379  0.00  0.00    +0.041 A 
ATOM     16  C   UNL     1      -4.900  -5.305  -0.585  0.00  0.00    +0.025 A 
ATOM     17 CL   UNL     1      -4.774  -8.007  -0.703  0.00  0.00    -0.084 Cl
ENDBRANCH   7  11
BRANCH   1  19
ATOM     18  C   UNL     1       0.194   0.855  -1.267  0.00  0.00    +0.277 C 
ATOM     19  O   UNL     1       0.115  -0.569  -1.173  0.00  0.00    -0.491 OA
ENDBRANCH   1  19
BRANCH   6  20
ATOM     20  O   UNL     1      -0.188  -3.302  -0.971  0.00  0.00    -0.491 OA
ATOM     21  C   UNL     1      -0.421  -4.707  -0.854  0.00  0.00    +0.277 C 
ENDBRANCH   6  20
BRANCH   8  22
ATOM     22  C   UNL     1      -7.364  -2.455  -0.234  0.00  0.00    +0.124 C 
BRANCH  22  23
ATOM     23  C   UNL     1      -8.453  -1.560  -0.766  0.00  0.00    +0.010 A 
ATOM     24  C   UNL     1      -9.174  -0.759   0.098  0.00  0.00    +0.041 A 
ATOM     25  C   UNL     1     -10.172   0.063  -0.390  0.00  0.00    +0.127 A 
ATOM     26  C   UNL     1     -10.453   0.085  -1.744  0.00  0.00    +0.036 A 
ATOM     27  C   UNL     1      -9.735  -0.714  -2.612  0.00  0.00    +0.048 A 
ATOM     28  C   UNL     1      -8.728  -1.535  -2.126  0.00  0.00    +0.121 A 
BRANCH  25  29
ATOM     29  N   UNL     1     -10.944   0.919   0.539  0.00  0.00    +0.056 N 
ATOM     30  O   UNL     1     -10.700   0.900   1.723  0.00  0.00    -0.126 OA
ATOM     31  O   UNL     1     -11.818   1.638   0.113  0.00  0.00    -0.126 OA
ENDBRANCH  25  29
BRANCH  28  32
ATOM     32  O   UNL     1      -8.017  -2.318  -2.979  0.00  0.00    -0.506 OA
ATOM     33  H   UNL     1      -8.438  -3.165  -3.179  0.00  0.00    +0.292 HD
ENDBRANCH  28  32
ENDBRANCH  22  23
ENDBRANCH   8  22
TORSDOF 7
