REMARK  Name = ZINC04852600
REMARK  7 active torsions:
REMARK  status: ('A' for Active; 'I' for Inactive)
REMARK    1  A    between atoms: C_1  and  C_2
REMARK    2  A    between atoms: C_6  and  C_7
REMARK    3  A    between atoms: N_9  and  C_10
REMARK    4  A    between atoms: C_10  and  C_11
REMARK    5  A    between atoms: C_17  and  C_22
REMARK    6  A    between atoms: C_17  and  C_23
REMARK    7  A    between atoms: C_19  and  O_21
REMARK                            x       y       z     vdW  Elec       q    Type
REMARK                         _______ _______ _______ _____ _____    ______ ____
ROOT
ATOM      1  C   UNL     1       0.318   4.362  -0.193  0.00  0.00    +0.048 C 
ATOM      2  C   UNL     1       1.484   3.408  -0.162  0.00  0.00    +0.006 A 
ATOM      3  C   UNL     1       2.810   3.719   0.148  0.00  0.00    +0.025 A 
ATOM      4  C   UNL     1       3.528   2.572   0.058  0.00  0.00    +0.112 A 
ATOM      5  O   UNL     1       2.704   1.580  -0.288  0.00  0.00    -0.454 OA
ATOM      6  C   UNL     1       1.452   2.067  -0.431  0.00  0.00    +0.193 A 
ATOM      7  C   UNL     1       5.012   2.488   0.322  0.00  0.00    +0.081 C 
ATOM      8  C   UNL     1       5.441   3.746   1.086  0.00  0.00    -0.025 C 
ATOM      9  C   UNL     1       4.913   4.989   0.364  0.00  0.00    +0.043 C 
ATOM     10  C   UNL     1       3.389   5.060   0.518  0.00  0.00    +0.149 C 
ATOM     11  C   UNL     1       6.968   3.806   1.153  0.00  0.00    +0.011 C 
ATOM     12  C   UNL     1       4.870   3.700   2.505  0.00  0.00    +0.011 C 
ENDROOT
BRANCH   6  13
ATOM     13  C   UNL     1       0.264   1.292  -0.805  0.00  0.00    +0.280 C 
ATOM     14  O   UNL     1      -0.816   1.844  -0.903  0.00  0.00    -0.267 OA
ATOM     15  N   UNL     1       0.370  -0.030  -1.045  0.00  0.00    -0.302 N 
ATOM     16  H   UNL     1       1.232  -0.469  -0.971  0.00  0.00    +0.150 HD
BRANCH  15  17
ATOM     17  C   UNL     1      -0.816  -0.804  -1.419  0.00  0.00    +0.179 C 
BRANCH  17  18
ATOM     18  C   UNL     1      -0.430  -2.245  -1.630  0.00  0.00    +0.122 A 
ATOM     19  C   UNL     1      -0.424  -3.204  -0.687  0.00  0.00    +0.046 A 
ATOM     20  C   UNL     1       0.001  -4.396  -1.318  0.00  0.00    +0.041 A 
ATOM     21  C   UNL     1       0.230  -4.094  -2.608  0.00  0.00    +0.195 A 
ATOM     22  O   UNL     1      -0.038  -2.791  -2.793  0.00  0.00    -0.466 OA
ENDBRANCH  17  18
ENDBRANCH  15  17
ENDBRANCH   6  13
BRANCH  10  23
ATOM     23  O   UNL     1       2.863   6.067  -0.349  0.00  0.00    -0.387 OA
ATOM     24  H   UNL     1       1.926   6.259  -0.207  0.00  0.00    +0.210 HD
ENDBRANCH  10  23
TORSDOF 4
