REMARK  Name = ZINC21224284
REMARK  5 active torsions:
REMARK  status: ('A' for Active; 'I' for Inactive)
REMARK    1  A    between atoms: C_3  and  C_6
REMARK    2  A    between atoms: C_6  and  N_7
REMARK    3  A    between atoms: C_12  and  C_15
REMARK    4  A    between atoms: C_15  and  C_16
REMARK    5  A    between atoms: N_18  and  C_19
REMARK                            x       y       z     vdW  Elec       q    Type
REMARK                         _______ _______ _______ _____ _____    ______ ____
ROOT
ATOM      1  N   UNL     1      -2.200   4.108   0.061  0.00  0.00    -0.255 NA
ATOM      2  C   UNL     1      -1.167   3.313   0.045  0.00  0.00    +0.157 C 
ATOM      3  N   UNL     1      -1.154   1.932   0.034  0.00  0.00    -0.264 N 
ATOM      4  C   UNL     1      -0.029   1.237   0.023  0.00  0.00    +0.232 C 
ATOM      5  O   UNL     1      -0.022   0.025   0.018  0.00  0.00    -0.274 OA
ATOM      6  C   UNL     1       1.253   2.053   0.010  0.00  0.00    +0.149 C 
ATOM      7  S   UNL     1       0.564   3.755   0.025  0.00  0.00    -0.077 S 
ATOM      8  H   UNL     1      -2.101   1.373   0.035  0.00  0.00    +0.157 HD
ENDROOT
BRANCH   1   9
ATOM      9  C   UNL     1      -2.007   5.560   0.064  0.00  0.00    +0.218 C 
BRANCH   9  12
ATOM     10  C   UNL     1      -3.884   7.037  -2.743  0.00  0.00    +0.041 A 
ATOM     11  C   UNL     1      -3.811   6.574  -1.409  0.00  0.00    +0.046 A 
ATOM     12  C   UNL     1      -2.552   6.142  -1.215  0.00  0.00    +0.126 A 
ATOM     13  O   UNL     1      -1.861   6.323  -2.352  0.00  0.00    -0.466 OA
ATOM     14  C   UNL     1      -2.665   6.860  -3.284  0.00  0.00    +0.195 A 
ENDBRANCH   9  12
ENDBRANCH   1   9
BRANCH   6  15
ATOM     15  C   UNL     1       2.093   1.784   1.261  0.00  0.00    +0.120 C 
BRANCH  15  16
ATOM     16  C   UNL     1       3.406   2.515   1.151  0.00  0.00    +0.219 C 
ATOM     17  O   UNL     1       3.647   3.184   0.169  0.00  0.00    -0.275 OA
ATOM     18  N   UNL     1       4.313   2.424   2.143  0.00  0.00    -0.284 N 
ATOM     19  H   UNL     1       4.066   1.877   3.066  0.00  0.00    +0.155 HD
BRANCH  18  20
ATOM     20  C   UNL     1       5.570   3.025   2.001  0.00  0.00    +0.053 A 
ATOM     21  C   UNL     1       5.694   4.221   1.308  0.00  0.00    +0.046 A 
ATOM     22  C   UNL     1       6.934   4.815   1.173  0.00  0.00    +0.061 A 
ATOM     23  C   UNL     1       8.055   4.212   1.719  0.00  0.00    +0.061 A 
ATOM     24  C   UNL     1       7.935   3.018   2.406  0.00  0.00    +0.043 A 
ATOM     25  C   UNL     1       6.696   2.422   2.548  0.00  0.00    +0.064 A 
ATOM     26 CL   UNL     1       6.546   0.923   3.410  0.00  0.00    -0.082 Cl
ATOM     27 CL   UNL     1       9.613   4.957   1.542  0.00  0.00    -0.082 Cl
ATOM     28 CL   UNL     1       7.089   6.315   0.312  0.00  0.00    -0.082 Cl
ENDBRANCH  18  20
ENDBRANCH  15  16
ENDBRANCH   6  15
TORSDOF 5
