REMARK  Name = ZINC40801222
REMARK  6 active torsions:
REMARK  status: ('A' for Active; 'I' for Inactive)
REMARK    1  A    between atoms: C_1  and  C_2
REMARK    2  A    between atoms: C_2  and  N_3
REMARK    3  A    between atoms: C_4  and  C_6
REMARK    4  A    between atoms: C_10  and  N_11
REMARK    5  A    between atoms: C_12  and  C_14
REMARK    6  A    between atoms: C_14  and  C_15
REMARK                            x       y       z     vdW  Elec       q    Type
REMARK                         _______ _______ _______ _____ _____    ______ ____
ROOT
ATOM      1  N   UNL     1      -0.538  -2.370  -4.042  0.00  0.00    -0.279 N 
ATOM      2  C   UNL     1      -1.046  -2.655  -5.258  0.00  0.00    +0.222 C 
ATOM      3  O   UNL     1      -0.314  -3.040  -6.146  0.00  0.00    -0.275 OA
ATOM      4  H   UNL     1      -1.123  -2.063  -3.332  0.00  0.00    +0.155 HD
ENDROOT
BRANCH   1   9
ATOM      5  C   UNL     1       1.513  -2.272  -2.631  0.00  0.00    +0.069 A 
ATOM      6  C   UNL     1       2.946  -2.510  -2.643  0.00  0.00    -0.023 A 
ATOM      7  C   UNL     1       3.425  -2.942  -3.829  0.00  0.00    -0.004 A 
ATOM      8  S   UNL     1       2.006  -3.026  -4.882  0.00  0.00    -0.077 S 
ATOM      9  C   UNL     1       0.821  -2.516  -3.807  0.00  0.00    +0.084 A 
ATOM     10  C   UNL     1       4.848  -3.272  -4.158  0.00  0.00    +0.043 C 
ATOM     11  C   UNL     1       5.745  -2.687  -3.058  0.00  0.00    +0.005 C 
ATOM     12  C   UNL     1       5.167  -3.067  -1.692  0.00  0.00    +0.005 C 
ATOM     13  C   UNL     1       3.864  -2.303  -1.447  0.00  0.00    +0.037 C 
BRANCH   5  15
ATOM     14  N   UNL     1       0.688  -0.476  -1.203  0.00  0.00    -0.312 N 
ATOM     15  C   UNL     1       0.827  -1.799  -1.425  0.00  0.00    +0.247 C 
ATOM     16  O   UNL     1       0.383  -2.600  -0.624  0.00  0.00    -0.270 OA
ATOM     17  H   UNL     1       1.042   0.162  -1.842  0.00  0.00    +0.149 HD
BRANCH  14  19
ATOM     18  C   UNL     1      -0.019   1.526   0.010  0.00  0.00    +0.024 C 
ATOM     19  C   UNL     1       0.002  -0.004   0.002  0.00  0.00    +0.101 C 
ENDBRANCH  14  19
ENDBRANCH   5  15
ENDBRANCH   1   9
BRANCH   2  20
ATOM     20  C   UNL     1      -2.522  -2.497  -5.513  0.00  0.00    +0.150 C 
BRANCH  20  21
ATOM     21  C   UNL     1      -2.834  -2.884  -6.960  0.00  0.00    +0.268 C 
ATOM     22  C   UNL     1      -4.325  -2.846  -7.180  0.00  0.00    +0.259 C 
ATOM     23  O   UNL     1      -4.988  -3.851  -7.036  0.00  0.00    -0.271 OA
ATOM     24  N   UNL     1      -4.919  -1.688  -7.538  0.00  0.00    -0.280 N 
ATOM     25  C   UNL     1      -4.123  -0.570  -7.823  0.00  0.00    +0.076 A 
ATOM     26  C   UNL     1      -4.695   0.683  -7.970  0.00  0.00    +0.027 A 
ATOM     27  C   UNL     1      -3.895   1.778  -8.238  0.00  0.00    +0.002 A 
ATOM     28  C   UNL     1      -2.526   1.626  -8.358  0.00  0.00    +0.004 A 
ATOM     29  C   UNL     1      -1.949   0.377  -8.218  0.00  0.00    +0.047 A 
ATOM     30  C   UNL     1      -2.745  -0.726  -7.956  0.00  0.00    +0.143 A 
ATOM     31  O   UNL     1      -2.194  -1.963  -7.847  0.00  0.00    -0.477 OA
ATOM     32  H   UNL     1      -5.886  -1.631  -7.598  0.00  0.00    +0.155 HD
ENDBRANCH  20  21
ENDBRANCH   2  20
TORSDOF 5
