REMARK  Name = ZINC38810881
REMARK  5 active torsions:
REMARK  status: ('A' for Active; 'I' for Inactive)
REMARK    1  A    between atoms: C_1  and  C_2
REMARK    2  A    between atoms: C_6  and  N_12
REMARK    3  A    between atoms: C_7  and  S_8
REMARK    4  A    between atoms: N_13  and  C_14
REMARK    5  A    between atoms: C_23  and  O_24
REMARK                            x       y       z     vdW  Elec       q    Type
REMARK                         _______ _______ _______ _____ _____    ______ ____
ROOT
ATOM      1  N   UNL     1      -0.026  -2.787   2.357  0.00  0.00    -0.147 NA
ATOM      2  N   UNL     1      -0.030  -4.077   2.350  0.00  0.00    -0.145 NA
ENDROOT
BRANCH   2   3
ATOM      3  C   UNL     1      -0.026  -4.749   1.169  0.00  0.00    +0.135 A 
ATOM      4  C   UNL     1      -1.048  -5.755   0.879  0.00  0.00    +0.013 A 
ATOM      5  C   UNL     1      -2.057  -6.057   1.800  0.00  0.00    +0.011 A 
ATOM      6  C   UNL     1      -2.991  -7.002   1.490  0.00  0.00    +0.001 A 
ATOM      7  C   UNL     1      -2.954  -7.670   0.269  0.00  0.00    +0.001 A 
ATOM      8  C   UNL     1      -1.986  -7.401  -0.649  0.00  0.00    +0.008 A 
ATOM      9  C   UNL     1      -1.007  -6.433  -0.364  0.00  0.00    -0.016 A 
ATOM     10  C   UNL     1       0.008  -6.127  -1.288  0.00  0.00    +0.012 A 
ATOM     11  C   UNL     1       0.950  -5.190  -1.004  0.00  0.00    +0.048 A 
ATOM     12  C   UNL     1       0.950  -4.492   0.203  0.00  0.00    +0.144 A 
BRANCH  12  13
ATOM     13  O   UNL     1       1.906  -3.560   0.443  0.00  0.00    -0.505 OA
ATOM     14  H   UNL     1       2.668  -3.895   0.936  0.00  0.00    +0.292 HD
ENDBRANCH  12  13
ENDBRANCH   2   3
BRANCH   1  20
ATOM     15  C   UNL     1       0.994   1.116  -0.415  0.00  0.00    +0.047 C 
ATOM     16  C   UNL     1       0.279  -0.192  -0.192  0.00  0.00    -0.003 A 
ATOM     17  C   UNL     1      -0.560  -0.697  -1.173  0.00  0.00    +0.046 A 
ATOM     18  C   UNL     1      -1.221  -1.897  -0.976  0.00  0.00    +0.022 A 
ATOM     19  C   UNL     1      -1.048  -2.599   0.198  0.00  0.00    +0.033 A 
ATOM     20  C   UNL     1      -0.202  -2.096   1.191  0.00  0.00    +0.114 A 
ATOM     21  C   UNL     1       0.466  -0.886   0.984  0.00  0.00    +0.151 A 
ATOM     22 CL   UNL     1      -0.784   0.181  -2.654  0.00  0.00    -0.083 Cl
BRANCH  21  23
ATOM     23  S   UNL     1       1.538  -0.245   2.227  0.00  0.00    +0.142 S 
ATOM     24  O   UNL     1       0.726   0.590   3.097  0.00  0.00    -0.140 OA
ATOM     25  O   UNL     1       2.094  -1.388   2.935  0.00  0.00    -0.140 OA
ATOM     26  O   UNL     1       2.567   0.522   1.542  0.00  0.00    -0.043 OA
ENDBRANCH  21  23
ENDBRANCH   1  20
TORSDOF 4
