REMARK  Name = ZINC36756413
REMARK  5 active torsions:
REMARK  status: ('A' for Active; 'I' for Inactive)
REMARK    1  A    between atoms: C_1  and  C_2
REMARK    2  A    between atoms: C_2  and  C_3
REMARK    3  A    between atoms: C_3  and  C_5
REMARK    4  A    between atoms: C_3  and  C_6
REMARK    5  A    between atoms: N_10  and  C_14
REMARK                            x       y       z     vdW  Elec       q    Type
REMARK                         _______ _______ _______ _____ _____    ______ ____
ROOT
ATOM      1  C   UNL     1      -1.409  -2.069   0.125  0.00  0.00    +0.164 C 
ATOM      2  C   UNL     1      -2.818  -2.625   0.187  0.00  0.00    +0.248 C 
ATOM      3  O   UNL     1      -3.675  -2.546  -0.667  0.00  0.00    -0.273 OA
ATOM      4  N   UNL     1      -2.920  -3.227   1.389  0.00  0.00    -0.193 N 
ATOM      5  C   UNL     1      -1.783  -3.130   2.087  0.00  0.00    +0.314 C 
ATOM      6  O   UNL     1      -1.631  -3.595   3.200  0.00  0.00    -0.252 OA
ATOM      7  N   UNL     1      -0.823  -2.459   1.419  0.00  0.00    -0.287 N 
ATOM      8  H   UNL     1       0.077  -2.270   1.728  0.00  0.00    +0.151 HD
ENDROOT
BRANCH   4   9
ATOM      9  C   UNL     1      -4.075  -3.875   1.850  0.00  0.00    +0.047 A 
ATOM     10  C   UNL     1      -4.049  -4.571   3.051  0.00  0.00    +0.025 A 
ATOM     11  C   UNL     1      -5.187  -5.208   3.505  0.00  0.00    +0.023 A 
ATOM     12  C   UNL     1      -6.354  -5.154   2.763  0.00  0.00    +0.059 A 
ATOM     13  C   UNL     1      -6.383  -4.461   1.564  0.00  0.00    +0.061 A 
ATOM     14  C   UNL     1      -5.247  -3.817   1.110  0.00  0.00    +0.045 A 
ATOM     15 CL   UNL     1      -7.848  -4.396   0.635  0.00  0.00    -0.082 Cl
ATOM     16 CL   UNL     1      -7.783  -5.956   3.335  0.00  0.00    -0.082 Cl
ENDBRANCH   4   9
BRANCH   1  17
ATOM     17  C   UNL     1      -1.438  -0.546  -0.016  0.00  0.00    +0.015 C 
ATOM     18  C   UNL     1      -2.131  -0.168  -1.327  0.00  0.00    +0.010 C 
BRANCH  17  20
ATOM     19  C   UNL     1      -0.036   1.522  -0.038  0.00  0.00    +0.004 C 
ATOM     20  C   UNL     1      -0.006  -0.008  -0.023  0.00  0.00    +0.002 C 
ENDBRANCH  17  20
ENDBRANCH   1  17
TORSDOF 3
