REMARK  Name = ZINC04183542
REMARK  11 active torsions:
REMARK  status: ('A' for Active; 'I' for Inactive)
REMARK    1  A    between atoms: C_1  and  C_2
REMARK    2  A    between atoms: C_3  and  C_12
REMARK    3  A    between atoms: N_10  and  C_11
REMARK    4  A    between atoms: C_12  and  C_13
REMARK    5  A    between atoms: C_13  and  N_14
REMARK    6  A    between atoms: C_19  and  C_20
REMARK    7  A    between atoms: C_19  and  O_21
REMARK    8  A    between atoms: C_23  and  C_28
REMARK    9  A    between atoms: C_23  and  C_29
REMARK   10  A    between atoms: C_24  and  C_26
REMARK   11  A    between atoms: C_24  and  C_27
REMARK                            x       y       z     vdW  Elec       q    Type
REMARK                         _______ _______ _______ _____ _____    ______ ____
ROOT
ATOM      1  N   UNL     1       2.168   0.962  -0.010  0.00  0.00    -0.235 N 
ATOM      2  C   UNL     1       1.233   1.921   0.001  0.00  0.00    +0.406 C 
ATOM      3  O   UNL     1       1.497   3.107   0.002  0.00  0.00    -0.226 OA
ATOM      4  O   UNL     1      -0.018   1.448   0.010  0.00  0.00    -0.439 OA
ATOM      5  C   UNL     1       0.002  -0.004   0.002  0.00  0.00    +0.158 C 
ATOM      6  C   UNL     1       1.500  -0.352  -0.003  0.00  0.00    +0.175 C 
ATOM      7  C   UNL     1       1.923  -1.150   1.228  0.00  0.00    +0.068 C 
ATOM      8  C   UNL     1      -0.642  -0.546  -1.270  0.00  0.00    +0.040 C 
ATOM      9  C   UNL     1      -2.140  -0.268  -1.313  0.00  0.00    -0.070 C 
ATOM     10  C   UNL     1      -2.200  -0.244   1.196  0.00  0.00    -0.070 C 
ATOM     11  C   UNL     1      -0.704  -0.572   1.222  0.00  0.00    +0.040 C 
ATOM     12  C   UNL     1      -2.872  -1.107   2.290  0.00  0.00    -0.010 C 
ATOM     13  C   UNL     1      -2.430   1.220   1.575  0.00  0.00    -0.010 C 
ATOM     14  C   UNL     1      -2.744  -1.170  -2.416  0.00  0.00    -0.010 C 
ATOM     15  C   UNL     1      -2.392   1.183  -1.740  0.00  0.00    -0.010 C 
ATOM     16  N   UNL     1      -2.886  -0.607  -0.073  0.00  0.00    +0.386 N 
ATOM     17  H   UNL     1      -3.049  -1.621  -0.067  0.00  0.00    -0.084 HD
ATOM     18  H   UNL     1      -3.787  -0.116  -0.099  0.00  0.00    -0.084 HD
ENDROOT
BRANCH   6  19
ATOM     19  O   UNL     1       1.839  -1.073  -1.194  0.00  0.00    -0.368 OA
ATOM     20  H   UNL     1       2.773  -1.320  -1.252  0.00  0.00    +0.212 HD
ENDBRANCH   6  19
BRANCH   1  21
ATOM     21  C   UNL     1       3.616   1.180  -0.026  0.00  0.00    +0.119 C 
BRANCH  21  22
ATOM     22  C   UNL     1       4.105   1.256  -1.473  0.00  0.00    +0.056 C 
BRANCH  22  25
ATOM     23  C   UNL     1       6.285  -0.954  -1.496  0.00  0.00    +0.064 C 
ATOM     24  C   UNL     1       6.545   0.531  -1.500  0.00  0.00    +0.020 A 
ATOM     25  C   UNL     1       5.595   1.479  -1.490  0.00  0.00    -0.018 A 
ATOM     26  C   UNL     1       6.282   2.773  -1.503  0.00  0.00    +0.003 A 
ATOM     27  C   UNL     1       5.851   4.101  -1.505  0.00  0.00    +0.010 A 
ATOM     28  C   UNL     1       6.769   5.113  -1.520  0.00  0.00    +0.001 A 
ATOM     29  C   UNL     1       8.128   4.831  -1.533  0.00  0.00    +0.002 A 
ATOM     30  C   UNL     1       8.576   3.528  -1.524  0.00  0.00    +0.026 A 
ATOM     31  C   UNL     1       7.659   2.482  -1.513  0.00  0.00    +0.049 A 
ATOM     32  N   UNL     1       7.784   1.111  -1.514  0.00  0.00    -0.347 N 
ATOM     33  C   UNL     1       9.055   0.382  -1.528  0.00  0.00    +0.149 C 
ENDBRANCH  22  25
ENDBRANCH  21  22
ENDBRANCH   1  21
TORSDOF 4
