REMARK  Name = ZINC00262592
REMARK  8 active torsions:
REMARK  status: ('A' for Active; 'I' for Inactive)
REMARK    1  A    between atoms: C_1  and  C_2
REMARK    2  A    between atoms: C_2  and  N_3
REMARK    3  A    between atoms: N_6  and  C_14
REMARK    4  A    between atoms: C_7  and  C_12
REMARK    5  A    between atoms: C_7  and  O_13
REMARK    6  A    between atoms: C_9  and  C_10
REMARK    7  A    between atoms: C_9  and  C_11
REMARK    8  A    between atoms: C_17  and  C_20
REMARK                            x       y       z     vdW  Elec       q    Type
REMARK                         _______ _______ _______ _____ _____    ______ ____
ROOT
ATOM      1  N   UNL     1       0.771   2.773   2.355  0.00  0.00    -0.280 N 
ATOM      2  C   UNL     1       1.708   1.819   2.252  0.00  0.00    +0.312 C 
ATOM      3  O   UNL     1       2.084   1.258   3.264  0.00  0.00    -0.252 OA
ATOM      4  N   UNL     1       2.246   1.458   1.078  0.00  0.00    -0.227 N 
ATOM      5  C   UNL     1       1.827   2.085  -0.177  0.00  0.00    +0.140 C 
ATOM      6  C   UNL     1       1.367   3.519   0.107  0.00  0.00    +0.080 C 
ATOM      7  C   UNL     1       0.268   3.477   1.174  0.00  0.00    +0.037 C 
ATOM      8  C   UNL     1      -0.953   2.738   0.621  0.00  0.00    +0.031 C 
ATOM      9  C   UNL     1      -0.129   4.903   1.559  0.00  0.00    +0.031 C 
ATOM     10  C   UNL     1       3.003   2.108  -1.155  0.00  0.00    +0.064 C 
ENDROOT
BRANCH   4  11
ATOM     11  C   UNL     1       3.228   0.461   1.051  0.00  0.00    +0.041 A 
ATOM     12  C   UNL     1       2.881  -0.850   0.755  0.00  0.00    +0.024 A 
ATOM     13  C   UNL     1       3.853  -1.831   0.724  0.00  0.00    +0.005 A 
ATOM     14  C   UNL     1       5.170  -1.510   0.999  0.00  0.00    -0.050 A 
ATOM     15  C   UNL     1       5.518  -0.205   1.300  0.00  0.00    +0.005 A 
ATOM     16  C   UNL     1       4.551   0.781   1.326  0.00  0.00    +0.024 A 
ATOM     17  C   UNL     1       6.227  -2.583   0.971  0.00  0.00    +0.044 C 
ENDBRANCH   4  11
BRANCH   1  19
ATOM     18  C   UNL     1       1.090   4.236   4.289  0.00  0.00    +0.024 C 
ATOM     19  C   UNL     1       0.242   3.120   3.677  0.00  0.00    +0.106 C 
ENDBRANCH   1  19
BRANCH   5  20
ATOM     20  O   UNL     1       0.748   1.341  -0.745  0.00  0.00    -0.371 OA
ATOM     21  H   UNL     1       0.967   0.421  -0.946  0.00  0.00    +0.212 HD
ENDBRANCH   5  20
TORSDOF 3
