REMARK  Name = ZINC36773201
REMARK  3 active torsions:
REMARK  status: ('A' for Active; 'I' for Inactive)
REMARK    1  A    between atoms: C_1  and  C_2
REMARK    2  A    between atoms: C_9  and  C_13
REMARK    3  A    between atoms: C_13  and  N_14
REMARK                            x       y       z     vdW  Elec       q    Type
REMARK                         _______ _______ _______ _____ _____    ______ ____
ROOT
ATOM      1  C   UNL     1      -0.018   1.503   0.010  0.00  0.00    +0.044 C 
ATOM      2  C   UNL     1       0.002  -0.004   0.002  0.00  0.00    -0.046 A 
ATOM      3  C   UNL     1       0.006  -0.703  -1.213  0.00  0.00    +0.021 A 
ATOM      4  C   UNL     1       0.025  -2.055  -1.219  0.00  0.00    +0.096 A 
ATOM      5  N   UNL     1       0.040  -2.756  -0.052  0.00  0.00    -0.268 N 
ATOM      6  C   UNL     1       0.037  -2.103   1.149  0.00  0.00    +0.141 A 
ATOM      7  C   UNL     1       0.023  -0.696   1.176  0.00  0.00    +0.050 A 
ATOM      8  N   UNL     1       0.053  -2.781   2.295  0.00  0.00    -0.232 NA
ATOM      9  C   UNL     1       0.071  -4.105   2.312  0.00  0.00    +0.066 A 
ATOM     10  C   UNL     1       0.075  -4.811   1.125  0.00  0.00    +0.095 A 
ATOM     11  C   UNL     1       0.059  -4.106  -0.083  0.00  0.00    +0.259 A 
ATOM     12  O   UNL     1       0.061  -4.701  -1.149  0.00  0.00    -0.267 OA
ENDROOT
BRANCH   9  13
ATOM     13  C   UNL     1       0.088  -4.841   3.627  0.00  0.00    +0.172 C 
BRANCH  13  14
ATOM     14  N   UNL     1       1.340  -4.552   4.332  0.00  0.00    -0.236 N 
ATOM     15  C   UNL     1       2.468  -5.294   4.180  0.00  0.00    +0.226 C 
ATOM     16  O   UNL     1       2.560  -6.376   3.642  0.00  0.00    -0.275 OA
ATOM     17  C   UNL     1       3.576  -4.505   4.810  0.00  0.00    +0.091 C 
ATOM     18  C   UNL     1       4.685  -5.261   5.511  0.00  0.00    +0.040 C 
ATOM     19  C   UNL     1       5.452  -4.250   6.338  0.00  0.00    -0.030 C 
ATOM     20  C   UNL     1       4.995  -3.082   6.675  0.00  0.00    -0.030 C 
ATOM     21  C   UNL     1       3.618  -2.565   6.314  0.00  0.00    +0.040 C 
ATOM     22  C   UNL     1       2.778  -3.752   5.919  0.00  0.00    +0.091 C 
ATOM     23  C   UNL     1       1.486  -3.514   5.196  0.00  0.00    +0.226 C 
ATOM     24  O   UNL     1       0.724  -2.584   5.351  0.00  0.00    -0.275 OA
ENDBRANCH  13  14
ENDBRANCH   9  13
TORSDOF 2
