REMARK  Name = ZINC39663687
REMARK  10 active torsions:
REMARK  status: ('A' for Active; 'I' for Inactive)
REMARK    1  A    between atoms: C_1  and  N_2
REMARK    2  A    between atoms: N_2  and  C_3
REMARK    3  A    between atoms: N_2  and  C_4
REMARK    4  A    between atoms: C_4  and  C_6
REMARK    5  A    between atoms: C_4  and  C_31
REMARK    6  A    between atoms: C_6  and  N_7
REMARK    7  A    between atoms: C_8  and  C_10
REMARK    8  A    between atoms: C_21  and  C_23
REMARK    9  A    between atoms: C_34  and  O_37
REMARK   10  A    between atoms: O_37  and  C_38
REMARK                            x       y       z     vdW  Elec       q    Type
REMARK                         _______ _______ _______ _____ _____    ______ ____
ROOT
ATOM      1  C   UNL     1      -1.389   3.722   3.564  0.00  0.00    +0.100 C 
ATOM      2  C   UNL     1      -0.077   4.533   3.469  0.00  0.00    +0.121 C 
ATOM      3  N   UNL     1      -0.273   5.673   4.396  0.00  0.00    -0.296 N 
ATOM      4  C   UNL     1      -0.983   5.085   5.557  0.00  0.00    +0.115 C 
ATOM      5  C   UNL     1      -1.980   4.087   4.936  0.00  0.00    -0.004 C 
ATOM      6  C   UNL     1      -2.092   2.842   5.811  0.00  0.00    -0.010 C 
ATOM      7  C   UNL     1      -2.736   3.219   7.148  0.00  0.00    -0.082 C 
ATOM      8  N   UNL     1      -4.065   3.795   6.908  0.00  0.00    +0.379 N 
ATOM      9  C   UNL     1      -3.940   5.043   6.145  0.00  0.00    -0.082 C 
ATOM     10  C   UNL     1      -3.347   4.742   4.765  0.00  0.00    -0.010 C 
ATOM     11  C   UNL     1       0.107   6.954   4.222  0.00  0.00    +0.252 C 
ATOM     12  O   UNL     1      -0.128   7.780   5.082  0.00  0.00    -0.270 OA
ATOM     13  H   UNL     1      -4.626   3.138   6.386  0.00  0.00    -0.086 HD
ATOM     14  H   UNL     1      -4.512   3.986   7.792  0.00  0.00    -0.086 HD
ENDROOT
BRANCH  11  15
ATOM     15  C   UNL     1       0.809   7.354   2.987  0.00  0.00    +0.107 A 
ATOM     16  C   UNL     1       0.082   7.794   1.876  0.00  0.00    +0.138 A 
ATOM     17  C   UNL     1       0.748   8.167   0.723  0.00  0.00    +0.039 A 
ATOM     18  C   UNL     1       2.128   8.106   0.666  0.00  0.00    +0.006 A 
ATOM     19  C   UNL     1       2.855   7.671   1.760  0.00  0.00    +0.039 A 
ATOM     20  C   UNL     1       2.206   7.300   2.923  0.00  0.00    +0.138 A 
ATOM     21  F   UNL     1       2.918   6.881   3.992  0.00  0.00    -0.205 F 
ATOM     22  F   UNL     1      -1.267   7.854   1.929  0.00  0.00    -0.205 F 
ENDBRANCH  11  15
BRANCH   1  24
ATOM     23  N   UNL     1      -2.017   1.402   2.981  0.00  0.00    -0.316 N 
ATOM     24  C   UNL     1      -1.099   2.245   3.493  0.00  0.00    +0.218 C 
ATOM     25  O   UNL     1      -0.039   1.815   3.897  0.00  0.00    -0.275 OA
ATOM     26  H   UNL     1      -2.864   1.746   2.658  0.00  0.00    +0.149 HD
BRANCH  23  27
ATOM     27  C   UNL     1      -1.735  -0.034   2.912  0.00  0.00    +0.093 C 
BRANCH  27  28
ATOM     28  C   UNL     1      -2.973  -0.773   2.399  0.00  0.00    -0.021 C 
BRANCH  28  29
ATOM     29  C   UNL     1      -3.265  -0.342   0.985  0.00  0.00    -0.059 A 
ATOM     30  C   UNL     1      -2.551  -0.890  -0.065  0.00  0.00    +0.005 A 
ATOM     31  C   UNL     1      -2.817  -0.496  -1.362  0.00  0.00    +0.046 A 
ATOM     32  C   UNL     1      -3.800   0.450  -1.611  0.00  0.00    +0.120 A 
ATOM     33  C   UNL     1      -4.515   0.998  -0.556  0.00  0.00    +0.046 A 
ATOM     34  C   UNL     1      -4.250   0.597   0.739  0.00  0.00    +0.005 A 
BRANCH  32  35
ATOM     35  O   UNL     1      -4.063   0.839  -2.887  0.00  0.00    -0.495 OA
ATOM     36  C   UNL     1      -5.089   1.817  -3.068  0.00  0.00    +0.277 C 
ENDBRANCH  32  35
ENDBRANCH  28  29
BRANCH  28  38
ATOM     37  C   UNL     1      -2.442  -2.640   3.807  0.00  0.00    -0.096 C 
ATOM     38  N   UNL     1      -2.727  -2.221   2.429  0.00  0.00    +0.382 N 
ATOM     39  C   UNL     1      -3.916  -2.930   1.937  0.00  0.00    -0.096 C 
ATOM     40  H   UNL     1      -1.937  -2.440   1.840  0.00  0.00    -0.082 HD
ENDBRANCH  28  38
ENDBRANCH  27  28
ENDBRANCH  23  27
ENDBRANCH   1  24
TORSDOF 7
