REMARK  Name = ZINC32829008
REMARK  5 active torsions:
REMARK  status: ('A' for Active; 'I' for Inactive)
REMARK    1  A    between atoms: C_4  and  S_18
REMARK    2  A    between atoms: C_5  and  N_7
REMARK    3  A    between atoms: C_9  and  O_17
REMARK    4  A    between atoms: C_12  and  C_14
REMARK    5  A    between atoms: S_18  and  C_21
REMARK                            x       y       z     vdW  Elec       q    Type
REMARK                         _______ _______ _______ _____ _____    ______ ____
ROOT
ATOM      1  C   UNL     1      -3.761   5.106  -1.388  0.00  0.00    +0.002 A 
ATOM      2  C   UNL     1      -3.669   5.487  -2.715  0.00  0.00    +0.002 A 
ATOM      3  C   UNL     1      -3.364   4.553  -3.687  0.00  0.00    +0.029 A 
ATOM      4  C   UNL     1      -3.151   3.234  -3.336  0.00  0.00    +0.118 A 
ATOM      5  C   UNL     1      -3.247   2.846  -2.006  0.00  0.00    +0.056 A 
ATOM      6  C   UNL     1      -3.548   3.789  -1.031  0.00  0.00    +0.025 A 
ENDROOT
BRANCH   5   7
ATOM      7  N   UNL     1      -3.038   1.512  -1.649  0.00  0.00    -0.314 N 
ATOM      8  C   UNL     1      -1.878   1.383  -0.729  0.00  0.00    +0.137 C 
ATOM      9  C   UNL     1      -2.116   0.012  -0.048  0.00  0.00    +0.134 C 
ATOM     10  C   UNL     1      -3.652  -0.024   0.128  0.00  0.00    +0.064 C 
ATOM     11  C   UNL     1      -4.200   0.972  -0.910  0.00  0.00    +0.162 C 
BRANCH  11  12
ATOM     12  C   UNL     1      -5.128   0.263  -1.862  0.00  0.00    +0.231 C 
ATOM     13  O   UNL     1      -4.677  -0.478  -2.710  0.00  0.00    -0.274 OA
ATOM     14  N   UNL     1      -6.459   0.451  -1.771  0.00  0.00    -0.328 N 
ATOM     15  H   UNL     1      -7.137  -0.067  -2.466  0.00  0.00    +0.145 HD
ATOM     16  H   UNL     1      -6.869   1.123  -1.002  0.00  0.00    +0.145 HD
ENDBRANCH  11  12
BRANCH   9  17
ATOM     17  O   UNL     1      -1.460  -0.047   1.220  0.00  0.00    -0.390 OA
ATOM     18  H   UNL     1      -1.531  -0.958   1.834  0.00  0.00    +0.210 HD
ENDBRANCH   9  17
ENDBRANCH   5   7
BRANCH   4  19
ATOM     19  S   UNL     1      -2.764   2.043  -4.576  0.00  0.00    +0.093 S 
ATOM     20  O   UNL     1      -3.604   0.934  -4.289  0.00  0.00    -0.161 OA
ATOM     21  O   UNL     1      -2.887   2.746  -5.805  0.00  0.00    -0.161 OA
BRANCH  19  22
ATOM     22  C   UNL     1      -1.029   1.606  -4.277  0.00  0.00    +0.526 C 
ATOM     23  F   UNL     1      -0.916   0.962  -3.041  0.00  0.00    -0.150 F 
ATOM     24  F   UNL     1      -0.582   0.752  -5.291  0.00  0.00    -0.150 F 
ATOM     25  F   UNL     1      -0.250   2.768  -4.270  0.00  0.00    -0.150 F 
ENDBRANCH  19  22
ENDBRANCH   4  19
TORSDOF 5
