REMARK  Name = ZINC45812564
REMARK  8 active torsions:
REMARK  status: ('A' for Active; 'I' for Inactive)
REMARK    1  A    between atoms: C_1  and  O_2
REMARK    2  A    between atoms: O_2  and  C_3
REMARK    3  A    between atoms: C_6  and  S_11
REMARK    4  A    between atoms: C_8  and  O_9
REMARK    5  A    between atoms: O_9  and  C_10
REMARK    6  A    between atoms: S_11  and  N_14
REMARK    7  A    between atoms: C_17  and  C_20
REMARK    8  A    between atoms: C_20  and  N_21
REMARK                            x       y       z     vdW  Elec       q    Type
REMARK                         _______ _______ _______ _____ _____    ______ ____
ROOT
ATOM      1  N   UNL     1       4.025  -3.295  -4.394  0.00  0.00    -0.177 NA
ATOM      2  C   UNL     1       4.888  -2.144  -4.694  0.00  0.00    +0.109 C 
ATOM      3  C   UNL     1       6.141  -2.643  -5.420  0.00  0.00    +0.019 C 
ATOM      4  C   UNL     1       6.814  -3.731  -4.580  0.00  0.00    -0.025 C 
ATOM      5  C   UNL     1       5.854  -4.910  -4.405  0.00  0.00    +0.019 C 
ATOM      6  C   UNL     1       4.596  -4.434  -3.663  0.00  0.00    +0.109 C 
ENDROOT
BRANCH   1   7
ATOM      7  S   UNL     1       2.437  -3.305  -4.864  0.00  0.00    +0.061 S 
ATOM      8  O   UNL     1       2.047  -4.669  -4.946  0.00  0.00    -0.153 OA
ATOM      9  O   UNL     1       2.335  -2.415  -5.967  0.00  0.00    -0.153 OA
BRANCH   7  13
ATOM     10  C   UNL     1       0.030  -1.464  -1.495  0.00  0.00    +0.162 A 
ATOM     11  C   UNL     1       0.539  -0.663  -2.504  0.00  0.00    +0.051 A 
ATOM     12  C   UNL     1       1.274  -1.228  -3.531  0.00  0.00    +0.032 A 
ATOM     13  C   UNL     1       1.501  -2.591  -3.553  0.00  0.00    +0.109 A 
ATOM     14  C   UNL     1       0.996  -3.396  -2.549  0.00  0.00    +0.078 A 
ATOM     15  C   UNL     1       0.264  -2.835  -1.514  0.00  0.00    +0.163 A 
BRANCH  10  17
ATOM     16  C   UNL     1      -0.892   0.505  -0.530  0.00  0.00    +0.277 C 
ATOM     17  O   UNL     1      -0.692  -0.909  -0.484  0.00  0.00    -0.491 OA
ENDBRANCH  10  17
BRANCH  15  18
ATOM     18  O   UNL     1      -0.229  -3.624  -0.522  0.00  0.00    -0.491 OA
ATOM     19  C   UNL     1       0.051  -5.023  -0.607  0.00  0.00    +0.277 C 
ENDBRANCH  15  18
ENDBRANCH   7  13
ENDBRANCH   1   7
BRANCH   4  20
ATOM     20  C   UNL     1       8.085  -4.207  -5.286  0.00  0.00    -0.075 C 
BRANCH  20  21
ATOM     21  N   UNL     1       8.773  -5.193  -4.442  0.00  0.00    +0.380 N 
ATOM     22  C   UNL     1       9.193  -4.533  -3.190  0.00  0.00    -0.079 C 
ATOM     23  C   UNL     1       9.330  -5.588  -2.121  0.00  0.00    -0.019 C 
ATOM     24  C   UNL     1      10.787  -6.066  -1.984  0.00  0.00    -0.002 C 
ATOM     25  C   UNL     1      11.469  -6.226  -3.358  0.00  0.00    -0.002 C 
ATOM     26  C   UNL     1      10.558  -6.853  -4.381  0.00  0.00    -0.019 C 
ATOM     27  C   UNL     1       9.837  -5.736  -5.165  0.00  0.00    -0.079 C 
ATOM     28  H   UNL     1       8.126  -5.932  -4.214  0.00  0.00    -0.082 HD
ENDBRANCH  20  21
ENDBRANCH   4  20
TORSDOF 6
