REMARK  Name = ZINC58647057
REMARK  5 active torsions:
REMARK  status: ('A' for Active; 'I' for Inactive)
REMARK    1  A    between atoms: C_1  and  C_2
REMARK    2  A    between atoms: C_2  and  C_4
REMARK    3  A    between atoms: C_2  and  N_14
REMARK    4  A    between atoms: N_14  and  S_15
REMARK    5  A    between atoms: S_15  and  C_18
REMARK                            x       y       z     vdW  Elec       q    Type
REMARK                         _______ _______ _______ _____ _____    ______ ____
ROOT
ATOM      1  S   UNL     1       2.322  -0.861   1.097  0.00  0.00    +0.059 S 
ATOM      2  O   UNL     1       2.719  -1.271   2.398  0.00  0.00    -0.153 OA
ATOM      3  O   UNL     1       2.483  -1.690  -0.045  0.00  0.00    -0.153 OA
ENDROOT
BRANCH   1   4
ATOM      4  C   UNL     1       3.183   0.638   0.757  0.00  0.00    +0.106 A 
ATOM      5  C   UNL     1       3.401   1.024  -0.557  0.00  0.00    +0.030 A 
ATOM      6  C   UNL     1       4.074   2.195  -0.844  0.00  0.00    +0.028 A 
ATOM      7  C   UNL     1       4.537   2.994   0.190  0.00  0.00    +0.056 A 
ATOM      8  C   UNL     1       4.317   2.603   1.522  0.00  0.00    +0.065 A 
ATOM      9  C   UNL     1       3.632   1.422   1.798  0.00  0.00    +0.043 A 
ATOM     10  C   UNL     1       4.822   3.476   2.598  0.00  0.00    +0.262 A 
ATOM     11  O   UNL     1       4.658   3.184   3.767  0.00  0.00    -0.267 OA
ATOM     12  N   UNL     1       5.471   4.609   2.251  0.00  0.00    -0.275 N 
ATOM     13  H   UNL     1       5.810   5.194   2.945  0.00  0.00    +0.173 HD
ATOM     14  C   UNL     1       5.657   4.938   0.963  0.00  0.00    +0.327 A 
ATOM     15  O   UNL     1       6.248   5.969   0.706  0.00  0.00    -0.247 OA
ATOM     16  N   UNL     1       5.217   4.178  -0.055  0.00  0.00    -0.307 N 
ATOM     17  H   UNL     1       5.376   4.460  -0.969  0.00  0.00    +0.170 HD
ENDBRANCH   1   4
BRANCH   1  18
ATOM     18  N   UNL     1       0.711  -0.489   1.189  0.00  0.00    -0.183 NA
ATOM     19  H   UNL     1       0.236  -0.593   2.029  0.00  0.00    +0.149 HD
BRANCH  18  21
ATOM     20  C   UNL     1      -0.019   1.526   0.010  0.00  0.00    +0.031 C 
ATOM     21  C   UNL     1       0.002  -0.004   0.002  0.00  0.00    +0.104 C 
BRANCH  21  22
ATOM     22  C   UNL     1      -1.412  -0.526   0.013  0.00  0.00    -0.021 A 
ATOM     23  C   UNL     1      -2.009  -0.860   1.190  0.00  0.00    +0.006 A 
ATOM     24  C   UNL     1      -3.315  -1.344   1.219  0.00  0.00    +0.001 A 
ATOM     25  C   UNL     1      -4.032  -1.497   0.072  0.00  0.00    +0.008 A 
ATOM     26  C   UNL     1      -3.449  -1.163  -1.162  0.00  0.00    -0.018 A 
ATOM     27  C   UNL     1      -2.122  -0.664  -1.191  0.00  0.00    -0.013 A 
ATOM     28  C   UNL     1      -1.542  -0.324  -2.425  0.00  0.00    +0.009 A 
ATOM     29  C   UNL     1      -2.260  -0.472  -3.571  0.00  0.00    +0.001 A 
ATOM     30  C   UNL     1      -3.567  -0.956  -3.542  0.00  0.00    +0.001 A 
ATOM     31  C   UNL     1      -4.158  -1.308  -2.367  0.00  0.00    +0.008 A 
ENDBRANCH  21  22
ENDBRANCH  18  21
ENDBRANCH   1  18
TORSDOF 4
