REMARK  Name = ZINC14994981
REMARK  9 active torsions:
REMARK  status: ('A' for Active; 'I' for Inactive)
REMARK    1  A    between atoms: C_1  and  C_2
REMARK    2  A    between atoms: C_2  and  N_3
REMARK    3  A    between atoms: N_3  and  C_4
REMARK    4  A    between atoms: C_4  and  C_5
REMARK    5  A    between atoms: C_6  and  C_8
REMARK    6  A    between atoms: N_13  and  C_15
REMARK    7  A    between atoms: C_15  and  C_16
REMARK    8  A    between atoms: N_23  and  C_27
REMARK    9  A    between atoms: C_27  and  C_28
REMARK                            x       y       z     vdW  Elec       q    Type
REMARK                         _______ _______ _______ _____ _____    ______ ____
ROOT
ATOM      1  C   UNL     1      -7.077  -2.769   4.034  0.00  0.00    -0.063 A 
ATOM      2  C   UNL     1      -8.255  -2.057   3.910  0.00  0.00    +0.005 A 
ATOM      3  C   UNL     1      -9.471  -2.713   3.939  0.00  0.00    +0.046 A 
ATOM      4  C   UNL     1      -9.504  -4.092   4.088  0.00  0.00    +0.125 A 
ATOM      5  C   UNL     1      -8.323  -4.802   4.195  0.00  0.00    +0.008 A 
ATOM      6  C   UNL     1      -7.109  -4.146   4.173  0.00  0.00    +0.010 A 
ATOM      7  C   UNL     1      -8.370  -6.313   4.302  0.00  0.00    +0.123 C 
ATOM      8  N   UNL     1      -8.953  -6.678   5.598  0.00  0.00    -0.291 NA
ATOM      9  C   UNL     1     -10.414  -6.687   5.572  0.00  0.00    +0.126 C 
ATOM     10  C   UNL     1     -11.025  -5.311   5.420  0.00  0.00    +0.244 C 
ATOM     11  O   UNL     1     -10.696  -4.747   4.145  0.00  0.00    -0.490 OA
ENDROOT
BRANCH   1  12
ATOM     12  C   UNL     1      -5.755  -2.047   4.011  0.00  0.00    -0.043 C 
BRANCH  12  17
ATOM     13  C   UNL     1      -3.387  -1.338   1.187  0.00  0.00    +0.059 C 
ATOM     14  C   UNL     1      -4.319  -0.497   0.310  0.00  0.00    +0.009 C 
ATOM     15  C   UNL     1      -5.735  -1.077   0.386  0.00  0.00    -0.018 C 
ATOM     16  C   UNL     1      -6.188  -1.112   1.847  0.00  0.00    -0.078 C 
ATOM     17  N   UNL     1      -5.272  -1.952   2.627  0.00  0.00    +0.383 N 
ATOM     18  C   UNL     1      -3.927  -1.365   2.618  0.00  0.00    -0.066 C 
ATOM     19  H   UNL     1      -5.237  -2.876   2.222  0.00  0.00    -0.081 HD
BRANCH  13  21
ATOM     20  N   UNL     1      -1.221  -0.856   0.093  0.00  0.00    -0.302 N 
ATOM     21  C   UNL     1      -2.007  -0.732   1.181  0.00  0.00    +0.217 C 
ATOM     22  O   UNL     1      -1.604  -0.132   2.155  0.00  0.00    -0.275 OA
BRANCH  20  24
ATOM     23  C   UNL     1       0.176   1.103  -0.345  0.00  0.00    +0.024 C 
ATOM     24  C   UNL     1       0.155  -0.354   0.122  0.00  0.00    +0.104 C 
ENDBRANCH  20  24
BRANCH  20  25
ATOM     25  C   UNL     1      -1.743  -1.493  -1.119  0.00  0.00    +0.104 C 
ATOM     26  C   UNL     1      -1.337  -2.967  -1.136  0.00  0.00    +0.024 C 
ENDBRANCH  20  25
ENDBRANCH  13  21
ENDBRANCH  12  17
ENDBRANCH   1  12
BRANCH   8  27
ATOM     27  C   UNL     1      -8.427  -7.967   6.068  0.00  0.00    +0.120 C 
BRANCH  27  28
ATOM     28  C   UNL     1      -8.852  -8.191   7.496  0.00  0.00    -0.033 A 
ATOM     29  C   UNL     1      -8.056  -7.745   8.535  0.00  0.00    +0.008 A 
ATOM     30  C   UNL     1      -8.442  -7.944   9.844  0.00  0.00    +0.046 A 
ATOM     31  C   UNL     1      -9.638  -8.598  10.131  0.00  0.00    +0.124 A 
ATOM     32  C   UNL     1     -10.425  -9.049   9.079  0.00  0.00    -0.002 A 
ATOM     33  C   UNL     1     -10.042  -8.840   7.772  0.00  0.00    +0.012 A 
ATOM     34  C   UNL     1     -11.633  -9.732   9.689  0.00  0.00    +0.080 C 
ATOM     35  C   UNL     1     -11.183  -9.930  11.156  0.00  0.00    +0.234 C 
ATOM     36  O   UNL     1     -10.209  -8.886  11.333  0.00  0.00    -0.491 OA
ENDBRANCH  27  28
ENDBRANCH   8  27
TORSDOF 7
