REMARK  Name = ZINC37257148
REMARK  4 active torsions:
REMARK  status: ('A' for Active; 'I' for Inactive)
REMARK    1  A    between atoms: C_1  and  C_2
REMARK    2  A    between atoms: C_7  and  N_10
REMARK    3  A    between atoms: N_10  and  S_11
REMARK    4  A    between atoms: S_11  and  C_14
REMARK                            x       y       z     vdW  Elec       q    Type
REMARK                         _______ _______ _______ _____ _____    ______ ____
ROOT
ATOM      1  S   UNL     1       2.396  -3.897   2.329  0.00  0.00    +0.059 S 
ATOM      2  O   UNL     1       2.966  -4.088   3.617  0.00  0.00    -0.153 OA
ATOM      3  O   UNL     1       1.596  -4.885   1.696  0.00  0.00    -0.153 OA
ENDROOT
BRANCH   1   4
ATOM      4  C   UNL     1       3.732  -3.552   1.234  0.00  0.00    +0.106 A 
ATOM      5  C   UNL     1       3.594  -3.796  -0.121  0.00  0.00    +0.030 A 
ATOM      6  C   UNL     1       4.641  -3.527  -0.979  0.00  0.00    +0.025 A 
ATOM      7  C   UNL     1       5.834  -3.011  -0.482  0.00  0.00    +0.030 A 
ATOM      8  C   UNL     1       5.970  -2.765   0.875  0.00  0.00    -0.025 A 
ATOM      9  C   UNL     1       4.913  -3.034   1.729  0.00  0.00    +0.034 A 
ATOM     10  C   UNL     1       7.242  -2.197   1.448  0.00  0.00    +0.038 C 
ATOM     11  C   UNL     1       8.412  -2.434   0.492  0.00  0.00    +0.023 C 
ATOM     12  C   UNL     1       8.018  -1.938  -0.905  0.00  0.00    +0.102 C 
ATOM     13  N   UNL     1       6.885  -2.751  -1.368  0.00  0.00    -0.344 N 
ATOM     14  H   UNL     1       6.866  -3.101  -2.272  0.00  0.00    +0.146 HD
ENDBRANCH   1   4
BRANCH   1  15
ATOM     15  N   UNL     1       1.471  -2.526   2.420  0.00  0.00    -0.187 NA
ATOM     16  H   UNL     1       1.399  -2.045   3.259  0.00  0.00    +0.148 HD
BRANCH  15  22
ATOM     17  C   UNL     1      -0.019   1.526   0.010  0.00  0.00    +0.007 C 
ATOM     18  C   UNL     1       0.002  -0.004   0.002  0.00  0.00    -0.013 C 
ATOM     19  C   UNL     1      -1.433  -0.534   0.013  0.00  0.00    +0.003 C 
ATOM     20  C   UNL     1      -1.413  -2.063   0.004  0.00  0.00    +0.002 C 
ATOM     21  C   UNL     1      -0.673  -2.570   1.244  0.00  0.00    +0.020 C 
ATOM     22  C   UNL     1       0.763  -2.041   1.233  0.00  0.00    +0.077 C 
ATOM     23  C   UNL     1       0.742  -0.511   1.242  0.00  0.00    +0.023 C 
ENDBRANCH  15  22
ENDBRANCH   1  15
TORSDOF 3
