REMARK  Name = ZINC22411678
REMARK  9 active torsions:
REMARK  status: ('A' for Active; 'I' for Inactive)
REMARK    1  A    between atoms: C_1  and  C_2
REMARK    2  A    between atoms: C_2  and  C_4
REMARK    3  A    between atoms: C_2  and  O_26
REMARK    4  A    between atoms: N_6  and  N_7
REMARK    5  A    between atoms: C_8  and  C_10
REMARK    6  A    between atoms: C_13  and  N_16
REMARK    7  A    between atoms: N_16  and  S_17
REMARK    8  A    between atoms: S_17  and  C_20
REMARK    9  A    between atoms: O_26  and  C_27
REMARK                            x       y       z     vdW  Elec       q    Type
REMARK                         _______ _______ _______ _____ _____    ______ ____
ROOT
ATOM      1  N   UNL     1       4.063   4.031  -5.482  0.00  0.00    -0.230 N 
ATOM      2  C   UNL     1       4.737   2.870  -5.591  0.00  0.00    +0.260 C 
ATOM      3  O   UNL     1       5.689   2.788  -6.343  0.00  0.00    -0.269 OA
ATOM      4  H   UNL     1       3.202   4.106  -4.802  0.00  0.00    +0.173 HD
ENDROOT
BRANCH   2   5
ATOM      5  C   UNL     1       4.321   1.698  -4.798  0.00  0.00    +0.038 A 
ATOM      6  C   UNL     1       5.020   0.492  -4.910  0.00  0.00    +0.015 A 
ATOM      7  C   UNL     1       4.630  -0.599  -4.168  0.00  0.00    +0.025 A 
ATOM      8  C   UNL     1       3.540  -0.503  -3.307  0.00  0.00    +0.048 A 
ATOM      9  C   UNL     1       2.839   0.694  -3.197  0.00  0.00    +0.025 A 
ATOM     10  C   UNL     1       3.227   1.790  -3.933  0.00  0.00    +0.015 A 
BRANCH   8  11
ATOM     11  N   UNL     1       3.148  -1.608  -2.559  0.00  0.00    -0.216 N 
ATOM     12  H   UNL     1       2.240  -2.165  -2.834  0.00  0.00    +0.174 HD
BRANCH  11  13
ATOM     13  S   UNL     1       4.048  -2.086  -1.254  0.00  0.00    +0.072 S 
ATOM     14  O   UNL     1       5.397  -2.158  -1.695  0.00  0.00    -0.150 OA
ATOM     15  O   UNL     1       3.374  -3.198  -0.680  0.00  0.00    -0.150 OA
BRANCH  13  16
ATOM     16  C   UNL     1       3.975  -0.786  -0.067  0.00  0.00    +0.108 A 
ATOM     17  C   UNL     1       2.915  -0.716   0.818  0.00  0.00    +0.029 A 
ATOM     18  C   UNL     1       2.857   0.304   1.748  0.00  0.00    +0.002 A 
ATOM     19  C   UNL     1       3.860   1.254   1.796  0.00  0.00    +0.000 A 
ATOM     20  C   UNL     1       4.921   1.184   0.912  0.00  0.00    +0.002 A 
ATOM     21  C   UNL     1       4.978   0.164  -0.019  0.00  0.00    +0.029 A 
ENDBRANCH  13  16
ENDBRANCH  11  13
ENDBRANCH   8  11
ENDBRANCH   2   5
BRANCH   1  24
ATOM     22  C   UNL     1       3.783   6.306  -6.127  0.00  0.00    +0.270 C 
ATOM     23  O   UNL     1       2.834   6.388  -5.377  0.00  0.00    -0.270 OA
ATOM     24  N   UNL     1       4.458   5.144  -6.236  0.00  0.00    -0.231 N 
ATOM     25  H   UNL     1       5.319   5.070  -6.916  0.00  0.00    +0.173 HD
BRANCH  22  27
ATOM     26  C   UNL     1       4.008   7.210  -8.425  0.00  0.00    +0.062 C 
ATOM     27  C   UNL     1       4.208   7.503  -6.937  0.00  0.00    +0.257 C 
BRANCH  27  28
ATOM     28  O   UNL     1       3.420   8.635  -6.564  0.00  0.00    -0.477 OA
BRANCH  28  29
ATOM     29  C   UNL     1       3.963   9.863  -6.778  0.00  0.00    +0.157 A 
ATOM     30  C   UNL     1       5.186   9.980  -7.421  0.00  0.00    +0.048 A 
ATOM     31  C   UNL     1       5.736  11.229  -7.637  0.00  0.00    +0.004 A 
ATOM     32  C   UNL     1       5.068  12.363  -7.214  0.00  0.00    +0.003 A 
ATOM     33  C   UNL     1       3.848  12.252  -6.572  0.00  0.00    +0.042 A 
ATOM     34  C   UNL     1       3.291  11.004  -6.357  0.00  0.00    +0.165 A 
ATOM     35  F   UNL     1       2.097  10.895  -5.734  0.00  0.00    -0.202 F 
ENDBRANCH  28  29
ENDBRANCH  27  28
ENDBRANCH  22  27
ENDBRANCH   1  24
TORSDOF 8
