REMARK  Name = ZINC07483557
REMARK  6 active torsions:
REMARK  status: ('A' for Active; 'I' for Inactive)
REMARK    1  A    between atoms: C_1  and  C_2
REMARK    2  A    between atoms: N_10  and  N_14
REMARK    3  A    between atoms: C_15  and  C_17
REMARK    4  A    between atoms: C_17  and  S_18
REMARK    5  A    between atoms: S_18  and  C_19
REMARK    6  A    between atoms: C_19  and  C_20
REMARK                            x       y       z     vdW  Elec       q    Type
REMARK                         _______ _______ _______ _____ _____    ______ ____
ROOT
ATOM      1  C   UNL     1       3.878  12.224   0.590  0.00  0.00    +0.007 C 
ATOM      2  C   UNL     1       3.896  10.774   1.078  0.00  0.00    -0.014 C 
ATOM      3  C   UNL     1       2.502  10.165   0.921  0.00  0.00    +0.006 C 
ATOM      4  C   UNL     1       2.518   8.718   1.421  0.00  0.00    +0.035 C 
ATOM      5  C   UNL     1       3.536   7.913   0.620  0.00  0.00    +0.114 C 
ATOM      6  C   UNL     1       4.928   8.523   0.747  0.00  0.00    +0.035 C 
ATOM      7  C   UNL     1       4.901   9.970   0.250  0.00  0.00    +0.006 C 
ATOM      8  C   UNL     1       3.548   6.473   1.081  0.00  0.00    +0.263 C 
ATOM      9  O   UNL     1       3.822   6.059   2.187  0.00  0.00    -0.271 OA
ATOM     10  N   UNL     1       3.188   5.747   0.003  0.00  0.00    -0.137 N 
ATOM     11  C   UNL     1       2.959   6.525  -1.062  0.00  0.00    +0.326 C 
ATOM     12  O   UNL     1       2.626   6.101  -2.151  0.00  0.00    -0.251 OA
ATOM     13  N   UNL     1       3.136   7.833  -0.790  0.00  0.00    -0.284 N 
ATOM     14  H   UNL     1       3.025   8.574  -1.405  0.00  0.00    +0.151 HD
ENDROOT
BRANCH  10  15
ATOM     15  N   UNL     1       3.073   4.351  -0.004  0.00  0.00    -0.223 N 
ATOM     16  C   UNL     1       1.855   3.774   0.005  0.00  0.00    +0.240 C 
ATOM     17  O   UNL     1       0.858   4.465   0.018  0.00  0.00    -0.273 OA
ATOM     18  H   UNL     1       3.871   3.799  -0.015  0.00  0.00    +0.174 HD
BRANCH  16  19
ATOM     19  C   UNL     1       1.731   2.272  -0.002  0.00  0.00    +0.166 C 
BRANCH  19  20
ATOM     20  S   UNL     1      -0.022   1.810   0.012  0.00  0.00    -0.147 S 
BRANCH  20  21
ATOM     21  C   UNL     1       0.002  -0.004   0.002  0.00  0.00    +0.104 C 
BRANCH  21  22
ATOM     22  C   UNL     1      -1.412  -0.526   0.013  0.00  0.00    -0.037 A 
ATOM     23  C   UNL     1      -2.046  -0.777   1.215  0.00  0.00    +0.006 A 
ATOM     24  C   UNL     1      -3.345  -1.250   1.225  0.00  0.00    +0.020 A 
ATOM     25  C   UNL     1      -4.006  -1.483   0.032  0.00  0.00    +0.041 A 
ATOM     26  C   UNL     1      -3.368  -1.237  -1.171  0.00  0.00    +0.020 A 
ATOM     27  C   UNL     1      -2.071  -0.758  -1.180  0.00  0.00    +0.006 A 
ATOM     28 CL   UNL     1      -5.635  -2.083   0.045  0.00  0.00    -0.084 Cl
ENDBRANCH  21  22
ENDBRANCH  20  21
ENDBRANCH  19  20
ENDBRANCH  16  19
ENDBRANCH  10  15
TORSDOF 5
