REMARK  Name = ZINC02397018
REMARK  5 active torsions:
REMARK  status: ('A' for Active; 'I' for Inactive)
REMARK    1  A    between atoms: C_1  and  C_2
REMARK    2  A    between atoms: C_2  and  C_3
REMARK    3  A    between atoms: C_3  and  C_5
REMARK    4  A    between atoms: C_3  and  N_18
REMARK    5  A    between atoms: C_5  and  N_7
REMARK                            x       y       z     vdW  Elec       q    Type
REMARK                         _______ _______ _______ _____ _____    ______ ____
ROOT
ATOM      1  C   UNL     1       0.759  -0.509   1.250  0.00  0.00    +0.172 C 
ENDROOT
BRANCH   1   2
ATOM      2  N   UNL     1       0.022  -0.136   2.460  0.00  0.00    -0.222 N 
ATOM      3  C   UNL     1      -1.235  -0.527   2.736  0.00  0.00    +0.254 C 
ATOM      4  O   UNL     1      -1.928  -1.233   2.032  0.00  0.00    -0.270 OA
ATOM      5  C   UNL     1      -1.631   0.048   4.039  0.00  0.00    +0.049 A 
ATOM      6  C   UNL     1      -2.779  -0.010   4.813  0.00  0.00    +0.014 A 
ATOM      7  C   UNL     1      -2.826   0.664   6.023  0.00  0.00    +0.001 A 
ATOM      8  C   UNL     1      -1.737   1.392   6.463  0.00  0.00    +0.001 A 
ATOM      9  C   UNL     1      -0.582   1.458   5.699  0.00  0.00    +0.014 A 
ATOM     10  C   UNL     1      -0.520   0.790   4.487  0.00  0.00    +0.049 A 
ATOM     11  C   UNL     1       0.516   0.638   3.443  0.00  0.00    +0.254 C 
ATOM     12  O   UNL     1       1.625   1.130   3.469  0.00  0.00    -0.270 OA
ENDBRANCH   1   2
BRANCH   1  14
ATOM     13  C   UNL     1      -0.007   1.531   0.027  0.00  0.00    +0.006 C 
ATOM     14  C   UNL     1       0.009   0.001   0.018  0.00  0.00    +0.029 C 
ENDBRANCH   1  14
BRANCH   1  15
ATOM     15  C   UNL     1       0.882  -2.009   1.178  0.00  0.00    +0.259 C 
ATOM     16  O   UNL     1       0.400  -2.701   2.054  0.00  0.00    -0.272 OA
BRANCH  15  17
ATOM     17  N   UNL     1       1.517  -2.576   0.158  0.00  0.00    -0.155 NA
ATOM     18  C   UNL     1       1.717  -3.892   0.147  0.00  0.00    +0.164 A 
ATOM     19  N   UNL     1       1.248  -4.813   1.028  0.00  0.00    -0.335 N 
ATOM     20  H   UNL     1       0.696  -4.534   1.774  0.00  0.00    +0.168 HD
ATOM     21  C   UNL     1       1.559  -6.148   0.857  0.00  0.00    +0.055 A 
ATOM     22  C   UNL     1       1.186  -7.251   1.637  0.00  0.00    +0.027 A 
ATOM     23  C   UNL     1       1.600  -8.519   1.301  0.00  0.00    +0.002 A 
ATOM     24  C   UNL     1       2.395  -8.743   0.189  0.00  0.00    +0.001 A 
ATOM     25  C   UNL     1       2.777  -7.671  -0.598  0.00  0.00    +0.017 A 
ATOM     26  C   UNL     1       2.363  -6.403  -0.264  0.00  0.00    +0.039 A 
ATOM     27  S   UNL     1       2.600  -4.791  -0.965  0.00  0.00    -0.052 S 
ENDBRANCH  15  17
ENDBRANCH   1  15
TORSDOF 4
