REMARK  Name = ZINC26439476
REMARK  4 active torsions:
REMARK  status: ('A' for Active; 'I' for Inactive)
REMARK    1  A    between atoms: C_1  and  C_2
REMARK    2  A    between atoms: C_2  and  C_4
REMARK    3  A    between atoms: C_2  and  N_11
REMARK    4  A    between atoms: C_14  and  N_17
REMARK                            x       y       z     vdW  Elec       q    Type
REMARK                         _______ _______ _______ _____ _____    ______ ____
ROOT
ATOM      1  N   UNL     1      -0.145   1.462   0.242  0.00  0.00    -0.292 NA
ATOM      2  C   UNL     1      -0.859   1.722   1.498  0.00  0.00    +0.083 C 
ATOM      3  C   UNL     1      -1.107   3.225   1.644  0.00  0.00    +0.000 C 
ATOM      4  C   UNL     1       0.235   3.962   1.636  0.00  0.00    -0.066 C 
ATOM      5  C   UNL     1       0.979   3.636   0.338  0.00  0.00    +0.000 C 
ATOM      6  C   UNL     1       1.167   2.121   0.230  0.00  0.00    +0.083 C 
ENDROOT
BRANCH   4   7
ATOM      7  N   UNL     1       0.000   5.410   1.717  0.00  0.00    +0.382 N 
ATOM      8  C   UNL     1       1.261   6.154   1.603  0.00  0.00    -0.078 C 
ATOM      9  C   UNL     1       0.965   7.654   1.545  0.00  0.00    -0.019 C 
ATOM     10  C   UNL     1       0.217   8.072   2.814  0.00  0.00    -0.004 C 
ATOM     11  C   UNL     1      -1.068   7.247   2.934  0.00  0.00    -0.019 C 
ATOM     12  C   UNL     1      -0.713   5.759   2.952  0.00  0.00    -0.078 C 
ATOM     13  H   UNL     1      -0.637   5.698   0.868  0.00  0.00    -0.081 HD
ENDBRANCH   4   7
BRANCH   1  15
ATOM     14  C   UNL     1       0.640  -0.212  -1.364  0.00  0.00    +0.034 C 
ATOM     15  C   UNL     1      -0.012   0.019   0.001  0.00  0.00    +0.140 C 
BRANCH  15  16
ATOM     16  C   UNL     1      -1.376  -0.622   0.021  0.00  0.00    +0.233 C 
ATOM     17  O   UNL     1      -2.350   0.016  -0.317  0.00  0.00    -0.274 OA
ATOM     18  N   UNL     1      -1.512  -1.904   0.413  0.00  0.00    -0.300 N 
ATOM     19  C   UNL     1      -0.411  -2.824   0.734  0.00  0.00    +0.108 C 
ATOM     20  C   UNL     1      -1.042  -4.182   1.108  0.00  0.00    +0.020 C 
ATOM     21  C   UNL     1      -2.432  -4.117   0.421  0.00  0.00    +0.020 C 
ATOM     22  C   UNL     1      -2.790  -2.619   0.585  0.00  0.00    +0.108 C 
ENDBRANCH  15  16
ENDBRANCH   1  15
TORSDOF 3
