REMARK  Name = ZINC09333732
REMARK  10 active torsions:
REMARK  status: ('A' for Active; 'I' for Inactive)
REMARK    1  A    between atoms: C_1  and  N_52
REMARK    2  A    between atoms: C_2  and  N_52
REMARK    3  A    between atoms: C_3  and  C_4
REMARK    4  A    between atoms: C_3  and  N_52
REMARK    5  A    between atoms: C_4  and  N_5
REMARK    6  A    between atoms: C_6  and  C_24
REMARK    7  A    between atoms: C_9  and  C_10
REMARK    8  A    between atoms: C_9  and  O_19
REMARK    9  A    between atoms: C_13  and  O_17
REMARK   10  A    between atoms: O_17  and  C_18
REMARK                            x       y       z     vdW  Elec       q    Type
REMARK                         _______ _______ _______ _____ _____    ______ ____
ROOT
ATOM      1  N   UNL     1       1.082   2.007  -0.130  0.00  0.00    -0.285 N 
ATOM      2  C   UNL     1       0.644   3.382   0.124  0.00  0.00    +0.144 C 
ATOM      3  C   UNL     1      -0.852   3.406  -0.087  0.00  0.00    +0.071 C 
ATOM      4  C   UNL     1      -1.691   4.496   0.042  0.00  0.00    +0.133 C 
ATOM      5  C   UNL     1      -1.216   2.101  -0.449  0.00  0.00    +0.249 C 
ATOM      6  O   UNL     1      -2.344   1.720  -0.707  0.00  0.00    -0.282 OA
ATOM      7  C   UNL     1       0.013   1.262  -0.457  0.00  0.00    +0.288 C 
ATOM      8  O   UNL     1       0.045   0.078  -0.726  0.00  0.00    -0.266 OA
ENDROOT
BRANCH   4   9
ATOM      9  C   UNL     1      -3.148   4.319  -0.056  0.00  0.00    +0.019 A 
ATOM     10  C   UNL     1      -3.899   5.136  -0.909  0.00  0.00    +0.015 A 
ATOM     11  C   UNL     1      -5.261   4.963  -1.002  0.00  0.00    +0.048 A 
ATOM     12  C   UNL     1      -5.894   3.985  -0.242  0.00  0.00    +0.138 A 
ATOM     13  C   UNL     1      -5.153   3.174   0.613  0.00  0.00    +0.083 A 
ATOM     14  C   UNL     1      -3.788   3.336   0.708  0.00  0.00    +0.035 A 
ATOM     15 CL   UNL     1      -5.949   1.955   1.558  0.00  0.00    -0.080 Cl
BRANCH  12  16
ATOM     16  O   UNL     1      -7.238   3.822  -0.333  0.00  0.00    -0.494 OA
ATOM     17  C   UNL     1      -7.938   4.688  -1.229  0.00  0.00    +0.277 C 
ENDBRANCH  12  16
ENDBRANCH   4   9
BRANCH   2  18
ATOM     18  C   UNL     1       0.971   3.774   1.542  0.00  0.00    -0.022 A 
ATOM     19  C   UNL     1       0.793   2.866   2.569  0.00  0.00    +0.007 A 
ATOM     20  C   UNL     1       1.098   3.223   3.869  0.00  0.00    +0.020 A 
ATOM     21  C   UNL     1       1.571   4.493   4.144  0.00  0.00    +0.041 A 
ATOM     22  C   UNL     1       1.744   5.404   3.117  0.00  0.00    +0.020 A 
ATOM     23  C   UNL     1       1.444   5.044   1.817  0.00  0.00    +0.007 A 
ATOM     24 CL   UNL     1       1.948   4.945   5.777  0.00  0.00    -0.084 Cl
ENDBRANCH   2  18
BRANCH   4  25
ATOM     25  O   UNL     1      -1.174   5.725   0.259  0.00  0.00    -0.506 OA
ATOM     26  H   UNL     1      -1.916   6.392   0.327  0.00  0.00    +0.292 HD
ENDBRANCH   4  25
BRANCH   1  27
ATOM     27  C   UNL     1       2.462   1.522  -0.041  0.00  0.00    +0.090 C 
BRANCH  27  28
ATOM     28  C   UNL     1       3.144   1.675  -1.402  0.00  0.00    -0.060 C 
BRANCH  28  31
ATOM     29  C   UNL     1       4.563  -0.258  -1.065  0.00  0.00    -0.097 C 
ATOM     30  C   UNL     1       5.286   1.535  -2.522  0.00  0.00    -0.097 C 
ATOM     31  N   UNL     1       4.540   1.202  -1.290  0.00  0.00    +0.377 N 
ATOM     32  H   UNL     1       4.988   1.670  -0.493  0.00  0.00    -0.083 HD
ENDBRANCH  28  31
ENDBRANCH  27  28
ENDBRANCH   1  27
TORSDOF 7
