REMARK  Name = ZINC31354653
REMARK  8 active torsions:
REMARK  status: ('A' for Active; 'I' for Inactive)
REMARK    1  A    between atoms: C_1  and  C_2
REMARK    2  A    between atoms: C_4  and  C_16
REMARK    3  A    between atoms: C_5  and  C_15
REMARK    4  A    between atoms: N_6  and  C_7
REMARK    5  A    between atoms: C_16  and  C_18
REMARK    6  A    between atoms: C_18  and  S_19
REMARK    7  A    between atoms: S_19  and  C_20
REMARK    8  A    between atoms: C_24  and  N_26
REMARK                            x       y       z     vdW  Elec       q    Type
REMARK                         _______ _______ _______ _____ _____    ______ ____
ROOT
ATOM      1  C   UNL     1       0.671  -3.237  -1.509  0.00  0.00    +0.175 C 
ATOM      2  O   UNL     1       1.008  -4.291  -1.011  0.00  0.00    -0.291 OA
ENDROOT
BRANCH   1   6
ATOM      3  C   UNL     1      -0.794   1.376   0.085  0.00  0.00    +0.063 C 
ATOM      4  C   UNL     1      -0.338  -0.060   0.035  0.00  0.00    +0.017 A 
ATOM      5  C   UNL     1      -0.115  -0.767  -1.085  0.00  0.00    +0.034 A 
ATOM      6  C   UNL     1       0.312  -2.104  -0.652  0.00  0.00    +0.039 A 
ATOM      7  C   UNL     1       0.306  -2.074   0.730  0.00  0.00    +0.027 A 
ATOM      8  N   UNL     1      -0.080  -0.846   1.120  0.00  0.00    -0.343 N 
ATOM      9  C   UNL     1       0.672  -3.217   1.641  0.00  0.00    +0.064 C 
BRANCH   8  10
ATOM     10  C   UNL     1      -0.208  -0.414   2.514  0.00  0.00    +0.110 C 
ATOM     11  C   UNL     1       1.101  -0.701   3.269  0.00  0.00    +0.049 C 
ATOM     12  C   UNL     1       0.875  -0.551   4.793  0.00  0.00    +0.168 C 
ATOM     13  S   UNL     1      -0.908  -0.960   4.979  0.00  0.00    -0.029 S 
ATOM     14  O   UNL     1      -1.030  -2.199   5.664  0.00  0.00    -0.174 OA
ATOM     15  O   UNL     1      -1.596   0.182   5.472  0.00  0.00    -0.174 OA
ATOM     16  C   UNL     1      -1.351  -1.209   3.208  0.00  0.00    +0.191 C 
ENDBRANCH   8  10
ENDBRANCH   1   6
BRANCH   1  17
ATOM     17  C   UNL     1       0.623  -3.093  -3.008  0.00  0.00    +0.157 C 
BRANCH  17  18
ATOM     18  S   UNL     1       1.120  -4.656  -3.782  0.00  0.00    -0.078 S 
BRANCH  18  19
ATOM     19  C   UNL     1       1.013  -4.330  -5.510  0.00  0.00    +0.192 A 
ATOM     20  N   UNL     1       0.635  -3.127  -5.917  0.00  0.00    -0.207 NA
ATOM     21  C   UNL     1       0.543  -2.844  -7.214  0.00  0.00    +0.122 A 
ATOM     22  C   UNL     1       0.850  -3.831  -8.146  0.00  0.00    +0.086 A 
ATOM     23  C   UNL     1       1.244  -5.082  -7.681  0.00  0.00    +0.122 A 
ATOM     24  N   UNL     1       1.318  -5.292  -6.369  0.00  0.00    -0.207 NA
ATOM     25  N   UNL     1       0.146  -1.583  -7.632  0.00  0.00    -0.343 N 
ATOM     26  H   UNL     1      -0.067  -0.900  -6.977  0.00  0.00    +0.144 HD
ATOM     27  H   UNL     1       0.082  -1.383  -8.579  0.00  0.00    +0.144 HD
BRANCH  23  28
ATOM     28  N   UNL     1       1.559  -6.096  -8.573  0.00  0.00    -0.343 N 
ATOM     29  H   UNL     1       1.506  -5.935  -9.528  0.00  0.00    +0.144 HD
ATOM     30  H   UNL     1       1.832  -6.965  -8.241  0.00  0.00    +0.144 HD
ENDBRANCH  23  28
ENDBRANCH  18  19
ENDBRANCH  17  18
ENDBRANCH   1  17
TORSDOF 6
