REMARK  Name = ZINC52635029
REMARK  5 active torsions:
REMARK  status: ('A' for Active; 'I' for Inactive)
REMARK    1  A    between atoms: N_4  and  C_8
REMARK    2  A    between atoms: C_11  and  C_14
REMARK    3  A    between atoms: N_16  and  C_17
REMARK    4  A    between atoms: C_23  and  N_25
REMARK    5  A    between atoms: C_26  and  C_28
REMARK                            x       y       z     vdW  Elec       q    Type
REMARK                         _______ _______ _______ _____ _____    ______ ____
ROOT
ATOM      1  C   UNL     1       8.633  -4.760  -0.011  0.00  0.00    +0.093 C 
ATOM      2  C   UNL     1       9.069  -4.993  -1.459  0.00  0.00    +0.024 C 
ATOM      3  C   UNL     1       8.012  -5.832  -2.180  0.00  0.00    +0.002 C 
ATOM      4  C   UNL     1       7.859  -7.179  -1.470  0.00  0.00    +0.002 C 
ATOM      5  C   UNL     1       7.424  -6.946  -0.022  0.00  0.00    +0.024 C 
ATOM      6  C   UNL     1       8.480  -6.106   0.699  0.00  0.00    +0.093 C 
ENDROOT
BRANCH   1   9
ATOM      7  C   UNL     1       7.324  -2.706  -0.083  0.00  0.00    +0.244 C 
ATOM      8  O   UNL     1       8.363  -2.082  -0.177  0.00  0.00    -0.270 OA
ATOM      9  N   UNL     1       7.352  -4.051   0.006  0.00  0.00    -0.307 N 
ATOM     10  H   UNL     1       6.523  -4.549   0.081  0.00  0.00    +0.149 HD
BRANCH   7  14
ATOM     11  C   UNL     1       3.607  -0.650  -0.036  0.00  0.00    +0.049 A 
ATOM     12  C   UNL     1       4.795   0.066  -0.143  0.00  0.00    +0.027 A 
ATOM     13  C   UNL     1       6.002  -0.597  -0.158  0.00  0.00    +0.015 A 
ATOM     14  C   UNL     1       6.032  -1.991  -0.066  0.00  0.00    +0.037 A 
ATOM     15  C   UNL     1       4.837  -2.707   0.041  0.00  0.00    +0.015 A 
ATOM     16  C   UNL     1       3.634  -2.037   0.061  0.00  0.00    +0.027 A 
BRANCH  11  20
ATOM     17  C   UNL     1      -0.018   1.356   0.014  0.00  0.00    +0.007 A 
ATOM     18  C   UNL     1       0.674   1.090   1.204  0.00  0.00    +0.018 A 
ATOM     19  C   UNL     1       1.857   0.433   1.165  0.00  0.00    +0.095 A 
ATOM     20  N   UNL     1       2.385   0.026  -0.021  0.00  0.00    -0.284 N 
ATOM     21  C   UNL     1       1.744   0.268  -1.179  0.00  0.00    +0.256 A 
ATOM     22  O   UNL     1       2.231  -0.103  -2.235  0.00  0.00    -0.267 OA
ATOM     23  C   UNL     1       0.514   0.947  -1.174  0.00  0.00    +0.071 A 
ENDBRANCH  11  20
ENDBRANCH   7  14
ENDBRANCH   1   9
BRANCH   6  24
ATOM     24  N   UNL     1       8.064  -5.883   2.086  0.00  0.00    -0.307 N 
ATOM     25  C   UNL     1       8.339  -6.806   3.029  0.00  0.00    +0.244 C 
ATOM     26  O   UNL     1       8.933  -7.823   2.729  0.00  0.00    -0.270 OA
ATOM     27  H   UNL     1       7.590  -5.072   2.325  0.00  0.00    +0.149 HD
BRANCH  25  28
ATOM     28  C   UNL     1       7.918  -6.580   4.431  0.00  0.00    +0.039 A 
ATOM     29  C   UNL     1       7.224  -5.393   4.750  0.00  0.00    +0.014 A 
ATOM     30  C   UNL     1       6.814  -5.130   6.010  0.00  0.00    +0.012 A 
ATOM     31  C   UNL     1       7.096  -6.101   7.072  0.00  0.00    +0.014 A 
ATOM     32  C   UNL     1       6.816  -6.113   8.401  0.00  0.00    +0.047 C 
ATOM     33  C   UNL     1       7.382  -7.409   8.935  0.00  0.00    +0.161 C 
ATOM     34  N   UNL     1       7.987  -8.088   7.785  0.00  0.00    -0.379 N 
ATOM     35  C   UNL     1       7.822  -7.339   6.721  0.00  0.00    +0.045 A 
ATOM     36  C   UNL     1       8.208  -7.528   5.364  0.00  0.00    +0.039 A 
ATOM     37 CL   UNL     1       5.978  -4.888   9.303  0.00  0.00    -0.086 Cl
ATOM     38  H   UNL     1       8.435  -8.949   7.807  0.00  0.00    +0.160 HD
ENDBRANCH  25  28
ENDBRANCH   6  24
TORSDOF 5
