REMARK  Name = ZINC15075161
REMARK  10 active torsions:
REMARK  status: ('A' for Active; 'I' for Inactive)
REMARK    1  A    between atoms: C_1  and  C_2
REMARK    2  A    between atoms: C_2  and  N_3
REMARK    3  A    between atoms: C_5  and  C_10
REMARK    4  A    between atoms: C_10  and  N_61
REMARK    5  A    between atoms: C_11  and  N_61
REMARK    6  A    between atoms: C_12  and  C_13
REMARK    7  A    between atoms: C_12  and  N_61
REMARK    8  A    between atoms: C_15  and  C_18
REMARK    9  A    between atoms: C_18  and  C_23
REMARK   10  A    between atoms: C_26  and  C_29
REMARK                            x       y       z     vdW  Elec       q    Type
REMARK                         _______ _______ _______ _____ _____    ______ ____
ROOT
ATOM      1  C   UNL     1      -1.544  -0.142   0.417  0.00  0.00    +0.211 A 
ATOM      2  N   UNL     1      -2.402  -0.413  -0.537  0.00  0.00    -0.197 NA
ATOM      3  C   UNL     1      -3.501  -0.875   0.085  0.00  0.00    +0.182 A 
ATOM      4  N   UNL     1      -3.263  -0.855   1.362  0.00  0.00    -0.060 NA
ATOM      5  O   UNL     1      -2.144  -0.438   1.574  0.00  0.00    -0.340 OA
ENDROOT
BRANCH   3   6
ATOM      6  C   UNL     1      -4.777  -1.328  -0.578  0.00  0.00    +0.059 C 
ATOM      7  C   UNL     1      -5.425  -0.151  -1.336  0.00  0.00    +0.019 C 
ATOM      8  C   UNL     1      -6.946  -0.355  -1.124  0.00  0.00    +0.001 C 
ATOM      9  C   UNL     1      -7.023  -0.859   0.339  0.00  0.00    +0.001 C 
ATOM     10  C   UNL     1      -5.793  -1.778   0.487  0.00  0.00    +0.019 C 
BRANCH   6  11
ATOM     11  C   UNL     1      -4.490  -2.461  -1.529  0.00  0.00    -0.034 A 
ATOM     12  C   UNL     1      -3.217  -2.995  -1.604  0.00  0.00    +0.005 A 
ATOM     13  C   UNL     1      -2.955  -4.037  -2.474  0.00  0.00    +0.003 A 
ATOM     14  C   UNL     1      -3.964  -4.539  -3.275  0.00  0.00    -0.050 A 
ATOM     15  C   UNL     1      -5.235  -4.002  -3.203  0.00  0.00    +0.003 A 
ATOM     16  C   UNL     1      -5.498  -2.963  -2.330  0.00  0.00    +0.005 A 
ATOM     17  C   UNL     1      -3.676  -5.671  -4.227  0.00  0.00    +0.044 C 
ENDBRANCH   6  11
ENDBRANCH   3   6
BRANCH   1  18
ATOM     18  C   UNL     1      -0.150   0.403   0.243  0.00  0.00    +0.021 C 
BRANCH  18  20
ATOM     19  C   UNL     1      -0.920   2.389  -0.909  0.00  0.00    -0.096 C 
ATOM     20  N   UNL     1      -0.208   1.880   0.282  0.00  0.00    +0.384 N 
ATOM     21  H   UNL     1      -0.717   2.171   1.125  0.00  0.00    -0.082 HD
BRANCH  20  22
ATOM     22  C   UNL     1       1.160   2.438   0.329  0.00  0.00    -0.073 C 
BRANCH  22  25
ATOM     23  N   UNL     1       3.276   3.430   3.158  0.00  0.00    -0.302 N 
ATOM     24  C   UNL     1       3.161   2.785   1.844  0.00  0.00    +0.110 C 
ATOM     25  C   UNL     1       1.699   2.293   1.754  0.00  0.00    -0.002 C 
ATOM     26  C   UNL     1       0.979   3.262   2.719  0.00  0.00    +0.099 C 
ATOM     27  C   UNL     1       2.066   3.714   3.670  0.00  0.00    +0.216 C 
ATOM     28  O   UNL     1       1.874   4.254   4.739  0.00  0.00    -0.276 OA
BRANCH  23  30
ATOM     29  C   UNL     1       5.023   5.122   3.419  0.00  0.00    +0.024 C 
ATOM     30  C   UNL     1       4.546   3.725   3.825  0.00  0.00    +0.104 C 
ENDBRANCH  23  30
ENDBRANCH  22  25
ENDBRANCH  20  22
ENDBRANCH  18  20
ENDBRANCH   1  18
TORSDOF 7
