REMARK  Name = ZINC59352858
REMARK  3 active torsions:
REMARK  status: ('A' for Active; 'I' for Inactive)
REMARK    1  A    between atoms: C_1  and  C_2
REMARK    2  A    between atoms: C_6  and  N_8
REMARK    3  A    between atoms: N_10  and  C_15
REMARK                            x       y       z     vdW  Elec       q    Type
REMARK                         _______ _______ _______ _____ _____    ______ ____
ROOT
ATOM      1  N   UNL     1       0.072  -2.798   2.380  0.00  0.00    -0.269 N 
ATOM      2  C   UNL     1      -0.013  -4.260   2.362  0.00  0.00    +0.201 C 
ATOM      3  N   UNL     1       0.660  -4.799   3.554  0.00  0.00    -0.268 NA
ATOM      4  C   UNL     1       0.066  -4.236   4.776  0.00  0.00    +0.192 C 
ATOM      5  N   UNL     1       0.148  -2.775   4.723  0.00  0.00    -0.313 N 
ATOM      6  C   UNL     1       0.148  -2.129   3.543  0.00  0.00    +0.139 C 
ATOM      7  S   UNL     1       0.240  -0.420   3.523  0.00  0.00    -0.018 S 
ATOM      8  H   UNL     1       0.207  -2.267   5.547  0.00  0.00    +0.149 HD
ENDROOT
BRANCH   1  14
ATOM      9  C   UNL     1       2.594  -0.783  -1.328  0.00  0.00    +0.044 C 
ATOM     10  C   UNL     1       1.288  -1.100  -0.646  0.00  0.00    -0.049 A 
ATOM     11  C   UNL     1       0.095  -0.691  -1.214  0.00  0.00    +0.003 A 
ATOM     12  C   UNL     1      -1.105  -0.981  -0.592  0.00  0.00    +0.002 A 
ATOM     13  C   UNL     1      -1.117  -1.679   0.600  0.00  0.00    +0.023 A 
ATOM     14  C   UNL     1       0.080  -2.091   1.173  0.00  0.00    +0.037 A 
ATOM     15  C   UNL     1       1.283  -1.804   0.542  0.00  0.00    +0.027 A 
ENDBRANCH   1  14
BRANCH   3  16
ATOM     16  C   UNL     1       0.605  -6.267   3.570  0.00  0.00    +0.060 C 
ATOM     17  C   UNL     1       1.292  -6.807   4.842  0.00  0.00    +0.019 C 
ATOM     18  C   UNL     1       2.010  -8.095   4.367  0.00  0.00    +0.002 C 
ATOM     19  C   UNL     1       2.519  -7.704   2.958  0.00  0.00    +0.002 C 
ATOM     20  C   UNL     1       1.385  -6.837   2.373  0.00  0.00    +0.019 C 
ENDBRANCH   3  16
TORSDOF 2
