REMARK  Name = ZINC04680585
REMARK  5 active torsions:
REMARK  status: ('A' for Active; 'I' for Inactive)
REMARK    1  A    between atoms: C_1  and  C_2
REMARK    2  A    between atoms: C_7  and  N_12
REMARK    3  A    between atoms: C_9  and  C_11
REMARK    4  A    between atoms: C_13  and  C_15
REMARK    5  A    between atoms: C_18  and  N_22
REMARK                            x       y       z     vdW  Elec       q    Type
REMARK                         _______ _______ _______ _____ _____    ______ ____
ROOT
ATOM      1  N   UNL     1       2.502  -0.272  -0.021  0.00  0.00    -0.308 N 
ATOM      2  C   UNL     1       2.478   1.075  -0.015  0.00  0.00    +0.246 C 
ATOM      3  O   UNL     1       3.521   1.702  -0.021  0.00  0.00    -0.270 OA
ATOM      4  H   UNL     1       1.671  -0.772  -0.016  0.00  0.00    +0.149 HD
ENDROOT
BRANCH   1  10
ATOM      5  C   UNL     1       4.757  -4.511   1.157  0.00  0.00    +0.008 C 
ATOM      6  C   UNL     1       4.939  -3.118   0.553  0.00  0.00    -0.009 C 
ATOM      7  C   UNL     1       5.433  -3.248  -0.890  0.00  0.00    +0.003 C 
ATOM      8  C   UNL     1       5.615  -1.855  -1.494  0.00  0.00    +0.002 C 
ATOM      9  C   UNL     1       4.277  -1.113  -1.479  0.00  0.00    +0.022 C 
ATOM     10  C   UNL     1       3.783  -0.982  -0.036  0.00  0.00    +0.076 C 
ATOM     11  C   UNL     1       3.601  -2.376   0.568  0.00  0.00    +0.009 C 
ATOM     12  C   UNL     1       3.107  -2.245   2.011  0.00  0.00    +0.009 C 
ENDBRANCH   1  10
BRANCH   2  13
ATOM     13  C   UNL     1       1.186   1.792   0.000  0.00  0.00    +0.055 A 
ATOM     14  C   UNL     1      -0.013   1.076   0.008  0.00  0.00    +0.017 A 
ATOM     15  C   UNL     1      -1.215   1.750   0.017  0.00  0.00    +0.033 A 
ATOM     16  C   UNL     1      -1.237   3.134   0.030  0.00  0.00    +0.128 A 
ATOM     17  C   UNL     1      -0.054   3.851   0.022  0.00  0.00    +0.053 A 
ATOM     18  C   UNL     1       1.158   3.188   0.008  0.00  0.00    +0.055 A 
ATOM     19 CL   UNL     1       2.642   4.089  -0.002  0.00  0.00    -0.083 Cl
BRANCH  16  20
ATOM     20  N   UNL     1      -2.532   3.851   0.045  0.00  0.00    +0.056 N 
ATOM     21  O   UNL     1      -2.554   5.069   0.052  0.00  0.00    -0.126 OA
ATOM     22  O   UNL     1      -3.575   3.223   0.052  0.00  0.00    -0.126 OA
ENDBRANCH  16  20
ENDBRANCH   2  13
TORSDOF 3
