REMARK  Name = ZINC67082052
REMARK  7 active torsions:
REMARK  status: ('A' for Active; 'I' for Inactive)
REMARK    1  A    between atoms: C_1  and  C_2
REMARK    2  A    between atoms: C_6  and  C_7
REMARK    3  A    between atoms: N_9  and  N_10
REMARK    4  A    between atoms: N_13  and  C_14
REMARK    5  A    between atoms: C_14  and  C_16
REMARK    6  A    between atoms: C_14  and  C_17
REMARK    7  A    between atoms: C_24  and  C_26
REMARK                            x       y       z     vdW  Elec       q    Type
REMARK                         _______ _______ _______ _____ _____    ______ ____
ROOT
ATOM      1  N   UNL     1      -0.171  -0.656   5.173  0.00  0.00    -0.218 N 
ATOM      2  C   UNL     1       0.023  -1.618   6.098  0.00  0.00    +0.317 C 
ATOM      3  O   UNL     1       0.201  -1.315   7.262  0.00  0.00    -0.251 OA
ATOM      4  N   UNL     1       0.021  -2.915   5.731  0.00  0.00    -0.287 N 
ATOM      5  H   UNL     1      -0.170   0.277   5.437  0.00  0.00    +0.174 HD
ATOM      6  H   UNL     1      -0.120  -3.156   4.803  0.00  0.00    +0.151 HD
ENDROOT
BRANCH   1   9
ATOM      7  C   UNL     1      -0.570  -0.043   2.908  0.00  0.00    +0.267 C 
ATOM      8  O   UNL     1      -0.568   1.128   3.239  0.00  0.00    -0.268 OA
ATOM      9  N   UNL     1      -0.376  -1.005   3.832  0.00  0.00    -0.229 N 
ATOM     10  H   UNL     1      -0.377  -1.938   3.568  0.00  0.00    +0.173 HD
BRANCH   7  16
ATOM     11  C   UNL     1      -1.047   1.917   0.534  0.00  0.00    +0.045 C 
ATOM     12  C   UNL     1      -1.000   0.416   0.410  0.00  0.00    -0.031 A 
ATOM     13  C   UNL     1      -1.163  -0.224  -0.795  0.00  0.00    +0.011 A 
ATOM     14  C   UNL     1      -1.109  -1.578  -0.836  0.00  0.00    +0.046 A 
ATOM     15  S   UNL     1      -0.835  -2.027   0.759  0.00  0.00    -0.092 S 
ATOM     16  C   UNL     1      -0.784  -0.408   1.504  0.00  0.00    +0.078 A 
ENDBRANCH   7  16
ENDBRANCH   1   9
BRANCH   4  17
ATOM     17  C   UNL     1       0.233  -3.960   6.736  0.00  0.00    +0.157 C 
ATOM     18  C   UNL     1       1.734  -4.172   6.943  0.00  0.00    +0.038 C 
BRANCH  17  19
ATOM     19  C   UNL     1      -0.396  -5.245   6.263  0.00  0.00    +0.236 C 
ATOM     20  O   UNL     1      -0.708  -5.375   5.099  0.00  0.00    -0.274 OA
ATOM     21  N   UNL     1      -0.612  -6.250   7.135  0.00  0.00    -0.297 N 
ATOM     22  C   UNL     1      -0.339  -6.070   8.568  0.00  0.00    +0.108 C 
ATOM     23  C   UNL     1       0.592  -7.193   9.037  0.00  0.00    +0.019 C 
ATOM     24  C   UNL     1      -0.028  -8.546   8.681  0.00  0.00    +0.003 C 
ATOM     25  C   UNL     1      -0.186  -8.653   7.162  0.00  0.00    +0.022 C 
ATOM     26  C   UNL     1      -1.130  -7.545   6.672  0.00  0.00    +0.073 C 
ATOM     27  C   UNL     1      -1.188  -7.557   5.144  0.00  0.00    +0.028 C 
ENDBRANCH  17  19
ENDBRANCH   4  17
TORSDOF 4
