REMARK  Name = ZINC02577732
REMARK  5 active torsions:
REMARK  status: ('A' for Active; 'I' for Inactive)
REMARK    1  A    between atoms: C_1  and  C_2
REMARK    2  A    between atoms: C_3  and  S_9
REMARK    3  A    between atoms: N_5  and  C_7
REMARK    4  A    between atoms: S_9  and  O_12
REMARK    5  A    between atoms: O_12  and  C_13
REMARK                            x       y       z     vdW  Elec       q    Type
REMARK                         _______ _______ _______ _____ _____    ______ ____
ROOT
ATOM      1  S   UNL     1       0.024  -0.630   1.389  0.00  0.00    +0.156 S 
ATOM      2  O   UNL     1       0.251  -2.021   1.203  0.00  0.00    -0.131 OA
ATOM      3  O   UNL     1       0.875   0.180   2.188  0.00  0.00    -0.131 OA
ENDROOT
BRANCH   1   6
ATOM      4  C   UNL     1      -1.279   1.822   3.218  0.00  0.00    +0.070 C 
ATOM      5  C   UNL     1      -2.071   0.602   2.823  0.00  0.00    +0.090 A 
ATOM      6  C   UNL     1      -1.598  -0.470   2.058  0.00  0.00    +0.187 A 
ATOM      7  C   UNL     1      -2.606  -1.366   1.929  0.00  0.00    +0.155 A 
ATOM      8  N   UNL     1      -3.679  -0.874   2.583  0.00  0.00    -0.254 N 
ATOM      9  N   UNL     1      -3.320   0.364   3.133  0.00  0.00    -0.173 NA
ATOM     10  C   UNL     1      -4.989  -1.520   2.699  0.00  0.00    +0.174 C 
ATOM     11 CL   UNL     1      -2.532  -2.874   1.074  0.00  0.00    -0.060 Cl
ENDBRANCH   1   6
BRANCH   1  12
ATOM     12  O   UNL     1       0.002  -0.004   0.002  0.00  0.00    -0.342 OA
BRANCH  12  13
ATOM     13  C   UNL     1      -0.016   1.355   0.009  0.00  0.00    +0.160 A 
ATOM     14  C   UNL     1      -1.226   2.033   0.019  0.00  0.00    +0.068 A 
ATOM     15  C   UNL     1      -1.243   3.415   0.031  0.00  0.00    +0.046 A 
ATOM     16  C   UNL     1      -0.054   4.123   0.024  0.00  0.00    +0.040 A 
ATOM     17  C   UNL     1       1.154   3.448   0.009  0.00  0.00    +0.046 A 
ATOM     18  C   UNL     1       1.175   2.066   0.002  0.00  0.00    +0.068 A 
ATOM     19 CL   UNL     1       2.645   4.338   0.000  0.00  0.00    -0.083 Cl
ATOM     20 CL   UNL     1      -2.757   4.264   0.048  0.00  0.00    -0.083 Cl
ENDBRANCH  12  13
ENDBRANCH   1  12
TORSDOF 3
