REMARK  Name = ZINC13407114
REMARK  12 active torsions:
REMARK  status: ('A' for Active; 'I' for Inactive)
REMARK    1  A    between atoms: C_1  and  C_2
REMARK    2  A    between atoms: C_7  and  O_36
REMARK    3  A    between atoms: C_11  and  C_35
REMARK    4  A    between atoms: C_12  and  O_31
REMARK    5  A    between atoms: C_16  and  C_29
REMARK    6  A    between atoms: C_16  and  C_30
REMARK    7  A    between atoms: C_20  and  O_28
REMARK    8  A    between atoms: C_23  and  O_25
REMARK    9  A    between atoms: O_31  and  C_32
REMARK   10  A    between atoms: C_32  and  C_34
REMARK   11  A    between atoms: O_36  and  C_37
REMARK   12  A    between atoms: C_37  and  C_39
REMARK                            x       y       z     vdW  Elec       q    Type
REMARK                         _______ _______ _______ _____ _____    ______ ____
ROOT
ATOM      1  C   UNL     1      -6.534  -0.613   3.895  0.00  0.00    +0.016 C 
ATOM      2  C   UNL     1      -5.212   0.079   3.555  0.00  0.00    +0.059 C 
ATOM      3  C   UNL     1      -5.167   1.485   4.198  0.00  0.00    +0.032 C 
ATOM      4  C   UNL     1      -3.699   1.812   4.499  0.00  0.00    +0.051 C 
ATOM      5  C   UNL     1      -2.820   1.459   3.292  0.00  0.00    +0.182 C 
ATOM      6  C   UNL     1      -3.357   2.098   2.014  0.00  0.00    +0.058 C 
ATOM      7  C   UNL     1      -2.537   1.694   0.780  0.00  0.00    +0.016 C 
ATOM      8  C   UNL     1      -1.103   2.218   0.929  0.00  0.00    +0.183 C 
ATOM      9  C   UNL     1      -0.304   1.943  -0.344  0.00  0.00    +0.046 C 
ATOM     10  C   UNL     1      -0.923   2.683  -1.521  0.00  0.00    +0.010 C 
ATOM     11  C   UNL     1      -2.381   2.274  -1.731  0.00  0.00    -0.031 C 
ATOM     12  C   UNL     1      -3.180   2.326  -0.448  0.00  0.00    +0.007 C 
ATOM     13  C   UNL     1      -4.598   1.782  -0.638  0.00  0.00    +0.037 C 
ATOM     14  C   UNL     1      -5.433   2.273   0.552  0.00  0.00    +0.131 C 
ATOM     15  C   UNL     1      -4.839   1.771   1.853  0.00  0.00    +0.088 C 
ATOM     16  C   UNL     1      -5.602   2.424   3.040  0.00  0.00    +0.135 C 
ATOM     17  C   UNL     1      -5.110   0.297   2.055  0.00  0.00    +0.148 C 
ATOM     18  O   UNL     1      -5.250  -0.548   1.203  0.00  0.00    -0.296 OA
ATOM     19  C   UNL     1      -2.983   3.301  -2.721  0.00  0.00    +0.011 C 
ATOM     20  C   UNL     1      -2.444   0.906  -2.410  0.00  0.00    +0.011 C 
ATOM     21  C   UNL     1      -2.471   0.171   0.670  0.00  0.00    +0.015 C 
ENDROOT
BRANCH  16  22
ATOM     22  O   UNL     1      -5.183   3.769   3.258  0.00  0.00    -0.390 OA
ATOM     23  H   UNL     1      -5.636   4.209   3.990  0.00  0.00    +0.210 HD
ENDBRANCH  16  22
BRANCH  14  24
ATOM     24  O   UNL     1      -6.768   1.783   0.420  0.00  0.00    -0.391 OA
ATOM     25  H   UNL     1      -7.216   2.073  -0.386  0.00  0.00    +0.210 HD
ENDBRANCH  14  24
BRANCH   8  26
ATOM     26  O   UNL     1      -1.121   3.642   1.198  0.00  0.00    -0.461 OA
BRANCH  26  27
ATOM     27  C   UNL     1      -0.067   4.151   1.854  0.00  0.00    +0.304 C 
ATOM     28  O   UNL     1       0.879   3.447   2.116  0.00  0.00    -0.251 OA
ATOM     29  C   UNL     1      -0.063   5.602   2.263  0.00  0.00    +0.136 C 
ENDBRANCH  26  27
ENDBRANCH   8  26
BRANCH   5  30
ATOM     30  O   UNL     1      -1.488   1.970   3.590  0.00  0.00    -0.461 OA
BRANCH  30  31
ATOM     31  C   UNL     1      -0.687   1.188   4.330  0.00  0.00    +0.304 C 
ATOM     32  O   UNL     1      -1.058   0.087   4.665  0.00  0.00    -0.251 OA
ATOM     33  C   UNL     1       0.676   1.682   4.743  0.00  0.00    +0.136 C 
ENDBRANCH  30  31
ENDBRANCH   5  30
TORSDOF 6
