REMARK  Name = ZINC48894841
REMARK  3 active torsions:
REMARK  status: ('A' for Active; 'I' for Inactive)
REMARK    1  A    between atoms: C_5  and  O_7
REMARK    2  A    between atoms: O_7  and  S_8
REMARK    3  A    between atoms: S_8  and  C_11
REMARK                            x       y       z     vdW  Elec       q    Type
REMARK                         _______ _______ _______ _____ _____    ______ ____
ROOT
ATOM      1  S   UNL     1       1.258  -2.666   1.366  0.00  0.00    +0.154 S 
ATOM      2  O   UNL     1       1.487  -4.056   1.179  0.00  0.00    -0.131 OA
ATOM      3  O   UNL     1       2.107  -1.854   2.164  0.00  0.00    -0.131 OA
ENDROOT
BRANCH   1   4
ATOM      4  C   UNL     1      -0.364  -2.509   2.036  0.00  0.00    +0.165 A 
ATOM      5  C   UNL     1      -0.826  -1.468   2.767  0.00  0.00    +0.135 A 
ATOM      6  N   UNL     1      -2.110  -1.729   3.089  0.00  0.00    -0.283 N 
ATOM      7  H   UNL     1      -2.696  -1.157   3.610  0.00  0.00    +0.188 HD
ATOM      8  N   UNL     1      -2.449  -2.971   2.538  0.00  0.00    -0.180 NA
ATOM      9  C   UNL     1      -1.404  -3.435   1.902  0.00  0.00    +0.164 A 
ENDBRANCH   1   4
BRANCH   1  10
ATOM     10  O   UNL     1       1.234  -2.039  -0.021  0.00  0.00    -0.341 OA
BRANCH  10  15
ATOM     11  C   UNL     1      -0.017   1.377   0.010  0.00  0.00    +0.004 A 
ATOM     12  C   UNL     1       1.170   2.087   0.002  0.00  0.00    +0.002 A 
ATOM     13  C   UNL     1       2.379   1.416  -0.013  0.00  0.00    +0.024 A 
ATOM     14  C   UNL     1       2.404   0.034  -0.021  0.00  0.00    +0.085 A 
ATOM     15  C   UNL     1       1.213  -0.680  -0.013  0.00  0.00    +0.175 A 
ATOM     16  C   UNL     1       0.002  -0.004   0.002  0.00  0.00    +0.050 A 
ATOM     17 CL   UNL     1       3.922  -0.809  -0.041  0.00  0.00    -0.080 Cl
ENDBRANCH  10  15
ENDBRANCH   1  10
TORSDOF 3
