REMARK  Name = ZINC12809331
REMARK  10 active torsions:
REMARK  status: ('A' for Active; 'I' for Inactive)
REMARK    1  A    between atoms: C_1  and  C_2
REMARK    2  A    between atoms: C_2  and  C_4
REMARK    3  A    between atoms: C_2  and  N_14
REMARK    4  A    between atoms: C_6  and  O_12
REMARK    5  A    between atoms: C_9  and  O_10
REMARK    6  A    between atoms: O_10  and  C_11
REMARK    7  A    between atoms: O_12  and  C_13
REMARK    8  A    between atoms: C_15  and  C_17
REMARK    9  A    between atoms: N_26  and  S_27
REMARK   10  A    between atoms: S_27  and  C_30
REMARK                            x       y       z     vdW  Elec       q    Type
REMARK                         _______ _______ _______ _____ _____    ______ ____
ROOT
ATOM      1  N   UNL     1       6.213   0.410  -3.904  0.00  0.00    -0.305 N 
ATOM      2  C   UNL     1       5.048  -0.220  -3.659  0.00  0.00    +0.245 C 
ATOM      3  O   UNL     1       4.792  -1.266  -4.224  0.00  0.00    -0.270 OA
ATOM      4  H   UNL     1       6.418   1.245  -3.453  0.00  0.00    +0.150 HD
ENDROOT
BRANCH   2   5
ATOM      5  C   UNL     1       4.082   0.358  -2.705  0.00  0.00    +0.037 A 
ATOM      6  C   UNL     1       4.375   1.561  -2.054  0.00  0.00    +0.015 A 
ATOM      7  C   UNL     1       3.471   2.093  -1.165  0.00  0.00    +0.026 A 
ATOM      8  C   UNL     1       2.267   1.439  -0.912  0.00  0.00    +0.054 A 
ATOM      9  C   UNL     1       1.970   0.245  -1.558  0.00  0.00    -0.024 A 
ATOM     10  C   UNL     1       2.874  -0.294  -2.450  0.00  0.00    +0.018 A 
ATOM     11  C   UNL     1       0.675  -0.483  -1.308  0.00  0.00    +0.038 C 
ATOM     12  C   UNL     1       0.062  -0.043   0.021  0.00  0.00    +0.025 C 
ATOM     13  C   UNL     1      -0.003   1.489   0.053  0.00  0.00    +0.131 C 
ATOM     14  N   UNL     1       1.373   1.998  -0.000  0.00  0.00    -0.207 N 
BRANCH  14  15
ATOM     15  S   UNL     1       1.857   3.219   1.008  0.00  0.00    +0.043 S 
ATOM     16  O   UNL     1       0.887   3.237   2.047  0.00  0.00    -0.155 OA
ATOM     17  O   UNL     1       3.220   2.935   1.295  0.00  0.00    -0.155 OA
ATOM     18  C   UNL     1       1.730   4.728   0.009  0.00  0.00    +0.218 C 
ENDBRANCH  14  15
ENDBRANCH   2   5
BRANCH   1  20
ATOM     19  C   UNL     1       8.048  -1.191  -4.131  0.00  0.00    +0.033 C 
ATOM     20  C   UNL     1       7.172  -0.164  -4.851  0.00  0.00    +0.104 C 
BRANCH  20  21
ATOM     21  C   UNL     1       8.041   0.932  -5.413  0.00  0.00    +0.018 A 
ATOM     22  C   UNL     1       8.238   2.095  -4.693  0.00  0.00    +0.054 A 
ATOM     23  C   UNL     1       9.038   3.103  -5.210  0.00  0.00    +0.121 A 
ATOM     24  C   UNL     1       9.640   2.944  -6.449  0.00  0.00    +0.049 A 
ATOM     25  C   UNL     1       9.443   1.782  -7.169  0.00  0.00    +0.049 A 
ATOM     26  C   UNL     1       8.647   0.771  -6.650  0.00  0.00    +0.125 A 
BRANCH  26  27
ATOM     27  O   UNL     1       8.457  -0.376  -7.356  0.00  0.00    -0.495 OA
ATOM     28  C   UNL     1       9.112  -0.474  -8.622  0.00  0.00    +0.277 C 
ENDBRANCH  26  27
BRANCH  23  29
ATOM     29  O   UNL     1       9.233   4.247  -4.501  0.00  0.00    -0.495 OA
ATOM     30  C   UNL     1      10.069   5.243  -5.094  0.00  0.00    +0.277 C 
ENDBRANCH  23  29
ENDBRANCH  20  21
ENDBRANCH   1  20
TORSDOF 6
