REMARK  Name = ZINC09461962
REMARK  9 active torsions:
REMARK  status: ('A' for Active; 'I' for Inactive)
REMARK    1  A    between atoms: C_1  and  C_2
REMARK    2  A    between atoms: C_2  and  N_3
REMARK    3  A    between atoms: N_3  and  C_4
REMARK    4  A    between atoms: N_3  and  C_7
REMARK    5  A    between atoms: C_4  and  C_5
REMARK    6  A    between atoms: C_5  and  O_6
REMARK    7  A    between atoms: C_10  and  N_13
REMARK    8  A    between atoms: N_13  and  C_14
REMARK    9  A    between atoms: N_21  and  C_24
REMARK                            x       y       z     vdW  Elec       q    Type
REMARK                         _______ _______ _______ _____ _____    ______ ____
ROOT
ATOM      1  C   UNL     1      -3.539  -1.208  -5.885  0.00  0.00    +0.090 C 
ATOM      2  C   UNL     1      -4.242  -1.342  -7.069  0.00  0.00    +0.113 C 
ATOM      3  C   UNL     1      -3.591  -1.825  -8.300  0.00  0.00    +0.256 C 
ATOM      4  O   UNL     1      -2.411  -2.120  -8.307  0.00  0.00    -0.270 OA
ATOM      5  N   UNL     1      -4.339  -1.931  -9.417  0.00  0.00    -0.263 N 
ATOM      6  C   UNL     1      -5.640  -1.609  -9.422  0.00  0.00    +0.151 C 
ATOM      7  S   UNL     1      -6.511  -1.775 -10.887  0.00  0.00    -0.018 S 
ATOM      8  N   UNL     1      -6.296  -1.164  -8.341  0.00  0.00    -0.216 N 
ATOM      9  C   UNL     1      -5.676  -1.014  -7.153  0.00  0.00    +0.263 C 
ATOM     10  O   UNL     1      -6.284  -0.614  -6.177  0.00  0.00    -0.269 OA
ATOM     11  H   UNL     1      -3.926  -2.247 -10.236  0.00  0.00    +0.157 HD
ENDROOT
BRANCH   8  12
ATOM     12  C   UNL     1      -7.659  -0.854  -8.447  0.00  0.00    +0.062 A 
ATOM     13  C   UNL     1      -8.616  -1.828  -8.199  0.00  0.00    +0.025 A 
ATOM     14  C   UNL     1      -9.958  -1.519  -8.304  0.00  0.00    +0.002 A 
ATOM     15  C   UNL     1     -10.350  -0.240  -8.655  0.00  0.00    +0.002 A 
ATOM     16  C   UNL     1      -9.400   0.733  -8.903  0.00  0.00    +0.022 A 
ATOM     17  C   UNL     1      -8.055   0.432  -8.794  0.00  0.00    +0.063 A 
ATOM     18 CL   UNL     1      -6.862   1.656  -9.099  0.00  0.00    -0.082 Cl
ENDBRANCH   8  12
BRANCH   1  19
ATOM     19  N   UNL     1      -2.199  -1.353  -5.877  0.00  0.00    -0.320 N 
ATOM     20  H   UNL     1      -1.724  -1.527  -6.705  0.00  0.00    +0.152 HD
BRANCH  19  24
ATOM     21  C   UNL     1      -0.091  -1.057  -2.292  0.00  0.00    +0.030 A 
ATOM     22  C   UNL     1       0.587  -1.306  -3.478  0.00  0.00    +0.025 A 
ATOM     23  C   UNL     1      -0.110  -1.404  -4.665  0.00  0.00    +0.025 A 
ATOM     24  C   UNL     1      -1.491  -1.254  -4.673  0.00  0.00    +0.031 A 
ATOM     25  C   UNL     1      -2.170  -1.006  -3.487  0.00  0.00    +0.025 A 
ATOM     26  C   UNL     1      -1.473  -0.912  -2.300  0.00  0.00    +0.025 A 
BRANCH  21  27
ATOM     27  N   UNL     1       0.615  -0.958  -1.089  0.00  0.00    -0.328 N 
BRANCH  27  29
ATOM     28  C   UNL     1      -0.201   0.808   0.393  0.00  0.00    +0.024 C 
ATOM     29  C   UNL     1      -0.101  -0.701   0.162  0.00  0.00    +0.102 C 
ENDBRANCH  27  29
BRANCH  27  30
ATOM     30  C   UNL     1       2.072  -1.110  -1.081  0.00  0.00    +0.133 C 
BRANCH  30  31
ATOM     31  C   UNL     1       2.429  -2.583  -0.873  0.00  0.00    +0.174 C 
BRANCH  31  32
ATOM     32  O   UNL     1       1.976  -3.346  -1.993  0.00  0.00    -0.393 OA
ATOM     33  H   UNL     1       2.168  -4.292  -1.929  0.00  0.00    +0.209 HD
ENDBRANCH  31  32
ENDBRANCH  30  31
ENDBRANCH  27  30
ENDBRANCH  21  27
ENDBRANCH  19  24
ENDBRANCH   1  19
TORSDOF 8
