REMARK  Name = ZINC23709273
REMARK  5 active torsions:
REMARK  status: ('A' for Active; 'I' for Inactive)
REMARK    1  A    between atoms: C_1  and  C_2
REMARK    2  A    between atoms: C_3  and  C_8
REMARK    3  A    between atoms: C_4  and  C_7
REMARK    4  A    between atoms: C_8  and  S_9
REMARK    5  A    between atoms: S_9  and  C_10
REMARK                            x       y       z     vdW  Elec       q    Type
REMARK                         _______ _______ _______ _____ _____    ______ ____
ROOT
ATOM      1  C   UNL     1      -3.011  -2.407  -1.399  0.00  0.00    +0.143 A 
ATOM      2  C   UNL     1      -3.725  -2.967  -2.467  0.00  0.00    +0.186 A 
ATOM      3  C   UNL     1      -4.788  -3.825  -2.164  0.00  0.00    +0.121 A 
ATOM      4  C   UNL     1      -5.337  -4.249  -3.463  0.00  0.00    +0.046 A 
ATOM      5  C   UNL     1      -6.383  -5.084  -3.846  0.00  0.00    +0.014 A 
ATOM      6  C   UNL     1      -6.648  -5.279  -5.184  0.00  0.00    +0.001 A 
ATOM      7  C   UNL     1      -5.876  -4.646  -6.147  0.00  0.00    +0.004 A 
ATOM      8  C   UNL     1      -4.838  -3.817  -5.780  0.00  0.00    +0.047 A 
ATOM      9  C   UNL     1      -4.555  -3.607  -4.435  0.00  0.00    +0.138 A 
ATOM     10  O   UNL     1      -3.619  -2.863  -3.807  0.00  0.00    -0.451 OA
ATOM     11  N   UNL     1      -5.082  -4.079  -0.891  0.00  0.00    -0.232 NA
ATOM     12  C   UNL     1      -4.383  -3.531   0.080  0.00  0.00    +0.223 A 
ATOM     13  N   UNL     1      -3.370  -2.719  -0.157  0.00  0.00    -0.225 NA
ENDROOT
BRANCH   1  14
ATOM     14  S   UNL     1      -1.659  -1.317  -1.696  0.00  0.00    -0.097 S 
BRANCH  14  15
ATOM     15  C   UNL     1      -1.173  -0.948   0.008  0.00  0.00    +0.116 C 
BRANCH  15  18
ATOM     16  C   UNL     1       1.982  -1.708  -0.027  0.00  0.00    +0.069 C 
ATOM     17  C   UNL     1       1.378  -0.327  -0.013  0.00  0.00    +0.085 A 
ATOM     18  C   UNL     1       0.002  -0.004   0.002  0.00  0.00    +0.027 A 
ATOM     19  C   UNL     1      -0.016   1.350   0.009  0.00  0.00    +0.138 A 
ATOM     20  O   UNL     1       1.264   1.747  -0.001  0.00  0.00    -0.359 OA
ATOM     21  N   UNL     1       2.022   0.805  -0.013  0.00  0.00    -0.083 NA
ATOM     22  C   UNL     1      -1.236   2.236   0.020  0.00  0.00    +0.089 C 
ENDBRANCH  15  18
ENDBRANCH  14  15
ENDBRANCH   1  14
TORSDOF 3
