REMARK  Name = ZINC44369391
REMARK  6 active torsions:
REMARK  status: ('A' for Active; 'I' for Inactive)
REMARK    1  A    between atoms: C_1  and  N_2
REMARK    2  A    between atoms: N_2  and  C_3
REMARK    3  A    between atoms: N_2  and  C_4
REMARK    4  A    between atoms: C_7  and  N_14
REMARK    5  A    between atoms: C_8  and  C_10
REMARK    6  A    between atoms: C_21  and  O_23
REMARK                            x       y       z     vdW  Elec       q    Type
REMARK                         _______ _______ _______ _____ _____    ______ ____
ROOT
ATOM      1  C   UNL     1      -0.132  -0.710  -1.208  0.00  0.00    +0.030 A 
ATOM      2  C   UNL     1      -0.531  -2.039  -1.270  0.00  0.00    +0.025 A 
ATOM      3  C   UNL     1      -0.486  -2.718  -2.471  0.00  0.00    +0.026 A 
ATOM      4  C   UNL     1      -0.041  -2.072  -3.617  0.00  0.00    +0.047 A 
ATOM      5  C   UNL     1       0.359  -0.744  -3.555  0.00  0.00    +0.078 A 
ATOM      6  C   UNL     1       0.307  -0.063  -2.355  0.00  0.00    +0.037 A 
ENDROOT
BRANCH   4   7
ATOM      7  N   UNL     1       0.005  -2.762  -4.837  0.00  0.00    -0.269 N 
ATOM      8  C   UNL     1       0.109  -4.106  -4.847  0.00  0.00    +0.307 C 
ATOM      9  O   UNL     1       0.113  -4.724  -3.800  0.00  0.00    -0.252 OA
ATOM     10  N   UNL     1       0.209  -4.765  -6.019  0.00  0.00    -0.283 N 
ATOM     11  C   UNL     1       0.311  -4.028  -7.286  0.00  0.00    +0.109 C 
ATOM     12  C   UNL     1       1.548  -4.520  -8.044  0.00  0.00    +0.022 C 
ATOM     13  C   UNL     1       1.471  -6.040  -8.206  0.00  0.00    +0.034 C 
ATOM     14  C   UNL     1       1.456  -6.701  -6.826  0.00  0.00    +0.132 C 
ATOM     15  C   UNL     1       0.225  -6.234  -6.053  0.00  0.00    +0.140 C 
ATOM     16  H   UNL     1      -0.038  -2.272  -5.673  0.00  0.00    +0.156 HD
BRANCH  14  17
ATOM     17  O   UNL     1       1.415  -8.121  -6.978  0.00  0.00    -0.390 OA
ATOM     18  H   UNL     1       1.404  -8.606  -6.141  0.00  0.00    +0.210 HD
ENDBRANCH  14  17
ENDBRANCH   4   7
BRANCH   5  19
ATOM     19  C   UNL     1       0.842  -0.044  -4.799  0.00  0.00    +0.419 C 
ATOM     20  F   UNL     1       1.186   1.275  -4.488  0.00  0.00    -0.166 F 
ATOM     21  F   UNL     1       1.963  -0.712  -5.304  0.00  0.00    -0.166 F 
ATOM     22  F   UNL     1      -0.174  -0.047  -5.761  0.00  0.00    -0.166 F 
ENDBRANCH   5  19
BRANCH   1  24
ATOM     23  C   UNL     1       0.238   1.382   0.073  0.00  0.00    +0.129 C 
ATOM     24  N   UNL     1      -0.178  -0.021   0.009  0.00  0.00    -0.336 N 
ATOM     25  C   UNL     1      -0.641  -0.704   1.220  0.00  0.00    +0.129 C 
ENDBRANCH   1  24
TORSDOF 4
