REMARK  Name = ZINC36024633
REMARK  11 active torsions:
REMARK  status: ('A' for Active; 'I' for Inactive)
REMARK    1  A    between atoms: C_1  and  C_2
REMARK    2  A    between atoms: C_2  and  S_3
REMARK    3  A    between atoms: S_3  and  N_6
REMARK    4  A    between atoms: C_13  and  C_29
REMARK    5  A    between atoms: N_17  and  C_18
REMARK    6  A    between atoms: C_18  and  C_20
REMARK    7  A    between atoms: C_18  and  C_21
REMARK    8  A    between atoms: C_21  and  C_22
REMARK    9  A    between atoms: C_22  and  C_23
REMARK   10  A    between atoms: C_29  and  C_30
REMARK   11  A    between atoms: C_29  and  C_31
REMARK                            x       y       z     vdW  Elec       q    Type
REMARK                         _______ _______ _______ _____ _____    ______ ____
ROOT
ATOM      1  N   UNL     1       0.294  -2.167   2.032  0.00  0.00    -0.181 NA
ATOM      2  C   UNL     1      -0.657  -3.227   2.393  0.00  0.00    +0.109 C 
ATOM      3  C   UNL     1      -1.105  -3.943   1.114  0.00  0.00    +0.023 C 
ATOM      4  C   UNL     1       0.125  -4.425   0.346  0.00  0.00    +0.006 C 
ATOM      5  C   UNL     1       1.008  -3.240  -0.040  0.00  0.00    +0.023 C 
ATOM      6  C   UNL     1       1.470  -2.517   1.224  0.00  0.00    +0.109 C 
ATOM      7  N   UNL     1      -0.299  -5.148  -0.871  0.00  0.00    +0.401 N 
ATOM      8  C   UNL     1       0.741  -6.195  -1.019  0.00  0.00    +0.022 C 
ATOM      9  C   UNL     1       1.260  -6.424   0.384  0.00  0.00    +0.201 C 
ATOM     10  O   UNL     1       1.906  -7.382   0.753  0.00  0.00    -0.277 OA
ATOM     11  N   UNL     1       0.885  -5.382   1.155  0.00  0.00    -0.311 N 
ATOM     12  H   UNL     1      -1.208  -5.565  -0.740  0.00  0.00    -0.082 HD
ATOM     13  H   UNL     1      -0.300  -4.532  -1.670  0.00  0.00    -0.082 HD
ENDROOT
BRANCH   1  14
ATOM     14  S   UNL     1       0.042  -0.605   2.522  0.00  0.00    +0.032 S 
ATOM     15  O   UNL     1       1.337  -0.023   2.559  0.00  0.00    -0.158 OA
ATOM     16  O   UNL     1      -0.737  -0.717   3.705  0.00  0.00    -0.158 OA
BRANCH  14  18
ATOM     17  C   UNL     1      -1.238   1.606   1.544  0.00  0.00    +0.029 C 
ATOM     18  C   UNL     1      -0.942   0.146   1.195  0.00  0.00    +0.182 C 
ENDBRANCH  14  18
ENDBRANCH   1  14
BRANCH   8  19
ATOM     19  C   UNL     1       0.127  -7.480  -1.578  0.00  0.00    -0.023 C 
ATOM     20  C   UNL     1       1.216  -8.545  -1.722  0.00  0.00    +0.006 C 
ATOM     21  C   UNL     1      -0.957  -7.985  -0.624  0.00  0.00    +0.006 C 
ENDBRANCH   8  19
BRANCH  11  22
ATOM     22  C   UNL     1       1.190  -5.231   2.579  0.00  0.00    +0.072 C 
ATOM     23  C   UNL     1       2.664  -5.558   2.823  0.00  0.00    +0.028 C 
BRANCH  22  24
ATOM     24  C   UNL     1       0.315  -6.187   3.392  0.00  0.00    +0.027 C 
BRANCH  24  25
ATOM     25  C   UNL     1      -1.154  -5.783   3.248  0.00  0.00    +0.037 C 
BRANCH  25  26
ATOM     26  C   UNL     1      -2.015  -6.724   4.049  0.00  0.00    -0.047 A 
ATOM     27  C   UNL     1      -2.509  -7.876   3.464  0.00  0.00    +0.003 A 
ATOM     28  C   UNL     1      -3.300  -8.739   4.199  0.00  0.00    +0.000 A 
ATOM     29  C   UNL     1      -3.596  -8.453   5.518  0.00  0.00    +0.000 A 
ATOM     30  C   UNL     1      -3.101  -7.302   6.103  0.00  0.00    +0.000 A 
ATOM     31  C   UNL     1      -2.307  -6.440   5.370  0.00  0.00    +0.003 A 
ENDBRANCH  25  26
ENDBRANCH  24  25
ENDBRANCH  22  24
ENDBRANCH  11  22
TORSDOF 7
