REMARK  Name = ZINC04343229
REMARK  6 active torsions:
REMARK  status: ('A' for Active; 'I' for Inactive)
REMARK    1  A    between atoms: C_1  and  C_2
REMARK    2  A    between atoms: C_2  and  C_3
REMARK    3  A    between atoms: C_3  and  C_24
REMARK    4  A    between atoms: C_4  and  C_23
REMARK    5  A    between atoms: C_9  and  O_15
REMARK    6  A    between atoms: O_15  and  C_16
REMARK                            x       y       z     vdW  Elec       q    Type
REMARK                         _______ _______ _______ _____ _____    ______ ____
ROOT
ATOM      1  C   UNL     1       5.388   1.797   1.108  0.00  0.00    +0.139 C 
ATOM      2  C   UNL     1       4.785   2.598  -0.054  0.00  0.00    +0.117 C 
ATOM      3  C   UNL     1       3.276   2.561  -0.022  0.00  0.00    +0.048 A 
ATOM      4  C   UNL     1       2.513   3.678  -0.004  0.00  0.00    -0.015 A 
ATOM      5  C   UNL     1       1.130   3.235   0.008  0.00  0.00    +0.007 A 
ATOM      6  C   UNL     1      -0.082   3.933   0.024  0.00  0.00    +0.056 A 
ATOM      7  C   UNL     1      -1.240   3.171   0.031  0.00  0.00    +0.121 A 
ATOM      8  C   UNL     1      -1.202   1.781   0.017  0.00  0.00    +0.047 A 
ATOM      9  C   UNL     1      -0.013   1.076   0.008  0.00  0.00    +0.030 A 
ATOM     10  C   UNL     1       1.166   1.819   0.001  0.00  0.00    +0.047 A 
ATOM     11  N   UNL     1       2.482   1.447  -0.013  0.00  0.00    -0.356 N 
ATOM     12  H   UNL     1       2.803   0.532  -0.015  0.00  0.00    +0.166 HD
ATOM     13  C   UNL     1       3.014   5.099   0.018  0.00  0.00    +0.056 C 
ATOM     14  C   UNL     1       4.502   5.144  -0.361  0.00  0.00    +0.117 C 
ATOM     15  N   UNL     1       5.158   3.995   0.273  0.00  0.00    -0.252 N 
ATOM     16  C   UNL     1       6.096   3.969   1.218  0.00  0.00    +0.404 C 
ATOM     17  O   UNL     1       6.767   4.937   1.520  0.00  0.00    -0.226 OA
ATOM     18  O   UNL     1       6.228   2.769   1.802  0.00  0.00    -0.441 OA
ATOM     19  C   UNL     1       5.347   2.154  -1.406  0.00  0.00    +0.043 C 
ATOM     20  C   UNL     1       6.233   0.637   0.579  0.00  0.00    +0.058 C 
ENDROOT
BRANCH   1  22
ATOM     21  C   UNL     1       4.912   0.485   3.180  0.00  0.00    +0.008 C 
ATOM     22  C   UNL     1       4.285   1.278   2.032  0.00  0.00    +0.047 C 
ENDBRANCH   1  22
BRANCH   7  23
ATOM     23  O   UNL     1      -2.446   3.799   0.046  0.00  0.00    -0.495 OA
ATOM     24  C   UNL     1      -3.610   2.970   0.053  0.00  0.00    +0.277 C 
ENDBRANCH   7  23
TORSDOF 2
