REMARK  Name = ZINC02288814
REMARK  8 active torsions:
REMARK  status: ('A' for Active; 'I' for Inactive)
REMARK    1  A    between atoms: C_1  and  C_2
REMARK    2  A    between atoms: C_5  and  C_7
REMARK    3  A    between atoms: N_12  and  C_26
REMARK    4  A    between atoms: C_16  and  C_24
REMARK    5  A    between atoms: C_17  and  N_23
REMARK    6  A    between atoms: C_18  and  C_19
REMARK    7  A    between atoms: C_18  and  C_21
REMARK    8  A    between atoms: C_26  and  C_27
REMARK                            x       y       z     vdW  Elec       q    Type
REMARK                         _______ _______ _______ _____ _____    ______ ____
ROOT
ATOM      1  C   UNL     1      -0.013   1.086   0.008  0.00  0.00    +0.100 C 
ATOM      2  C   UNL     1       1.422   1.618  -0.003  0.00  0.00    +0.017 C 
ATOM      3  C   UNL     1       2.111   1.353  -1.323  0.00  0.00    -0.069 C 
ATOM      4  N   UNL     1       2.983   0.176  -1.261  0.00  0.00    +0.385 N 
ATOM      5  C   UNL     1       4.026   0.370  -0.238  0.00  0.00    -0.050 C 
ATOM      6  C   UNL     1       3.340   0.492   1.100  0.00  0.00    -0.040 C 
ATOM      7  C   UNL     1       2.142   1.042   1.183  0.00  0.00    -0.032 C 
ATOM      8  C   UNL     1       1.427   1.059   2.483  0.00  0.00    +0.074 C 
ATOM      9  C   UNL     1       0.092   1.301   2.503  0.00  0.00    +0.054 C 
ATOM     10  C   UNL     1      -0.716   1.581   1.272  0.00  0.00    +0.191 C 
ATOM     11  H   UNL     1       2.369  -0.692  -0.979  0.00  0.00    -0.081 HD
ENDROOT
BRANCH   1  16
ATOM     12  C   UNL     1      -2.073   4.217  -3.367  0.00  0.00    +0.086 C 
ATOM     13  C   UNL     1      -1.642   2.949  -2.677  0.00  0.00    +0.102 A 
ATOM     14  C   UNL     1      -1.879   1.698  -3.110  0.00  0.00    +0.044 A 
ATOM     15  C   UNL     1      -1.301   0.820  -2.164  0.00  0.00    +0.045 A 
ATOM     16  C   UNL     1      -0.746   1.587  -1.210  0.00  0.00    +0.112 A 
ATOM     17  O   UNL     1      -0.960   2.876  -1.522  0.00  0.00    -0.464 OA
ENDBRANCH   1  16
BRANCH   9  18
ATOM     18  N   UNL     1      -0.550   1.288   3.709  0.00  0.00    -0.358 N 
ATOM     19  H   UNL     1      -1.632   1.480   3.759  0.00  0.00    +0.142 HD
ATOM     20  H   UNL     1       0.014   1.085   4.631  0.00  0.00    +0.142 HD
ENDBRANCH   9  18
BRANCH  10  21
ATOM     21  C   UNL     1      -0.935   3.033   1.162  0.00  0.00    +0.091 C 
ATOM     22  N   UNL     1      -1.103   4.153   1.077  0.00  0.00    -0.194 NA
ENDBRANCH  10  21
BRANCH  10  23
ATOM     23  C   UNL     1      -2.020   0.909   1.390  0.00  0.00    +0.091 C 
ATOM     24  N   UNL     1      -3.027   0.390   1.482  0.00  0.00    -0.194 NA
ENDBRANCH  10  23
BRANCH   8  25
ATOM     25  C   UNL     1       2.138   0.822   3.704  0.00  0.00    +0.101 C 
ATOM     26  N   UNL     1       2.702   0.634   4.671  0.00  0.00    -0.191 NA
ENDBRANCH   8  25
BRANCH   4  27
ATOM     27  C   UNL     1       3.578  -0.107  -2.573  0.00  0.00    -0.043 C 
BRANCH  27  28
ATOM     28  C   UNL     1       4.332   1.105  -3.056  0.00  0.00    -0.064 A 
ATOM     29  C   UNL     1       3.688   2.061  -3.819  0.00  0.00    +0.002 A 
ATOM     30  C   UNL     1       4.378   3.175  -4.258  0.00  0.00    +0.000 A 
ATOM     31  C   UNL     1       5.715   3.329  -3.941  0.00  0.00    +0.000 A 
ATOM     32  C   UNL     1       6.361   2.370  -3.183  0.00  0.00    +0.000 A 
ATOM     33  C   UNL     1       5.669   1.258  -2.740  0.00  0.00    +0.002 A 
ENDBRANCH  27  28
ENDBRANCH   4  27
TORSDOF 7
