REMARK  Name = ZINC36151582
REMARK  2 active torsions:
REMARK  status: ('A' for Active; 'I' for Inactive)
REMARK    1  A    between atoms: C_4  and  C_7
REMARK    2  A    between atoms: C_7  and  C_8
REMARK                            x       y       z     vdW  Elec       q    Type
REMARK                         _______ _______ _______ _____ _____    ______ ____
ROOT
ATOM      1  C   UNL     1       4.164  -0.959   1.377  0.00  0.00    +0.156 A 
ATOM      2  N   UNL     1       4.906  -0.168   2.104  0.00  0.00    -0.132 NA
ATOM      3  N   UNL     1       5.107  -0.689   3.267  0.00  0.00    -0.121 NA
ATOM      4  C   UNL     1       4.503  -1.837   3.333  0.00  0.00    +0.209 A 
ATOM      5  N   UNL     1       3.871  -2.053   2.136  0.00  0.00    -0.225 N 
ATOM      6  N   UNL     1       3.114  -3.137   1.788  0.00  0.00    -0.277 N 
ATOM      7  C   UNL     1       2.553  -3.804   2.946  0.00  0.00    +0.101 C 
ATOM      8  C   UNL     1       1.660  -5.010   2.665  0.00  0.00    +0.025 C 
ATOM      9  C   UNL     1       1.845  -5.956   3.874  0.00  0.00    +0.003 C 
ATOM     10  C   UNL     1       2.900  -5.290   4.795  0.00  0.00    +0.016 C 
ATOM     11  C   UNL     1       3.692  -4.409   3.820  0.00  0.00    +0.076 C 
ATOM     12  S   UNL     1       4.438  -2.988   4.680  0.00  0.00    -0.079 S 
ATOM     13  H   UNL     1       2.390  -2.877   1.135  0.00  0.00    +0.167 HD
ENDROOT
BRANCH   1  14
ATOM     14  C   UNL     1       3.711  -0.707  -0.038  0.00  0.00    +0.113 C 
BRANCH  14  18
ATOM     15  C   UNL     1      -0.017   1.378   0.010  0.00  0.00    +0.000 A 
ATOM     16  C   UNL     1       1.171   2.086   0.002  0.00  0.00    +0.000 A 
ATOM     17  C   UNL     1       2.377   1.411  -0.013  0.00  0.00    +0.004 A 
ATOM     18  C   UNL     1       2.396   0.029  -0.020  0.00  0.00    -0.040 A 
ATOM     19  C   UNL     1       1.208  -0.679  -0.012  0.00  0.00    +0.004 A 
ATOM     20  C   UNL     1       0.002  -0.004   0.002  0.00  0.00    +0.000 A 
ENDBRANCH  14  18
ENDBRANCH   1  14
TORSDOF 2
