REMARK  Name = ZINC39444326
REMARK  7 active torsions:
REMARK  status: ('A' for Active; 'I' for Inactive)
REMARK    1  A    between atoms: C_1  and  C_2
REMARK    2  A    between atoms: C_10  and  C_14
REMARK    3  A    between atoms: C_14  and  C_16
REMARK    4  A    between atoms: C_14  and  S_17
REMARK    5  A    between atoms: S_17  and  C_18
REMARK    6  A    between atoms: N_22  and  C_23
REMARK    7  A    between atoms: C_23  and  C_24
REMARK                            x       y       z     vdW  Elec       q    Type
REMARK                         _______ _______ _______ _____ _____    ______ ____
ROOT
ATOM      1  C   UNL     1      -0.019   1.526   0.010  0.00  0.00    +0.007 C 
ATOM      2  C   UNL     1       0.002  -0.004   0.002  0.00  0.00    -0.012 C 
ATOM      3  C   UNL     1       0.702  -0.489  -1.265  0.00  0.00    +0.008 C 
ATOM      4  C   UNL     1       2.123   0.085  -1.344  0.00  0.00    +0.033 C 
ATOM      5  C   UNL     1       2.809  -0.264  -0.025  0.00  0.00    -0.042 C 
ATOM      6  C   UNL     1       3.969  -0.911   0.083  0.00  0.00    +0.071 C 
ATOM      7  C   UNL     1       4.411  -1.344   1.435  0.00  0.00    +0.112 C 
ATOM      8  N   UNL     1       5.516  -2.025   1.629  0.00  0.00    -0.226 NA
ATOM      9  C   UNL     1       6.254  -2.325   0.560  0.00  0.00    +0.137 C 
ATOM     10  N   UNL     1       5.969  -1.998  -0.674  0.00  0.00    -0.160 NA
ATOM     11  C   UNL     1       4.875  -1.309  -1.047  0.00  0.00    +0.271 C 
ATOM     12  O   UNL     1       4.637  -1.030  -2.210  0.00  0.00    -0.268 OA
ATOM     13  S   UNL     1       3.169  -0.735   2.531  0.00  0.00    -0.097 S 
ATOM     14  C   UNL     1       2.124   0.120   1.289  0.00  0.00    +0.080 C 
ATOM     15  C   UNL     1       0.729  -0.504   1.254  0.00  0.00    +0.022 C 
ENDROOT
BRANCH   9  16
ATOM     16  C   UNL     1       7.523  -3.104   0.793  0.00  0.00    +0.117 C 
ATOM     17  C   UNL     1       8.703  -2.136   0.906  0.00  0.00    +0.027 C 
BRANCH  16  18
ATOM     18  S   UNL     1       7.801  -4.236  -0.596  0.00  0.00    -0.074 S 
BRANCH  18  19
ATOM     19  C   UNL     1       9.217  -5.166  -0.112  0.00  0.00    +0.210 A 
ATOM     20  N   UNL     1       9.887  -5.041   1.014  0.00  0.00    -0.101 NA
ATOM     21  N   UNL     1      10.865  -5.872   1.049  0.00  0.00    -0.022 NA
ATOM     22  N   UNL     1      10.894  -6.577  -0.029  0.00  0.00    -0.043 NA
ATOM     23  N   UNL     1       9.817  -6.148  -0.825  0.00  0.00    -0.215 N 
BRANCH  23  24
ATOM     24  C   UNL     1       9.429  -6.653  -2.144  0.00  0.00    +0.190 C 
BRANCH  24  25
ATOM     25  C   UNL     1      10.139  -5.864  -3.213  0.00  0.00    +0.011 A 
ATOM     26  C   UNL     1      11.339  -6.103  -3.796  0.00  0.00    +0.013 A 
ATOM     27  C   UNL     1      11.798  -5.233  -4.768  0.00  0.00    +0.008 A 
ATOM     28  C   UNL     1      11.034  -4.166  -5.109  0.00  0.00    +0.045 A 
ATOM     29  S   UNL     1       9.614  -4.374  -4.046  0.00  0.00    -0.100 S 
ENDBRANCH  24  25
ENDBRANCH  23  24
ENDBRANCH  18  19
ENDBRANCH  16  18
ENDBRANCH   9  16
TORSDOF 5
