REMARK  Name = ZINC14245428
REMARK  4 active torsions:
REMARK  status: ('A' for Active; 'I' for Inactive)
REMARK    1  A    between atoms: C_1  and  C_2
REMARK    2  A    between atoms: C_2  and  C_3
REMARK    3  A    between atoms: C_3  and  N_4
REMARK    4  A    between atoms: C_13  and  C_15
REMARK                            x       y       z     vdW  Elec       q    Type
REMARK                         _______ _______ _______ _____ _____    ______ ____
ROOT
ATOM      1  N   UNL     1      -1.071   1.852  -0.959  0.00  0.00    -0.228 N 
ATOM      2  C   UNL     1      -0.421   2.810  -1.651  0.00  0.00    +0.275 A 
ATOM      3  O   UNL     1       0.426   3.501  -1.114  0.00  0.00    -0.266 OA
ATOM      4  C   UNL     1      -0.755   2.998  -3.070  0.00  0.00    +0.050 A 
ATOM      5  C   UNL     1      -0.139   3.954  -3.871  0.00  0.00    +0.014 A 
ATOM      6  C   UNL     1      -0.514   4.071  -5.193  0.00  0.00    +0.001 A 
ATOM      7  C   UNL     1      -1.496   3.246  -5.728  0.00  0.00    +0.001 A 
ATOM      8  C   UNL     1      -2.117   2.292  -4.950  0.00  0.00    +0.011 A 
ATOM      9  C   UNL     1      -1.754   2.158  -3.614  0.00  0.00    +0.020 A 
ATOM     10  C   UNL     1      -2.368   1.166  -2.717  0.00  0.00    +0.154 A 
ATOM     11  N   UNL     1      -1.972   1.100  -1.469  0.00  0.00    -0.163 NA
ENDROOT
BRANCH  10  12
ATOM     12  C   UNL     1      -3.416   0.255  -3.217  0.00  0.00    +0.268 C 
ATOM     13  O   UNL     1      -4.123   0.593  -4.146  0.00  0.00    -0.268 OA
ATOM     14  N   UNL     1      -3.590  -0.953  -2.643  0.00  0.00    -0.293 N 
ATOM     15  C   UNL     1      -2.808  -1.342  -1.461  0.00  0.00    +0.108 C 
ATOM     16  C   UNL     1      -2.130  -2.684  -1.730  0.00  0.00    +0.019 C 
ATOM     17  C   UNL     1      -3.179  -3.712  -2.163  0.00  0.00    +0.007 C 
ATOM     18  C   UNL     1      -3.846  -3.237  -3.459  0.00  0.00    +0.010 C 
ATOM     19  C   UNL     1      -4.559  -1.910  -3.188  0.00  0.00    +0.079 C 
ATOM     20  C   UNL     1      -5.160  -1.371  -4.482  0.00  0.00    +0.023 C 
ATOM     21  C   UNL     1      -4.080  -1.163  -5.526  0.00  0.00    +0.002 C 
ATOM     22  C   UNL     1      -3.401  -2.505  -5.811  0.00  0.00    +0.000 C 
ATOM     23  C   UNL     1      -2.765  -3.032  -4.523  0.00  0.00    +0.005 C 
ENDBRANCH  10  12
BRANCH   1  24
ATOM     24  C   UNL     1      -0.730   1.665   0.453  0.00  0.00    +0.147 C 
BRANCH  24  26
ATOM     25  C   UNL     1      -1.266   2.365   2.791  0.00  0.00    +0.005 C 
ATOM     26  C   UNL     1      -1.622   2.560   1.316  0.00  0.00    +0.020 C 
ENDBRANCH  24  26
ENDBRANCH   1  24
TORSDOF 3
