REMARK  Name = ZINC66482794
REMARK  5 active torsions:
REMARK  status: ('A' for Active; 'I' for Inactive)
REMARK    1  A    between atoms: C_1  and  C_2
REMARK    2  A    between atoms: C_7  and  C_24
REMARK    3  A    between atoms: N_12  and  C_16
REMARK    4  A    between atoms: C_16  and  C_17
REMARK    5  A    between atoms: C_17  and  O_23
REMARK                            x       y       z     vdW  Elec       q    Type
REMARK                         _______ _______ _______ _____ _____    ______ ____
ROOT
ATOM      1  C   UNL     1      -0.019   1.526   0.010  0.00  0.00    +0.010 C 
ATOM      2  C   UNL     1       0.002  -0.004   0.002  0.00  0.00    +0.019 C 
ATOM      3  C   UNL     1       0.718  -0.498  -1.258  0.00  0.00    +0.006 C 
ATOM      4  C   UNL     1       0.756  -2.027  -1.255  0.00  0.00    +0.001 C 
ATOM      5  C   UNL     1       1.516  -2.519  -0.021  0.00  0.00    +0.006 C 
ATOM      6  C   UNL     1       0.803  -2.032   1.243  0.00  0.00    +0.019 C 
ATOM      7  C   UNL     1       0.739  -0.509   1.238  0.00  0.00    +0.118 C 
ATOM      8  C   UNL     1       0.069  -0.004   2.495  0.00  0.00    +0.247 C 
ATOM      9  O   UNL     1      -1.064  -0.228   2.863  0.00  0.00    -0.273 OA
ATOM     10  N   UNL     1       0.998   0.746   3.122  0.00  0.00    -0.221 N 
ATOM     11  C   UNL     1       2.148   0.781   2.437  0.00  0.00    +0.309 C 
ATOM     12  O   UNL     1       3.133   1.393   2.801  0.00  0.00    -0.252 OA
ATOM     13  N   UNL     1       2.091   0.063   1.300  0.00  0.00    -0.284 N 
ATOM     14  C   UNL     1      -0.617  -2.602   1.279  0.00  0.00    +0.010 C 
ATOM     15  H   UNL     1       2.801  -0.054   0.650  0.00  0.00    +0.151 HD
ENDROOT
BRANCH  10  16
ATOM     16  C   UNL     1       0.777   1.438   4.394  0.00  0.00    +0.152 C 
BRANCH  16  17
ATOM     17  C   UNL     1       1.160   0.512   5.551  0.00  0.00    +0.082 C 
ATOM     18  C   UNL     1       0.388  -0.803   5.429  0.00  0.00    +0.036 C 
ATOM     19  C   UNL     1       0.771  -1.728   6.586  0.00  0.00    +0.003 C 
ATOM     20  C   UNL     1       0.423  -1.054   7.915  0.00  0.00    +0.000 C 
ATOM     21  C   UNL     1       1.195   0.261   8.037  0.00  0.00    +0.003 C 
ATOM     22  C   UNL     1       0.812   1.186   6.880  0.00  0.00    +0.036 C 
BRANCH  17  23
ATOM     23  O   UNL     1       2.563   0.247   5.504  0.00  0.00    -0.387 OA
ATOM     24  H   UNL     1       2.856  -0.180   4.688  0.00  0.00    +0.210 HD
ENDBRANCH  17  23
ENDBRANCH  16  17
ENDBRANCH  10  16
TORSDOF 3
