REMARK  Name = ZINC01390942
REMARK  6 active torsions:
REMARK  status: ('A' for Active; 'I' for Inactive)
REMARK    1  A    between atoms: C_1  and  C_2
REMARK    2  A    between atoms: C_12  and  C_17
REMARK    3  A    between atoms: N_19  and  C_20
REMARK    4  A    between atoms: C_20  and  C_21
REMARK    5  A    between atoms: C_20  and  C_22
REMARK    6  A    between atoms: C_20  and  C_23
REMARK                            x       y       z     vdW  Elec       q    Type
REMARK                         _______ _______ _______ _____ _____    ______ ____
ROOT
ATOM      1  C   UNL     1       2.900  -9.679   4.640  0.00  0.00    +0.044 C 
ATOM      2  C   UNL     1       2.286  -8.750   3.624  0.00  0.00    -0.050 A 
ATOM      3  C   UNL     1       1.640  -9.271   2.513  0.00  0.00    +0.007 A 
ATOM      4  C   UNL     1       1.072  -8.437   1.574  0.00  0.00    +0.047 A 
ATOM      5  C   UNL     1       1.142  -7.056   1.732  0.00  0.00    +0.141 A 
ATOM      6  C   UNL     1       1.797  -6.533   2.857  0.00  0.00    +0.065 A 
ATOM      7  C   UNL     1       2.369  -7.386   3.801  0.00  0.00    +0.018 A 
ATOM      8  C   UNL     1       1.869  -5.066   3.019  0.00  0.00    +0.202 A 
ATOM      9  O   UNL     1       2.423  -4.556   3.974  0.00  0.00    -0.286 OA
ATOM     10  C   UNL     1       1.232  -4.252   1.965  0.00  0.00    +0.085 A 
ATOM     11  C   UNL     1       1.246  -2.861   2.028  0.00  0.00    +0.031 A 
ATOM     12  C   UNL     1       0.624  -2.152   0.995  0.00  0.00    +0.056 A 
ATOM     13  C   UNL     1       0.017  -2.866  -0.043  0.00  0.00    +0.127 A 
ATOM     14  N   UNL     1       0.029  -4.179  -0.070  0.00  0.00    -0.220 NA
ATOM     15  C   UNL     1       0.606  -4.901   0.886  0.00  0.00    +0.231 A 
ATOM     16  O   UNL     1       0.584  -6.245   0.810  0.00  0.00    -0.437 OA
ENDROOT
BRANCH  12  17
ATOM     17  C   UNL     1       0.604  -0.675   1.004  0.00  0.00    +0.246 C 
ATOM     18  O   UNL     1       1.131  -0.065   1.914  0.00  0.00    -0.270 OA
ATOM     19  N   UNL     1       0.002  -0.004   0.002  0.00  0.00    -0.307 N 
ATOM     20  H   UNL     1      -0.418  -0.491  -0.724  0.00  0.00    +0.150 HD
BRANCH  19  21
ATOM     21  C   UNL     1      -0.018   1.461   0.010  0.00  0.00    +0.026 C 
ATOM     22  C   UNL     1       1.418   1.990  -0.001  0.00  0.00    +0.031 C 
ATOM     23  C   UNL     1      -0.758   1.968  -1.230  0.00  0.00    +0.031 C 
ATOM     24  C   UNL     1      -0.734   1.954   1.269  0.00  0.00    +0.031 C 
ENDBRANCH  19  21
ENDBRANCH  12  17
TORSDOF 2
