REMARK  Name = ZINC44450571
REMARK  7 active torsions:
REMARK  status: ('A' for Active; 'I' for Inactive)
REMARK    1  A    between atoms: C_1  and  C_2
REMARK    2  A    between atoms: C_2  and  C_4
REMARK    3  A    between atoms: C_2  and  N_19
REMARK    4  A    between atoms: N_6  and  C_7
REMARK    5  A    between atoms: C_7  and  C_8
REMARK    6  A    between atoms: C_13  and  O_14
REMARK    7  A    between atoms: O_14  and  C_15
REMARK                            x       y       z     vdW  Elec       q    Type
REMARK                         _______ _______ _______ _____ _____    ______ ____
ROOT
ATOM      1  C   UNL     1       0.707  -0.490  -1.238  0.00  0.00    +0.238 C 
ATOM      2  O   UNL     1       1.704  -1.174  -1.140  0.00  0.00    -0.273 OA
ATOM      3  N   UNL     1       0.231  -0.164  -2.456  0.00  0.00    -0.309 N 
ATOM      4  H   UNL     1      -0.566   0.383  -2.534  0.00  0.00    +0.149 HD
ENDROOT
BRANCH   1   6
ATOM      5  C   UNL     1      -0.019   1.526   0.010  0.00  0.00    +0.043 C 
ATOM      6  C   UNL     1       0.002  -0.004   0.002  0.00  0.00    +0.195 C 
BRANCH   6   7
ATOM      7  N   UNL     1       0.711  -0.489   1.189  0.00  0.00    -0.199 N 
ATOM      8  C   UNL     1       0.073  -1.286   2.079  0.00  0.00    +0.278 A 
ATOM      9  O   UNL     1      -1.089  -1.613   1.916  0.00  0.00    -0.265 OA
ATOM     10  C   UNL     1       0.838  -1.740   3.250  0.00  0.00    +0.068 A 
ATOM     11  C   UNL     1       0.271  -2.563   4.221  0.00  0.00    +0.015 A 
ATOM     12  C   UNL     1       1.028  -2.963   5.300  0.00  0.00    +0.001 A 
ATOM     13  C   UNL     1       2.349  -2.553   5.426  0.00  0.00    +0.002 A 
ATOM     14  C   UNL     1       2.928  -1.740   4.478  0.00  0.00    +0.030 A 
ATOM     15  C   UNL     1       2.181  -1.321   3.374  0.00  0.00    +0.100 A 
ATOM     16  N   UNL     1       2.719  -0.521   2.420  0.00  0.00    -0.131 NA
ATOM     17  N   UNL     1       2.046  -0.134   1.398  0.00  0.00    -0.061 NA
ENDBRANCH   6   7
ENDBRANCH   1   6
BRANCH   3  18
ATOM     18  C   UNL     1       0.917  -0.637  -3.661  0.00  0.00    +0.143 C 
BRANCH  18  19
ATOM     19  C   UNL     1       0.188  -0.137  -4.882  0.00  0.00    +0.012 A 
ATOM     20  C   UNL     1      -0.679  -0.973  -5.559  0.00  0.00    +0.009 A 
ATOM     21  C   UNL     1      -1.348  -0.516  -6.680  0.00  0.00    +0.001 A 
ATOM     22  C   UNL     1      -1.151   0.778  -7.125  0.00  0.00    +0.004 A 
ATOM     23  C   UNL     1      -0.286   1.618  -6.451  0.00  0.00    +0.046 A 
ATOM     24  C   UNL     1       0.383   1.163  -5.323  0.00  0.00    +0.135 A 
BRANCH  24  25
ATOM     25  O   UNL     1       1.230   1.989  -4.655  0.00  0.00    -0.405 OA
BRANCH  25  26
ATOM     26  C   UNL     1       1.382   3.315  -5.166  0.00  0.00    +0.575 C 
ATOM     27  F   UNL     1       0.142   3.962  -5.158  0.00  0.00    -0.133 F 
ATOM     28  F   UNL     1       2.283   4.023  -4.365  0.00  0.00    -0.133 F 
ATOM     29  F   UNL     1       1.869   3.256  -6.476  0.00  0.00    -0.133 F 
ENDBRANCH  25  26
ENDBRANCH  24  25
ENDBRANCH  18  19
ENDBRANCH   3  18
TORSDOF 6
