REMARK  Name = ZINC05123318
REMARK  4 active torsions:
REMARK  status: ('A' for Active; 'I' for Inactive)
REMARK    1  A    between atoms: C_1  and  C_2
REMARK    2  A    between atoms: C_5  and  N_8
REMARK    3  A    between atoms: C_10  and  N_15
REMARK    4  A    between atoms: C_23  and  C_25
REMARK                            x       y       z     vdW  Elec       q    Type
REMARK                         _______ _______ _______ _____ _____    ______ ____
ROOT
ATOM      1  N   UNL     1       3.643  -0.510  -0.079  0.00  0.00    -0.270 N 
ATOM      2  C   UNL     1       4.967   0.111  -0.202  0.00  0.00    +0.136 C 
ATOM      3  C   UNL     1       5.928  -1.037  -0.583  0.00  0.00    +0.101 C 
ATOM      4  C   UNL     1       5.191  -2.268  -0.006  0.00  0.00    +0.120 C 
ATOM      5  C   UNL     1       3.740  -1.845   0.044  0.00  0.00    +0.222 C 
ATOM      6  O   UNL     1       2.800  -2.601   0.173  0.00  0.00    -0.275 OA
ENDROOT
BRANCH   3   7
ATOM      7  N   UNL     1       7.234  -0.861   0.055  0.00  0.00    -0.294 N 
ATOM      8  C   UNL     1       8.334  -1.411  -0.497  0.00  0.00    +0.303 C 
ATOM      9  O   UNL     1       8.257  -1.974  -1.573  0.00  0.00    -0.253 OA
ATOM     10  N   UNL     1       9.518  -1.339   0.142  0.00  0.00    -0.283 N 
ATOM     11  C   UNL     1       9.603  -0.780   1.498  0.00  0.00    +0.109 C 
ATOM     12  C   UNL     1      10.658   0.331   1.509  0.00  0.00    +0.019 C 
ATOM     13  C   UNL     1      11.981  -0.223   0.973  0.00  0.00    +0.003 C 
ATOM     14  C   UNL     1      11.790  -0.695  -0.471  0.00  0.00    +0.022 C 
ATOM     15  C   UNL     1      10.747  -1.822  -0.501  0.00  0.00    +0.074 C 
ATOM     16  C   UNL     1      10.449  -2.208  -1.951  0.00  0.00    +0.028 C 
ATOM     17  H   UNL     1       7.309  -0.348   0.875  0.00  0.00    +0.151 HD
ENDBRANCH   3   7
BRANCH   1  22
ATOM     18  C   UNL     1      -1.252   2.357  -0.092  0.00  0.00    +0.044 C 
ATOM     19  C   UNL     1       0.048   1.595  -0.093  0.00  0.00    -0.050 A 
ATOM     20  C   UNL     1       0.038   0.212  -0.081  0.00  0.00    +0.005 A 
ATOM     21  C   UNL     1       1.228  -0.489  -0.076  0.00  0.00    +0.024 A 
ATOM     22  C   UNL     1       2.436   0.197  -0.083  0.00  0.00    +0.036 A 
ATOM     23  C   UNL     1       2.442   1.586  -0.095  0.00  0.00    +0.024 A 
ATOM     24  C   UNL     1       1.249   2.280  -0.100  0.00  0.00    +0.005 A 
ENDBRANCH   1  22
TORSDOF 2
