REMARK  Name = ZINC04522782
REMARK  3 active torsions:
REMARK  status: ('A' for Active; 'I' for Inactive)
REMARK    1  A    between atoms: C_4  and  C_7
REMARK    2  A    between atoms: C_7  and  C_9
REMARK    3  A    between atoms: C_14  and  N_15
REMARK                            x       y       z     vdW  Elec       q    Type
REMARK                         _______ _______ _______ _____ _____    ______ ____
ROOT
ATOM      1  C   UNL     1      -0.076   1.318  -0.021  0.00  0.00    +0.044 A 
ATOM      2  C   UNL     1       1.177   1.927   0.033  0.00  0.00    +0.014 A 
ATOM      3  C   UNL     1       2.325   1.161   0.110  0.00  0.00    +0.013 A 
ATOM      4  C   UNL     1       2.244  -0.229   0.135  0.00  0.00    +0.035 A 
ATOM      5  C   UNL     1       0.989  -0.861   0.081  0.00  0.00    +0.054 A 
ATOM      6  C   UNL     1      -0.177  -0.086   0.003  0.00  0.00    +0.047 A 
ATOM      7  C   UNL     1       0.898  -2.330   0.107  0.00  0.00    +0.196 C 
ATOM      8  O   UNL     1      -0.188  -2.874   0.062  0.00  0.00    -0.287 OA
ATOM      9  C   UNL     1       2.129  -3.145   0.190  0.00  0.00    +0.033 A 
ATOM     10  C   UNL     1       2.051  -4.534   0.215  0.00  0.00    +0.012 A 
ATOM     11  C   UNL     1       3.209  -5.288   0.293  0.00  0.00    +0.001 A 
ATOM     12  C   UNL     1       4.445  -4.671   0.346  0.00  0.00    +0.001 A 
ATOM     13  C   UNL     1       4.541  -3.291   0.322  0.00  0.00    +0.012 A 
ATOM     14  C   UNL     1       3.386  -2.517   0.243  0.00  0.00    +0.033 A 
ATOM     15  C   UNL     1       3.478  -1.043   0.217  0.00  0.00    +0.195 C 
ATOM     16  O   UNL     1       4.563  -0.499   0.264  0.00  0.00    -0.287 OA
ENDROOT
BRANCH   6  17
ATOM     17  N   UNL     1      -1.413  -0.694  -0.051  0.00  0.00    -0.357 N 
ATOM     18  H   UNL     1      -1.501  -1.582  -0.432  0.00  0.00    +0.142 HD
ATOM     19  H   UNL     1      -2.196  -0.235   0.292  0.00  0.00    +0.142 HD
ENDBRANCH   6  17
BRANCH   1  20
ATOM     20  C   UNL     1      -1.295   2.145  -0.110  0.00  0.00    +0.195 C 
ATOM     21  O   UNL     1      -1.708   2.726   0.875  0.00  0.00    -0.287 OA
BRANCH  20  25
ATOM     22  C   UNL     1      -3.361   2.494  -3.804  0.00  0.00    +0.000 A 
ATOM     23  C   UNL     1      -3.838   3.151  -2.683  0.00  0.00    +0.001 A 
ATOM     24  C   UNL     1      -3.172   3.042  -1.480  0.00  0.00    +0.012 A 
ATOM     25  C   UNL     1      -2.014   2.266  -1.395  0.00  0.00    +0.022 A 
ATOM     26  C   UNL     1      -1.535   1.610  -2.531  0.00  0.00    +0.012 A 
ATOM     27  C   UNL     1      -2.214   1.724  -3.726  0.00  0.00    +0.001 A 
ENDBRANCH  20  25
ENDBRANCH   1  20
TORSDOF 3
