REMARK  Name = ZINC04949631
REMARK  4 active torsions:
REMARK  status: ('A' for Active; 'I' for Inactive)
REMARK    1  A    between atoms: C_1  and  C_2
REMARK    2  A    between atoms: N_5  and  C_16
REMARK    3  A    between atoms: C_9  and  C_11
REMARK    4  A    between atoms: C_19  and  N_23
REMARK                            x       y       z     vdW  Elec       q    Type
REMARK                         _______ _______ _______ _____ _____    ______ ____
ROOT
ATOM      1  C   UNL     1      -0.120   1.484   0.107  0.00  0.00    +0.029 C 
ATOM      2  C   UNL     1      -0.059  -0.044   0.066  0.00  0.00    +0.091 C 
ATOM      3  C   UNL     1      -1.471  -0.620   0.233  0.00  0.00    +0.127 C 
ATOM      4  N   UNL     1      -1.911  -0.391   1.616  0.00  0.00    -0.324 N 
ATOM      5  C   UNL     1      -1.071  -0.881   2.718  0.00  0.00    +0.124 C 
ATOM      6  C   UNL     1       0.341  -0.305   2.551  0.00  0.00    +0.127 C 
ATOM      7  N   UNL     1       0.784  -0.534   1.165  0.00  0.00    -0.289 N 
ATOM      8  C   UNL     1       1.938  -1.183   0.908  0.00  0.00    +0.282 C 
ATOM      9  O   UNL     1       2.338  -1.281  -0.237  0.00  0.00    -0.267 OA
ENDROOT
BRANCH   4  10
ATOM     10  C   UNL     1      -3.108   0.282   1.879  0.00  0.00    +0.066 A 
ATOM     11  C   UNL     1      -3.130   1.670   1.929  0.00  0.00    +0.028 A 
ATOM     12  C   UNL     1      -4.314   2.332   2.189  0.00  0.00    +0.035 A 
ATOM     13  C   UNL     1      -5.478   1.615   2.400  0.00  0.00    +0.129 A 
ATOM     14  C   UNL     1      -5.462   0.233   2.352  0.00  0.00    +0.073 A 
ATOM     15  C   UNL     1      -4.281  -0.436   2.087  0.00  0.00    +0.146 A 
ATOM     16  F   UNL     1      -4.266  -1.786   2.034  0.00  0.00    -0.203 F 
BRANCH  13  17
ATOM     17  N   UNL     1      -6.745   2.329   2.678  0.00  0.00    +0.057 N 
ATOM     18  O   UNL     1      -6.761   3.537   2.721  0.00  0.00    -0.126 OA
ATOM     19  O   UNL     1      -7.763   1.704   2.862  0.00  0.00    -0.126 OA
ENDBRANCH  13  17
ENDBRANCH   4  10
BRANCH   8  20
ATOM     20  C   UNL     1       2.709  -1.771   2.008  0.00  0.00    +0.189 A 
ATOM     21  C   UNL     1       3.821  -2.553   1.879  0.00  0.00    +0.054 A 
ATOM     22  C   UNL     1       4.230  -2.890   3.179  0.00  0.00    +0.042 A 
ATOM     23  C   UNL     1       3.361  -2.306   4.033  0.00  0.00    +0.196 A 
ATOM     24  O   UNL     1       2.449  -1.629   3.324  0.00  0.00    -0.458 OA
ENDBRANCH   8  20
TORSDOF 3
