REMARK  Name = ZINC58245054
REMARK  4 active torsions:
REMARK  status: ('A' for Active; 'I' for Inactive)
REMARK    1  A    between atoms: C_1  and  C_2
REMARK    2  A    between atoms: C_2  and  C_3
REMARK    3  A    between atoms: C_2  and  N_4
REMARK    4  A    between atoms: C_6  and  N_11
REMARK                            x       y       z     vdW  Elec       q    Type
REMARK                         _______ _______ _______ _____ _____    ______ ____
ROOT
ATOM      1  N   UNL     1      -2.911  -3.288   0.204  0.00  0.00    -0.294 N 
ATOM      2  C   UNL     1      -3.905  -4.227   0.352  0.00  0.00    +0.289 A 
ATOM      3  N   UNL     1      -5.150  -4.067  -0.021  0.00  0.00    -0.195 NA
ATOM      4  C   UNL     1      -5.845  -5.198   0.281  0.00  0.00    +0.111 A 
ATOM      5  C   UNL     1      -7.175  -5.584   0.116  0.00  0.00    +0.031 A 
ATOM      6  C   UNL     1      -7.582  -6.831   0.537  0.00  0.00    +0.002 A 
ATOM      7  C   UNL     1      -6.678  -7.703   1.123  0.00  0.00    +0.004 A 
ATOM      8  C   UNL     1      -5.359  -7.334   1.293  0.00  0.00    +0.048 A 
ATOM      9  C   UNL     1      -4.933  -6.084   0.874  0.00  0.00    +0.157 A 
ATOM     10  O   UNL     1      -3.740  -5.446   0.895  0.00  0.00    -0.425 OA
ATOM     11  H   UNL     1      -2.009  -3.485   0.502  0.00  0.00    +0.151 HD
ENDROOT
BRANCH   1  14
ATOM     12  N   UNL     1      -1.372  -0.511   0.012  0.00  0.00    -0.297 N 
ATOM     13  C   UNL     1      -1.948  -1.365  -1.033  0.00  0.00    +0.130 C 
ATOM     14  C   UNL     1      -3.213  -1.990  -0.405  0.00  0.00    +0.101 C 
ATOM     15  C   UNL     1      -3.579  -0.944   0.673  0.00  0.00    +0.119 C 
ATOM     16  C   UNL     1      -2.267  -0.259   0.984  0.00  0.00    +0.218 C 
ATOM     17  O   UNL     1      -2.053   0.422   1.965  0.00  0.00    -0.276 OA
BRANCH  12  19
ATOM     18  C   UNL     1      -0.019   1.526   0.010  0.00  0.00    +0.028 C 
ATOM     19  C   UNL     1       0.002  -0.004   0.002  0.00  0.00    +0.070 C 
ATOM     20  C   UNL     1       0.742  -0.511   1.242  0.00  0.00    +0.028 C 
ENDBRANCH  12  19
ENDBRANCH   1  14
TORSDOF 2
