REMARK  Name = ZINC40139911
REMARK  5 active torsions:
REMARK  status: ('A' for Active; 'I' for Inactive)
REMARK    1  A    between atoms: C_4  and  C_10
REMARK    2  A    between atoms: C_6  and  N_7
REMARK    3  A    between atoms: C_11  and  C_12
REMARK    4  A    between atoms: C_11  and  C_14
REMARK    5  A    between atoms: C_14  and  C_16
REMARK                            x       y       z     vdW  Elec       q    Type
REMARK                         _______ _______ _______ _____ _____    ______ ____
ROOT
ATOM      1  C   UNL     1       3.721  -0.718  -0.244  0.00  0.00    +0.032 C 
ATOM      2  C   UNL     1       3.718  -2.059   0.067  0.00  0.00    +0.100 C 
ENDROOT
BRANCH   1   6
ATOM      3  C   UNL     1       0.164   1.153  -1.589  0.00  0.00    +0.034 A 
ATOM      4  C   UNL     1       1.020   1.834  -0.741  0.00  0.00    +0.023 A 
ATOM      5  C   UNL     1       2.180   1.233  -0.297  0.00  0.00    +0.048 A 
ATOM      6  C   UNL     1       2.490  -0.071  -0.709  0.00  0.00    -0.003 A 
ATOM      7  C   UNL     1       1.617  -0.751  -1.568  0.00  0.00    +0.042 A 
ATOM      8  C   UNL     1       0.463  -0.135  -2.000  0.00  0.00    +0.127 A 
ATOM      9 CL   UNL     1       3.253   2.089   0.766  0.00  0.00    -0.083 Cl
BRANCH   8  10
ATOM     10  N   UNL     1      -0.461  -0.852  -2.907  0.00  0.00    +0.056 N 
ATOM     11  O   UNL     1      -1.474  -0.314  -3.288  0.00  0.00    -0.126 OA
ATOM     12  O   UNL     1      -0.202  -1.977  -3.268  0.00  0.00    -0.126 OA
ENDBRANCH   8  10
ENDBRANCH   1   6
BRANCH   2  13
ATOM     13  C   UNL     1       4.946  -2.722   0.390  0.00  0.00    +0.103 C 
ATOM     14  N   UNL     1       5.920  -3.248   0.647  0.00  0.00    -0.191 NA
ENDBRANCH   2  13
BRANCH   2  15
ATOM     15  C   UNL     1       2.453  -2.812   0.068  0.00  0.00    +0.205 C 
ATOM     16  O   UNL     1       1.585  -2.544   0.879  0.00  0.00    -0.286 OA
BRANCH  15  17
ATOM     17  C   UNL     1       2.237  -3.886  -0.910  0.00  0.00    +0.048 A 
ATOM     18  C   UNL     1       3.065  -4.235  -1.938  0.00  0.00    +0.095 A 
ATOM     19  N   UNL     1       2.531  -5.273  -2.625  0.00  0.00    -0.360 N 
ATOM     20  H   UNL     1       2.939  -5.694  -3.398  0.00  0.00    +0.165 HD
ATOM     21  C   UNL     1       1.323  -5.647  -2.071  0.00  0.00    +0.050 A 
ATOM     22  C   UNL     1       1.085  -4.806  -0.972  0.00  0.00    +0.011 A 
ATOM     23  C   UNL     1      -0.071  -4.959  -0.212  0.00  0.00    +0.013 A 
ATOM     24  C   UNL     1      -0.978  -5.943  -0.540  0.00  0.00    +0.039 A 
ATOM     25  C   UNL     1      -0.744  -6.779  -1.624  0.00  0.00    +0.125 A 
ATOM     26  C   UNL     1       0.395  -6.632  -2.390  0.00  0.00    +0.064 A 
ATOM     27  F   UNL     1      -1.641  -7.740  -1.935  0.00  0.00    -0.205 F 
ENDBRANCH  15  17
ENDBRANCH   2  15
TORSDOF 5
