REMARK  Name = ZINC07675975
REMARK  6 active torsions:
REMARK  status: ('A' for Active; 'I' for Inactive)
REMARK    1  A    between atoms: C_1  and  C_2
REMARK    2  A    between atoms: C_2  and  C_4
REMARK    3  A    between atoms: C_2  and  O_15
REMARK    4  A    between atoms: N_6  and  C_7
REMARK    5  A    between atoms: O_15  and  C_16
REMARK    6  A    between atoms: C_16  and  C_18
REMARK                            x       y       z     vdW  Elec       q    Type
REMARK                         _______ _______ _______ _____ _____    ______ ____
ROOT
ATOM      1  O   UNL     1       3.354   7.425  -0.182  0.00  0.00    -0.448 OA
ENDROOT
BRANCH   1   3
ATOM      2  C   UNL     1       4.312   5.643  -1.537  0.00  0.00    +0.062 C 
ATOM      3  C   UNL     1       3.630   6.000  -0.215  0.00  0.00    +0.259 C 
BRANCH   3   4
ATOM      4  C   UNL     1       2.338   5.235  -0.093  0.00  0.00    +0.258 C 
ATOM      5  O   UNL     1       1.280   5.828  -0.081  0.00  0.00    -0.271 OA
ATOM      6  N   UNL     1       2.357   3.890   0.001  0.00  0.00    -0.281 N 
ATOM      7  H   UNL     1       3.203   3.421   0.072  0.00  0.00    +0.155 HD
BRANCH   6   8
ATOM      8  C   UNL     1       1.156   3.171  -0.003  0.00  0.00    +0.053 A 
ATOM      9  C   UNL     1       0.024   3.711  -0.598  0.00  0.00    +0.044 A 
ATOM     10  C   UNL     1      -1.161   2.999  -0.600  0.00  0.00    +0.043 A 
ATOM     11  C   UNL     1      -1.217   1.746  -0.015  0.00  0.00    +0.021 A 
ATOM     12  C   UNL     1      -0.093   1.208   0.583  0.00  0.00    +0.023 A 
ATOM     13  C   UNL     1       1.095   1.915   0.589  0.00  0.00    +0.062 A 
ATOM     14 CL   UNL     1       2.508   1.236   1.334  0.00  0.00    -0.082 Cl
ATOM     15 CL   UNL     1      -2.577   3.673  -1.343  0.00  0.00    -0.083 Cl
ENDBRANCH   6   8
ENDBRANCH   3   4
ENDBRANCH   1   3
BRANCH   1  16
ATOM     16  C   UNL     1       4.311   8.222   0.333  0.00  0.00    +0.361 C 
ATOM     17  O   UNL     1       5.348   7.740   0.742  0.00  0.00    -0.243 OA
BRANCH  16  18
ATOM     18  C   UNL     1       4.099   9.681   0.399  0.00  0.00    +0.175 A 
ATOM     19  C   UNL     1       5.136  10.559   0.964  0.00  0.00    +0.021 A 
ATOM     20  C   UNL     1       6.349  10.079   1.446  0.00  0.00    +0.011 A 
ATOM     21  C   UNL     1       7.274  10.966   1.956  0.00  0.00    +0.001 A 
ATOM     22  C   UNL     1       7.009  12.329   1.987  0.00  0.00    +0.001 A 
ATOM     23  C   UNL     1       5.816  12.826   1.509  0.00  0.00    +0.014 A 
ATOM     24  C   UNL     1       4.870  11.947   0.990  0.00  0.00    +0.050 A 
ATOM     25  C   UNL     1       3.573  12.392   0.461  0.00  0.00    +0.272 A 
ATOM     26  O   UNL     1       3.273  13.572   0.457  0.00  0.00    -0.266 OA
ATOM     27  N   UNL     1       2.723  11.462  -0.020  0.00  0.00    -0.242 N 
ATOM     28  H   UNL     1       1.841  11.768  -0.380  0.00  0.00    +0.192 HD
ATOM     29  N   UNL     1       2.983  10.210  -0.041  0.00  0.00    -0.164 NA
ENDBRANCH  16  18
ENDBRANCH   1  16
TORSDOF 5
