REMARK  Name = ZINC35592526
REMARK  6 active torsions:
REMARK  status: ('A' for Active; 'I' for Inactive)
REMARK    1  A    between atoms: C_5  and  C_7
REMARK    2  A    between atoms: N_16  and  C_17
REMARK    3  A    between atoms: C_17  and  C_18
REMARK    4  A    between atoms: C_21  and  C_23
REMARK    5  A    between atoms: N_25  and  C_26
REMARK    6  A    between atoms: C_26  and  C_27
REMARK                            x       y       z     vdW  Elec       q    Type
REMARK                         _______ _______ _______ _____ _____    ______ ____
ROOT
ATOM      1  C   UNL     1       1.228  -2.186  -0.022  0.00  0.00    +0.014 C 
ATOM      2  C   UNL     1       1.357  -2.702   1.390  0.00  0.00    +0.009 A 
ATOM      3  C   UNL     1       2.166  -2.263   2.365  0.00  0.00    +0.021 A 
ATOM      4  C   UNL     1       1.920  -3.057   3.505  0.00  0.00    +0.019 A 
ATOM      5  C   UNL     1       0.966  -3.955   3.177  0.00  0.00    +0.086 A 
ATOM      6  N   UNL     1       0.618  -3.746   1.882  0.00  0.00    -0.353 N 
ATOM      7  C   UNL     1      -0.370  -4.477   1.078  0.00  0.00    +0.103 C 
ATOM      8  C   UNL     1      -0.111  -4.153  -0.399  0.00  0.00    -0.055 C 
ATOM      9  N   UNL     1      -0.033  -2.697  -0.585  0.00  0.00    +0.394 N 
ATOM     10  H   UNL     1      -0.811  -2.257  -0.116  0.00  0.00    -0.080 HD
ENDROOT
BRANCH   1  15
ATOM     11  C   UNL     1      -0.017   1.378   0.010  0.00  0.00    +0.000 A 
ATOM     12  C   UNL     1       1.171   2.087   0.002  0.00  0.00    +0.003 A 
ATOM     13  C   UNL     1       2.377   1.414  -0.013  0.00  0.00    +0.038 A 
ATOM     14  C   UNL     1       2.397   0.029  -0.021  0.00  0.00    +0.125 A 
ATOM     15  C   UNL     1       1.208  -0.679  -0.013  0.00  0.00    -0.020 A 
ATOM     16  C   UNL     1       0.002  -0.004   0.002  0.00  0.00    +0.005 A 
ATOM     17  F   UNL     1       3.577  -0.630  -0.036  0.00  0.00    -0.205 F 
ENDBRANCH   1  15
BRANCH   9  18
ATOM     18  C   UNL     1      -0.090  -2.383  -2.019  0.00  0.00    -0.002 C 
BRANCH  18  19
ATOM     19  C   UNL     1      -1.431  -2.795  -2.571  0.00  0.00    +0.090 A 
ATOM     20  C   UNL     1      -2.531  -2.013  -2.630  0.00  0.00    +0.043 A 
ATOM     21  C   UNL     1      -3.552  -2.780  -3.211  0.00  0.00    +0.055 A 
ATOM     22  C   UNL     1      -3.017  -4.007  -3.480  0.00  0.00    +0.189 A 
ATOM     23  O   UNL     1      -1.726  -3.994  -3.088  0.00  0.00    -0.457 OA
BRANCH  22  24
ATOM     24  C   UNL     1      -3.721  -5.139  -4.091  0.00  0.00    +0.280 C 
ATOM     25  O   UNL     1      -4.891  -5.029  -4.408  0.00  0.00    -0.267 OA
ATOM     26  N   UNL     1      -3.072  -6.302  -4.302  0.00  0.00    -0.302 N 
ATOM     27  H   UNL     1      -2.140  -6.389  -4.050  0.00  0.00    +0.150 HD
BRANCH  26  28
ATOM     28  C   UNL     1      -3.775  -7.433  -4.913  0.00  0.00    +0.179 C 
BRANCH  28  29
ATOM     29  C   UNL     1      -2.833  -8.602  -5.038  0.00  0.00    +0.122 A 
ATOM     30  C   UNL     1      -2.645  -9.563  -4.116  0.00  0.00    +0.046 A 
ATOM     31  C   UNL     1      -1.681 -10.453  -4.642  0.00  0.00    +0.041 A 
ATOM     32  C   UNL     1      -1.337  -9.982  -5.854  0.00  0.00    +0.195 A 
ATOM     33  O   UNL     1      -2.042  -8.864  -6.091  0.00  0.00    -0.466 OA
ENDBRANCH  28  29
ENDBRANCH  26  28
ENDBRANCH  22  24
ENDBRANCH  18  19
ENDBRANCH   9  18
TORSDOF 6
