REMARK  Name = ZINC23349636
REMARK  7 active torsions:
REMARK  status: ('A' for Active; 'I' for Inactive)
REMARK    1  A    between atoms: C_1  and  C_2
REMARK    2  A    between atoms: C_2  and  C_4
REMARK    3  A    between atoms: C_2  and  O_15
REMARK    4  A    between atoms: O_15  and  C_16
REMARK    5  A    between atoms: C_16  and  C_18
REMARK    6  A    between atoms: C_22  and  S_24
REMARK    7  A    between atoms: S_24  and  N_27
REMARK                            x       y       z     vdW  Elec       q    Type
REMARK                         _______ _______ _______ _____ _____    ______ ____
ROOT
ATOM      1  C   UNL     1       0.156  -0.158  -2.352  0.00  0.00    +0.340 C 
ATOM      2  O   UNL     1      -1.046  -0.338  -2.363  0.00  0.00    -0.245 OA
ENDROOT
BRANCH   1   3
ATOM      3  C   UNL     1       0.913  -0.144  -3.620  0.00  0.00    +0.061 A 
ATOM      4  C   UNL     1       2.295   0.057  -3.609  0.00  0.00    +0.016 A 
ATOM      5  C   UNL     1       2.996   0.069  -4.796  0.00  0.00    +0.023 A 
ATOM      6  C   UNL     1       2.332  -0.119  -5.998  0.00  0.00    +0.067 A 
ATOM      7  C   UNL     1       0.962  -0.319  -6.015  0.00  0.00    +0.124 A 
ATOM      8  C   UNL     1       0.250  -0.338  -4.834  0.00  0.00    +0.045 A 
ATOM      9 CL   UNL     1       3.222  -0.102  -7.489  0.00  0.00    -0.082 Cl
BRANCH   7  10
ATOM     10  S   UNL     1       0.127  -0.556  -7.548  0.00  0.00    +0.057 S 
ATOM     11  O   UNL     1       0.859  -1.543  -8.261  0.00  0.00    -0.153 OA
ATOM     12  O   UNL     1      -1.253  -0.705  -7.241  0.00  0.00    -0.153 OA
BRANCH  10  13
ATOM     13  N   UNL     1       0.270   0.852  -8.407  0.00  0.00    -0.203 NA
ATOM     14  H   UNL     1       0.752   1.604  -8.028  0.00  0.00    +0.144 HD
ATOM     15  H   UNL     1      -0.127   0.925  -9.289  0.00  0.00    +0.144 HD
ENDBRANCH  10  13
ENDBRANCH   7  10
ENDBRANCH   1   3
BRANCH   1  16
ATOM     16  O   UNL     1       0.798   0.030  -1.182  0.00  0.00    -0.449 OA
BRANCH  16  18
ATOM     17  C   UNL     1      -0.493   1.418   0.317  0.00  0.00    +0.062 C 
ATOM     18  C   UNL     1       0.003   0.005   0.005  0.00  0.00    +0.259 C 
BRANCH  18  19
ATOM     19  C   UNL     1       0.835  -0.501   1.155  0.00  0.00    +0.256 C 
ATOM     20  O   UNL     1       2.037  -0.607   1.034  0.00  0.00    -0.272 OA
ATOM     21  N   UNL     1       0.243  -0.837   2.319  0.00  0.00    -0.294 N 
ATOM     22  C   UNL     1       1.054  -1.212   3.487  0.00  0.00    +0.113 C 
ATOM     23  C   UNL     1       0.837  -0.159   4.584  0.00  0.00    +0.061 C 
ATOM     24  C   UNL     1      -0.620   0.166   4.655  0.00  0.00    -0.004 A 
ATOM     25  C   UNL     1      -1.582  -0.101   3.731  0.00  0.00    -0.020 A 
ATOM     26  C   UNL     1      -2.876   0.318   4.035  0.00  0.00    +0.013 A 
ATOM     27  C   UNL     1      -3.125   0.951   5.205  0.00  0.00    +0.046 A 
ATOM     28  S   UNL     1      -1.503   0.989   5.954  0.00  0.00    -0.101 S 
ATOM     29  C   UNL     1      -1.221  -0.826   2.440  0.00  0.00    +0.143 C 
ENDBRANCH  18  19
ENDBRANCH  16  18
ENDBRANCH   1  16
TORSDOF 6
