REMARK  Name = ZINC59405477
REMARK  7 active torsions:
REMARK  status: ('A' for Active; 'I' for Inactive)
REMARK    1  A    between atoms: C_1  and  C_2
REMARK    2  A    between atoms: C_2  and  C_23
REMARK    3  A    between atoms: N_5  and  C_9
REMARK    4  A    between atoms: C_9  and  C_10
REMARK    5  A    between atoms: C_18  and  C_20
REMARK    6  A    between atoms: C_26  and  O_29
REMARK    7  A    between atoms: O_29  and  C_30
REMARK                            x       y       z     vdW  Elec       q    Type
REMARK                         _______ _______ _______ _____ _____    ______ ____
ROOT
ATOM      1  C   UNL     1      -0.019   1.526   0.010  0.00  0.00    +0.047 C 
ATOM      2  C   UNL     1       0.002  -0.004   0.002  0.00  0.00    +0.135 C 
ATOM      3  C   UNL     1       0.815  -0.520  -1.169  0.00  0.00    +0.251 C 
ATOM      4  O   UNL     1       0.595  -0.342  -2.348  0.00  0.00    -0.272 OA
ATOM      5  N   UNL     1       1.833  -1.217  -0.627  0.00  0.00    -0.215 N 
ATOM      6  C   UNL     1       1.777  -1.214   0.710  0.00  0.00    +0.310 C 
ATOM      7  O   UNL     1       2.586  -1.776   1.421  0.00  0.00    -0.252 OA
ATOM      8  N   UNL     1       0.724  -0.519   1.178  0.00  0.00    -0.281 N 
ATOM      9  H   UNL     1       0.487  -0.383   2.109  0.00  0.00    +0.152 HD
ENDROOT
BRANCH   2  10
ATOM     10  C   UNL     1      -1.401  -0.551  -0.040  0.00  0.00    -0.015 A 
ATOM     11  C   UNL     1      -2.004  -0.814  -1.256  0.00  0.00    +0.010 A 
ATOM     12  C   UNL     1      -3.290  -1.316  -1.298  0.00  0.00    +0.046 A 
ATOM     13  C   UNL     1      -3.978  -1.556  -0.117  0.00  0.00    +0.127 A 
ATOM     14  C   UNL     1      -3.371  -1.292   1.102  0.00  0.00    +0.046 A 
ATOM     15  C   UNL     1      -2.082  -0.796   1.138  0.00  0.00    +0.010 A 
BRANCH  13  16
ATOM     16  O   UNL     1      -5.244  -2.049  -0.155  0.00  0.00    -0.434 OA
BRANCH  16  17
ATOM     17  C   UNL     1      -5.891  -2.272   1.099  0.00  0.00    +0.541 C 
ATOM     18  F   UNL     1      -5.151  -3.193   1.849  0.00  0.00    -0.166 F 
ATOM     19  F   UNL     1      -5.978  -1.064   1.800  0.00  0.00    -0.166 F 
ENDBRANCH  16  17
ENDBRANCH  13  16
ENDBRANCH   2  10
BRANCH   5  20
ATOM     20  C   UNL     1       2.871  -1.896  -1.406  0.00  0.00    +0.213 C 
BRANCH  20  21
ATOM     21  C   UNL     1       4.020  -0.950  -1.644  0.00  0.00    +0.234 C 
ATOM     22  O   UNL     1       3.975   0.180  -1.206  0.00  0.00    -0.274 OA
ATOM     23  N   UNL     1       5.097  -1.360  -2.343  0.00  0.00    -0.297 N 
ATOM     24  C   UNL     1       5.162  -2.724  -2.884  0.00  0.00    +0.127 C 
ATOM     25  C   UNL     1       5.418  -2.641  -4.394  0.00  0.00    +0.126 C 
ATOM     26  N   UNL     1       6.548  -1.730  -4.629  0.00  0.00    -0.298 N 
ATOM     27  C   UNL     1       6.483  -0.366  -4.087  0.00  0.00    +0.126 C 
ATOM     28  C   UNL     1       6.224  -0.448  -2.582  0.00  0.00    +0.127 C 
ATOM     29  C   UNL     1       7.625  -2.140  -5.328  0.00  0.00    +0.219 C 
ATOM     30  O   UNL     1       7.668  -3.269  -5.770  0.00  0.00    -0.275 OA
BRANCH  29  31
ATOM     31  C   UNL     1       8.776  -1.196  -5.561  0.00  0.00    +0.075 C 
ATOM     32  C   UNL     1       9.011  -0.708  -6.992  0.00  0.00    +0.013 C 
ATOM     33  C   UNL     1       9.970  -1.720  -6.362  0.00  0.00    +0.013 C 
ENDBRANCH  29  31
ENDBRANCH  20  21
ENDBRANCH   5  20
TORSDOF 6
