REMARK  Name = ZINC17028799
REMARK  2 active torsions:
REMARK  status: ('A' for Active; 'I' for Inactive)
REMARK    1  A    between atoms: C_1  and  C_2
REMARK    2  A    between atoms: C_14  and  C_16
REMARK                            x       y       z     vdW  Elec       q    Type
REMARK                         _______ _______ _______ _____ _____    ______ ____
ROOT
ATOM      1  C   UNL     1      -1.474  -4.140   4.616  0.00  0.00    +0.086 C 
ATOM      2  C   UNL     1      -1.432  -3.243   3.406  0.00  0.00    +0.109 A 
ATOM      3  N   UNL     1      -1.993  -2.020   3.478  0.00  0.00    -0.311 N 
ATOM      4  H   UNL     1      -2.473  -1.689   4.411  0.00  0.00    +0.170 HD
ATOM      5  C   UNL     1      -1.968  -1.197   2.407  0.00  0.00    +0.257 A 
ATOM      6  O   UNL     1      -2.473  -0.086   2.461  0.00  0.00    -0.267 OA
ATOM      7  C   UNL     1      -1.350  -1.647   1.234  0.00  0.00    +0.065 A 
ATOM      8  C   UNL     1      -0.791  -2.910   1.216  0.00  0.00    +0.136 A 
ATOM      9  N   UNL     1      -0.853  -3.673   2.318  0.00  0.00    -0.219 NA
ATOM     10  N   UNL     1      -0.174  -3.378   0.070  0.00  0.00    -0.270 N 
ATOM     11  C   UNL     1      -0.414  -2.802  -1.122  0.00  0.00    +0.219 C 
ATOM     12  O   UNL     1       0.151  -3.217  -2.112  0.00  0.00    -0.275 OA
ATOM     13  C   UNL     1      -1.374  -1.649  -1.243  0.00  0.00    +0.109 C 
ATOM     14  C   UNL     1      -1.293  -0.775   0.010  0.00  0.00    +0.066 C 
ATOM     15  H   UNL     1       0.520  -4.230   0.127  0.00  0.00    +0.156 HD
ENDROOT
BRANCH  14  16
ATOM     16  C   UNL     1       0.002  -0.004   0.002  0.00  0.00    -0.038 A 
ATOM     17  C   UNL     1      -0.017   1.378   0.010  0.00  0.00    +0.006 A 
ATOM     18  C   UNL     1       1.170   2.087   0.002  0.00  0.00    +0.022 A 
ATOM     19  C   UNL     1       2.378   1.412  -0.013  0.00  0.00    +0.059 A 
ATOM     20  C   UNL     1       2.397   0.028  -0.021  0.00  0.00    +0.060 A 
ATOM     21  C   UNL     1       1.208  -0.679  -0.013  0.00  0.00    +0.025 A 
ATOM     22 CL   UNL     1       3.912  -0.820  -0.039  0.00  0.00    -0.082 Cl
ATOM     23 CL   UNL     1       3.869   2.301  -0.022  0.00  0.00    -0.082 Cl
ENDBRANCH  14  16
TORSDOF 1
