REMARK  Name = ZINC64503118
REMARK  9 active torsions:
REMARK  status: ('A' for Active; 'I' for Inactive)
REMARK    1  A    between atoms: C_1  and  C_2
REMARK    2  A    between atoms: C_2  and  O_3
REMARK    3  A    between atoms: O_3  and  C_4
REMARK    4  A    between atoms: C_4  and  C_6
REMARK    5  A    between atoms: C_7  and  C_34
REMARK    6  A    between atoms: C_9  and  C_33
REMARK    7  A    between atoms: C_10  and  S_12
REMARK    8  A    between atoms: S_12  and  N_15
REMARK    9  A    between atoms: C_18  and  C_21
REMARK                            x       y       z     vdW  Elec       q    Type
REMARK                         _______ _______ _______ _____ _____    ______ ____
ROOT
ATOM      1  N   UNL     1       1.601   0.020  -5.826  0.00  0.00    -0.180 NA
ATOM      2  C   UNL     1       2.442   1.224  -5.777  0.00  0.00    +0.110 C 
ATOM      3  C   UNL     1       1.968   2.201  -6.857  0.00  0.00    +0.030 C 
ATOM      4  C   UNL     1       1.964   1.493  -8.214  0.00  0.00    +0.078 C 
ATOM      5  C   UNL     1       0.993   0.311  -8.171  0.00  0.00    +0.030 C 
ATOM      6  C   UNL     1       1.460  -0.691  -7.104  0.00  0.00    +0.110 C 
ENDROOT
BRANCH   4   7
ATOM      7  C   UNL     1       1.532   2.461  -9.284  0.00  0.00    +0.219 C 
ATOM      8  O   UNL     1       1.253   3.604  -8.992  0.00  0.00    -0.275 OA
ATOM      9  N   UNL     1       1.454   2.056 -10.568  0.00  0.00    -0.297 N 
ATOM     10  C   UNL     1       1.040   2.978 -11.638  0.00  0.00    +0.113 C 
ATOM     11  C   UNL     1       2.223   3.154 -12.589  0.00  0.00    +0.054 C 
ATOM     12  C   UNL     1       2.822   1.821 -12.952  0.00  0.00    -0.041 A 
ATOM     13  C   UNL     1       3.599   1.755 -14.102  0.00  0.00    +0.004 A 
ATOM     14  C   UNL     1       4.184   0.568 -14.487  0.00  0.00    +0.000 A 
ATOM     15  C   UNL     1       4.000  -0.569 -13.721  0.00  0.00    +0.000 A 
ATOM     16  C   UNL     1       3.227  -0.508 -12.581  0.00  0.00    +0.005 A 
ATOM     17  C   UNL     1       2.632   0.686 -12.196  0.00  0.00    -0.027 A 
ATOM     18  C   UNL     1       1.783   0.680 -10.954  0.00  0.00    +0.143 C 
ENDBRANCH   4   7
BRANCH   1  19
ATOM     19  S   UNL     1       0.833  -0.529  -4.466  0.00  0.00    +0.044 S 
ATOM     20  O   UNL     1      -0.229  -1.340  -4.952  0.00  0.00    -0.157 OA
ATOM     21  O   UNL     1       0.561   0.640  -3.705  0.00  0.00    -0.157 OA
BRANCH  19  26
ATOM     22  C   UNL     1       2.608  -2.624  -4.548  0.00  0.00    +0.088 C 
ATOM     23  C   UNL     1       3.931  -2.354  -4.649  0.00  0.00    +0.050 C 
ATOM     24  N   UNL     1       4.284  -1.289  -3.920  0.00  0.00    -0.258 NA
ATOM     25  C   UNL     1       3.301  -0.745  -3.279  0.00  0.00    +0.046 C 
ATOM     26  C   UNL     1       2.064  -1.555  -3.617  0.00  0.00    +0.230 C 
ATOM     27  C   UNL     1       3.370   0.460  -2.377  0.00  0.00    +0.063 C 
ATOM     28  C   UNL     1       4.893  -3.159  -5.485  0.00  0.00    +0.066 C 
BRANCH  22  29
ATOM     29  C   UNL     1       1.888  -3.671  -5.178  0.00  0.00    +0.339 C 
ATOM     30  O   UNL     1       2.467  -4.457  -5.903  0.00  0.00    -0.245 OA
BRANCH  29  31
ATOM     31  O   UNL     1       0.560  -3.794  -4.972  0.00  0.00    -0.462 OA
BRANCH  31  33
ATOM     32  C   UNL     1      -1.590  -4.851  -5.287  0.00  0.00    +0.048 C 
ATOM     33  C   UNL     1      -0.101  -4.872  -5.638  0.00  0.00    +0.229 C 
ENDBRANCH  31  33
ENDBRANCH  29  31
ENDBRANCH  22  29
ENDBRANCH  19  26
ENDBRANCH   1  19
TORSDOF 6
