REMARK  Name = ZINC48808543
REMARK  4 active torsions:
REMARK  status: ('A' for Active; 'I' for Inactive)
REMARK    1  A    between atoms: C_1  and  C_2
REMARK    2  A    between atoms: C_2  and  C_3
REMARK    3  A    between atoms: C_9  and  C_11
REMARK    4  A    between atoms: C_12  and  N_16
REMARK                            x       y       z     vdW  Elec       q    Type
REMARK                         _______ _______ _______ _____ _____    ______ ____
ROOT
ATOM      1  C   UNL     1      -1.048  -2.370  -0.854  0.00  0.00    -0.008 C 
ATOM      2  C   UNL     1      -1.790  -1.921  -2.115  0.00  0.00    +0.022 C 
ATOM      3  C   UNL     1      -0.778  -1.393  -3.136  0.00  0.00    +0.108 C 
ATOM      4  N   UNL     1       0.241  -2.426  -3.371  0.00  0.00    -0.297 N 
ATOM      5  C   UNL     1       0.951  -2.993  -2.216  0.00  0.00    +0.108 C 
ATOM      6  C   UNL     1      -0.080  -3.503  -1.205  0.00  0.00    +0.022 C 
ATOM      7  C   UNL     1       0.518  -2.846  -4.621  0.00  0.00    +0.255 C 
ATOM      8  O   UNL     1       1.419  -3.642  -4.810  0.00  0.00    -0.269 OA
ENDROOT
BRANCH   7   9
ATOM      9  C   UNL     1      -0.264  -2.345  -5.751  0.00  0.00    +0.100 A 
ATOM     10  C   UNL     1      -0.844  -3.054  -6.800  0.00  0.00    +0.088 A 
ATOM     11  C   UNL     1      -1.529  -2.291  -7.725  0.00  0.00    +0.036 A 
ATOM     12  C   UNL     1      -1.589  -0.949  -7.555  0.00  0.00    +0.048 A 
ATOM     13  S   UNL     1      -0.729  -0.668  -6.140  0.00  0.00    -0.090 S 
BRANCH  10  14
ATOM     14  N   UNL     1      -0.740  -4.445  -6.910  0.00  0.00    -0.199 N 
ATOM     15  C   UNL     1      -1.254  -5.232  -7.880  0.00  0.00    +0.250 A 
ATOM     16  N   UNL     1      -0.921  -6.465  -7.597  0.00  0.00    -0.116 NA
ATOM     17  N   UNL     1      -0.233  -6.510  -6.514  0.00  0.00    -0.023 NA
ATOM     18  N   UNL     1      -0.073  -5.323  -6.037  0.00  0.00    -0.039 NA
ENDBRANCH  10  14
ENDBRANCH   7   9
BRANCH   1  20
ATOM     19  C   UNL     1      -2.947  -1.703   0.626  0.00  0.00    +0.004 C 
ATOM     20  C   UNL     1      -2.059  -2.867   0.182  0.00  0.00    +0.000 C 
ENDBRANCH   1  20
TORSDOF 3
