REMARK  Name = ZINC66191276
REMARK  7 active torsions:
REMARK  status: ('A' for Active; 'I' for Inactive)
REMARK    1  A    between atoms: C_1  and  C_2
REMARK    2  A    between atoms: C_5  and  N_8
REMARK    3  A    between atoms: C_11  and  N_14
REMARK    4  A    between atoms: N_14  and  C_15
REMARK    5  A    between atoms: N_18  and  C_19
REMARK    6  A    between atoms: C_22  and  C_25
REMARK    7  A    between atoms: N_27  and  C_28
REMARK                            x       y       z     vdW  Elec       q    Type
REMARK                         _______ _______ _______ _____ _____    ______ ____
ROOT
ATOM      1  N   UNL     1      -1.170  -8.101   2.235  0.00  0.00    -0.286 N 
ATOM      2  C   UNL     1      -0.516  -8.704   1.071  0.00  0.00    +0.134 C 
ATOM      3  C   UNL     1      -1.696  -8.887   3.196  0.00  0.00    +0.302 C 
ATOM      4  O   UNL     1      -2.238  -8.386   4.162  0.00  0.00    -0.253 OA
ATOM      5  N   UNL     1      -1.620 -10.228   3.086  0.00  0.00    -0.296 N 
ATOM      6  H   UNL     1      -1.187 -10.627   2.315  0.00  0.00    +0.151 HD
ENDROOT
BRANCH   1  10
ATOM      7  N   UNL     1      -0.653  -4.039   1.236  0.00  0.00    +0.382 N 
ATOM      8  C   UNL     1       0.065  -4.524   2.421  0.00  0.00    -0.077 C 
ATOM      9  C   UNL     1       0.159  -6.050   2.376  0.00  0.00    +0.004 C 
ATOM     10  C   UNL     1      -1.252  -6.643   2.355  0.00  0.00    +0.074 C 
ATOM     11  C   UNL     1      -2.017  -6.073   1.156  0.00  0.00    +0.004 C 
ATOM     12  C   UNL     1      -2.030  -4.546   1.246  0.00  0.00    -0.077 C 
ATOM     13  H   UNL     1      -0.182  -4.364   0.404  0.00  0.00    -0.081 HD
BRANCH   7  18
ATOM     14  C   UNL     1      -0.019   1.526   0.010  0.00  0.00    +0.007 C 
ATOM     15  C   UNL     1       0.002  -0.004   0.002  0.00  0.00    -0.014 C 
ATOM     16  C   UNL     1      -1.433  -0.534   0.013  0.00  0.00    +0.002 C 
ATOM     17  C   UNL     1      -1.413  -2.063   0.004  0.00  0.00    -0.015 C 
ATOM     18  C   UNL     1      -0.673  -2.570   1.244  0.00  0.00    -0.069 C 
ATOM     19  C   UNL     1       0.763  -2.041   1.233  0.00  0.00    -0.015 C 
ATOM     20  C   UNL     1       0.742  -0.511   1.242  0.00  0.00    +0.002 C 
ENDBRANCH   7  18
ENDBRANCH   1  10
BRANCH   5  21
ATOM     21  C   UNL     1      -2.191 -11.082   4.130  0.00  0.00    +0.074 C 
ATOM     22  C   UNL     1      -1.171 -11.264   5.255  0.00  0.00    +0.023 C 
ATOM     23  C   UNL     1       0.094 -11.918   4.696  0.00  0.00    +0.014 C 
ATOM     24  C   UNL     1      -0.258 -13.284   4.102  0.00  0.00    +0.075 C 
ATOM     25  C   UNL     1      -1.279 -13.102   2.977  0.00  0.00    +0.014 C 
ATOM     26  C   UNL     1      -2.544 -12.447   3.536  0.00  0.00    +0.023 C 
BRANCH  24  27
ATOM     27  C   UNL     1       0.987 -13.928   3.551  0.00  0.00    +0.216 C 
ATOM     28  O   UNL     1       2.052 -13.353   3.626  0.00  0.00    -0.276 OA
ATOM     29  N   UNL     1       0.918 -15.145   2.975  0.00  0.00    -0.318 N 
ATOM     30  C   UNL     1       2.129 -15.772   2.440  0.00  0.00    +0.128 C 
ATOM     31  H   UNL     1       0.066 -15.605   2.915  0.00  0.00    +0.148 HD
ENDBRANCH  24  27
ENDBRANCH   5  21
TORSDOF 4
