REMARK  Name = ZINC33624923
REMARK  9 active torsions:
REMARK  status: ('A' for Active; 'I' for Inactive)
REMARK    1  A    between atoms: C_1  and  C_2
REMARK    2  A    between atoms: C_2  and  C_3
REMARK    3  A    between atoms: C_3  and  C_4
REMARK    4  A    between atoms: C_4  and  N_5
REMARK    5  A    between atoms: C_10  and  C_28
REMARK    6  A    between atoms: C_13  and  C_18
REMARK    7  A    between atoms: C_13  and  C_25
REMARK    8  A    between atoms: C_18  and  C_19
REMARK    9  A    between atoms: C_33  and  O_34
REMARK                            x       y       z     vdW  Elec       q    Type
REMARK                         _______ _______ _______ _____ _____    ______ ____
ROOT
ATOM      1  N   UNL     1       4.278   3.501   0.013  0.00  0.00    -0.242 N 
ATOM      2  C   UNL     1       3.771   4.346  -0.943  0.00  0.00    +0.224 C 
ATOM      3  O   UNL     1       4.391   5.048  -1.712  0.00  0.00    -0.275 OA
ATOM      4  C   UNL     1       2.336   4.214  -0.831  0.00  0.00    +0.077 C 
ATOM      5  C   UNL     1       1.120   4.478  -1.613  0.00  0.00    -0.023 C 
ATOM      6  N   UNL     1       0.069   3.607  -0.984  0.00  0.00    +0.396 N 
ATOM      7  C   UNL     1       0.747   2.773   0.062  0.00  0.00    +0.048 C 
ATOM      8  C   UNL     1       2.186   2.695  -0.436  0.00  0.00    +0.086 C 
ATOM      9  C   UNL     1       3.337   2.649   0.519  0.00  0.00    +0.225 C 
ATOM     10  O   UNL     1       3.419   1.989   1.532  0.00  0.00    -0.275 OA
ATOM     11  H   UNL     1      -0.707   4.240  -0.529  0.00  0.00    -0.083 HD
ATOM     12  H   UNL     1      -0.385   2.966  -1.754  0.00  0.00    -0.083 HD
ENDROOT
BRANCH   5  13
ATOM     13  C   UNL     1       1.329   4.097  -3.055  0.00  0.00    -0.019 A 
ATOM     14  C   UNL     1       1.035   2.816  -3.481  0.00  0.00    +0.005 A 
ATOM     15  C   UNL     1       1.225   2.465  -4.805  0.00  0.00    +0.000 A 
ATOM     16  C   UNL     1       1.711   3.395  -5.706  0.00  0.00    +0.004 A 
ATOM     17  C   UNL     1       2.007   4.677  -5.285  0.00  0.00    +0.045 A 
ATOM     18  C   UNL     1       1.811   5.033  -3.958  0.00  0.00    +0.118 A 
BRANCH  18  19
ATOM     19  O   UNL     1       2.096   6.295  -3.543  0.00  0.00    -0.507 OA
ATOM     20  H   UNL     1       2.478   7.037  -4.260  0.00  0.00    +0.292 HD
ENDBRANCH  18  19
ENDBRANCH   5  13
BRANCH   7  21
ATOM     21  C   UNL     1       0.131   1.399   0.129  0.00  0.00    +0.346 C 
ATOM     22  O   UNL     1       0.832   0.430   0.302  0.00  0.00    -0.248 OA
ATOM     23  O   UNL     1      -1.197   1.251  -0.003  0.00  0.00    -0.248 OA
ENDBRANCH   7  21
BRANCH   1  24
ATOM     24  C   UNL     1       5.678   3.513   0.445  0.00  0.00    +0.116 C 
BRANCH  24  25
ATOM     25  C   UNL     1       6.489   2.553  -0.428  0.00  0.00    +0.019 C 
BRANCH  25  27
ATOM     26  C   UNL     1       8.762   1.605  -0.851  0.00  0.00    +0.004 C 
ATOM     27  C   UNL     1       7.951   2.564   0.023  0.00  0.00    -0.002 C 
ENDBRANCH  25  27
ENDBRANCH  24  25
ENDBRANCH   1  24
BRANCH   7  28
ATOM     28  C   UNL     1       0.682   3.459   1.428  0.00  0.00    +0.003 C 
BRANCH  28  29
ATOM     29  C   UNL     1      -0.764   3.471   1.926  0.00  0.00    -0.012 C 
ATOM     30  C   UNL     1      -1.606   4.378   1.026  0.00  0.00    +0.003 C 
ATOM     31  C   UNL     1      -3.053   4.389   1.524  0.00  0.00    +0.000 C 
ATOM     32  C   UNL     1      -3.094   4.916   2.960  0.00  0.00    +0.000 C 
ATOM     33  C   UNL     1      -2.252   4.009   3.860  0.00  0.00    +0.000 C 
ATOM     34  C   UNL     1      -0.805   3.997   3.362  0.00  0.00    +0.003 C 
ENDBRANCH  28  29
ENDBRANCH   7  28
TORSDOF 8
