REMARK  Name = ZINC20572221
REMARK  5 active torsions:
REMARK  status: ('A' for Active; 'I' for Inactive)
REMARK    1  A    between atoms: C_1  and  C_2
REMARK    2  A    between atoms: C_9  and  N_14
REMARK    3  A    between atoms: C_10  and  C_11
REMARK    4  A    between atoms: C_15  and  C_17
REMARK    5  A    between atoms: C_17  and  N_18
REMARK                            x       y       z     vdW  Elec       q    Type
REMARK                         _______ _______ _______ _____ _____    ______ ____
ROOT
ATOM      1  C   UNL     1      -0.019   1.526   0.010  0.00  0.00    +0.008 C 
ATOM      2  C   UNL     1       0.002  -0.004   0.002  0.00  0.00    -0.009 C 
ATOM      3  C   UNL     1       0.742  -0.514   1.242  0.00  0.00    +0.008 C 
ATOM      4  C   UNL     1       0.984  -2.020   1.121  0.00  0.00    +0.037 C 
ATOM      5  C   UNL     1      -0.340  -2.706   0.809  0.00  0.00    -0.023 A 
ATOM      6  C   UNL     1      -1.390  -2.006   0.327  0.00  0.00    -0.004 A 
ATOM      7  S   UNL     1      -2.678  -3.203   0.125  0.00  0.00    -0.077 S 
ATOM      8  C   UNL     1      -1.836  -4.615   0.673  0.00  0.00    +0.084 A 
ATOM      9  C   UNL     1      -0.579  -4.127   0.999  0.00  0.00    +0.068 A 
ATOM     10  C   UNL     1      -1.437  -0.538   0.030  0.00  0.00    +0.046 C 
ENDROOT
BRANCH   9  11
ATOM     11  C   UNL     1       0.470  -5.011   1.517  0.00  0.00    +0.244 C 
ATOM     12  O   UNL     1       0.577  -5.192   2.716  0.00  0.00    -0.270 OA
ATOM     13  N   UNL     1       1.315  -5.624   0.665  0.00  0.00    -0.325 N 
ATOM     14  H   UNL     1       2.102  -6.288   1.053  0.00  0.00    +0.145 HD
ATOM     15  H   UNL     1       1.219  -5.461  -0.419  0.00  0.00    +0.145 HD
ENDBRANCH   9  11
BRANCH   8  16
ATOM     16  N   UNL     1      -2.304  -5.917   0.763  0.00  0.00    -0.278 N 
ATOM     17  C   UNL     1      -3.569  -6.205   0.396  0.00  0.00    +0.232 C 
ATOM     18  O   UNL     1      -4.297  -5.325  -0.013  0.00  0.00    -0.274 OA
ATOM     19  H   UNL     1      -1.644  -6.715   1.134  0.00  0.00    +0.155 HD
BRANCH  17  20
ATOM     20  C   UNL     1      -4.078  -7.620   0.494  0.00  0.00    +0.181 C 
BRANCH  20  21
ATOM     21  N   UNL     1      -5.474  -7.671   0.038  0.00  0.00    -0.290 NA
ATOM     22  C   UNL     1      -6.353  -6.926   0.951  0.00  0.00    +0.113 C 
ATOM     23  C   UNL     1      -7.785  -6.954   0.408  0.00  0.00    +0.175 C 
ATOM     24  O   UNL     1      -8.200  -8.313   0.244  0.00  0.00    -0.377 OA
ATOM     25  C   UNL     1      -7.366  -9.068  -0.639  0.00  0.00    +0.175 C 
ATOM     26  C   UNL     1      -5.930  -9.061  -0.107  0.00  0.00    +0.113 C 
ENDBRANCH  20  21
ENDBRANCH  17  20
ENDBRANCH   8  16
TORSDOF 4
