REMARK  Name = ZINC65170618
REMARK  3 active torsions:
REMARK  status: ('A' for Active; 'I' for Inactive)
REMARK    1  A    between atoms: N_12  and  C_16
REMARK    2  A    between atoms: C_16  and  C_17
REMARK    3  A    between atoms: C_17  and  O_23
REMARK                            x       y       z     vdW  Elec       q    Type
REMARK                         _______ _______ _______ _____ _____    ______ ____
ROOT
ATOM      1  C   UNL     1      -0.017   1.390   0.010  0.00  0.00    +0.014 A 
ATOM      2  C   UNL     1       1.144   2.085   0.002  0.00  0.00    +0.046 A 
ATOM      3  S   UNL     1       2.357   0.773  -0.017  0.00  0.00    -0.101 S 
ATOM      4  C   UNL     1       1.230  -0.595  -0.013  0.00  0.00    -0.005 A 
ATOM      5  C   UNL     1       0.002  -0.004   0.002  0.00  0.00    -0.005 A 
ATOM      6  C   UNL     1      -1.250  -0.864   0.010  0.00  0.00    +0.139 C 
ATOM      7  C   UNL     1      -0.910  -2.285   0.433  0.00  0.00    +0.040 C 
ATOM      8  C   UNL     1       0.255  -2.820  -0.406  0.00  0.00    +0.008 C 
ATOM      9  C   UNL     1       1.533  -2.057  -0.025  0.00  0.00    +0.043 C 
ATOM     10  C   UNL     1      -2.284  -0.257   0.927  0.00  0.00    +0.251 C 
ATOM     11  O   UNL     1      -2.190  -0.075   2.122  0.00  0.00    -0.272 OA
ATOM     12  N   UNL     1      -3.336   0.039   0.134  0.00  0.00    -0.221 N 
ATOM     13  C   UNL     1      -3.102  -0.296  -1.141  0.00  0.00    +0.310 C 
ATOM     14  O   UNL     1      -3.900  -0.127  -2.041  0.00  0.00    -0.252 OA
ATOM     15  N   UNL     1      -1.882  -0.843  -1.313  0.00  0.00    -0.281 N 
ATOM     16  H   UNL     1      -1.498  -1.159  -2.146  0.00  0.00    +0.152 HD
ENDROOT
BRANCH  12  17
ATOM     17  C   UNL     1      -4.579   0.651   0.610  0.00  0.00    +0.152 C 
BRANCH  17  18
ATOM     18  C   UNL     1      -4.459   2.175   0.533  0.00  0.00    +0.082 C 
ATOM     19  C   UNL     1      -4.207   2.594  -0.917  0.00  0.00    +0.036 C 
ATOM     20  C   UNL     1      -4.087   4.117  -0.994  0.00  0.00    +0.003 C 
ATOM     21  C   UNL     1      -5.385   4.756  -0.497  0.00  0.00    +0.000 C 
ATOM     22  C   UNL     1      -5.638   4.337   0.953  0.00  0.00    +0.003 C 
ATOM     23  C   UNL     1      -5.758   2.814   1.030  0.00  0.00    +0.036 C 
BRANCH  18  24
ATOM     24  O   UNL     1      -3.371   2.609   1.351  0.00  0.00    -0.387 OA
ATOM     25  H   UNL     1      -2.514   2.242   1.093  0.00  0.00    +0.210 HD
ENDBRANCH  18  24
ENDBRANCH  17  18
ENDBRANCH  12  17
TORSDOF 3
