REMARK  Name = ZINC00087423
REMARK  4 active torsions:
REMARK  status: ('A' for Active; 'I' for Inactive)
REMARK    1  A    between atoms: C_1  and  C_2
REMARK    2  A    between atoms: C_7  and  S_8
REMARK    3  A    between atoms: S_8  and  N_11
REMARK    4  A    between atoms: N_11  and  C_12
REMARK                            x       y       z     vdW  Elec       q    Type
REMARK                         _______ _______ _______ _____ _____    ______ ____
ROOT
ATOM      1  S   UNL     1      -1.331   3.046   0.629  0.00  0.00    +0.075 S 
ATOM      2  O   UNL     1      -2.672   3.438   0.886  0.00  0.00    -0.150 OA
ATOM      3  O   UNL     1      -0.601   2.204   1.511  0.00  0.00    -0.150 OA
ENDROOT
BRANCH   1  10
ATOM      4  C   UNL     1      -2.397   5.563  -0.553  0.00  0.00    +0.046 C 
ATOM      5  C   UNL     1      -0.965   5.629  -0.091  0.00  0.00    -0.022 A 
ATOM      6  C   UNL     1      -0.257   6.822  -0.235  0.00  0.00    +0.007 A 
ATOM      7  C   UNL     1       1.034   6.931   0.159  0.00  0.00    +0.031 A 
ATOM      8  C   UNL     1       1.697   5.818   0.739  0.00  0.00    +0.102 A 
ATOM      9  C   UNL     1       0.954   4.571   0.895  0.00  0.00    +0.127 A 
ATOM     10  C   UNL     1      -0.396   4.529   0.460  0.00  0.00    +0.139 A 
ATOM     11  N   UNL     1       1.694   3.614   1.451  0.00  0.00    -0.189 NA
ATOM     12  S   UNL     1       3.103   4.248   1.714  0.00  0.00    +0.117 S 
ATOM     13  N   UNL     1       2.946   5.715   1.187  0.00  0.00    -0.191 NA
ENDBRANCH   1  10
BRANCH   1  14
ATOM     14  N   UNL     1      -1.332   2.296  -0.848  0.00  0.00    -0.216 N 
ATOM     15  H   UNL     1      -2.167   2.164  -1.324  0.00  0.00    +0.174 HD
BRANCH  14  16
ATOM     16  C   UNL     1      -0.130   1.855  -1.408  0.00  0.00    +0.048 A 
ATOM     17  C   UNL     1       0.746   2.766  -1.982  0.00  0.00    +0.026 A 
ATOM     18  C   UNL     1       1.930   2.326  -2.540  0.00  0.00    +0.022 A 
ATOM     19  C   UNL     1       2.244   0.979  -2.527  0.00  0.00    +0.041 A 
ATOM     20  C   UNL     1       1.373   0.068  -1.956  0.00  0.00    +0.022 A 
ATOM     21  C   UNL     1       0.187   0.502  -1.396  0.00  0.00    +0.026 A 
ATOM     22 CL   UNL     1       3.734   0.429  -3.229  0.00  0.00    -0.084 Cl
ENDBRANCH  14  16
ENDBRANCH   1  14
TORSDOF 3
