REMARK  Name = ZINC08991760
REMARK  6 active torsions:
REMARK  status: ('A' for Active; 'I' for Inactive)
REMARK    1  A    between atoms: C_1  and  C_2
REMARK    2  A    between atoms: C_2  and  C_22
REMARK    3  A    between atoms: N_12  and  C_13
REMARK    4  A    between atoms: C_16  and  N_19
REMARK    5  A    between atoms: N_19  and  C_20
REMARK    6  A    between atoms: N_19  and  C_21
REMARK                            x       y       z     vdW  Elec       q    Type
REMARK                         _______ _______ _______ _____ _____    ______ ____
ROOT
ATOM      1  C   UNL     1      -0.201   0.695   0.768  0.00  0.00    +0.053 C 
ATOM      2  C   UNL     1      -1.040   1.583   1.688  0.00  0.00    +0.101 C 
ATOM      3  N   UNL     1      -2.460   1.243   1.531  0.00  0.00    -0.323 N 
ATOM      4  C   UNL     1      -3.128   1.680   0.398  0.00  0.00    +0.041 A 
ATOM      5  C   UNL     1      -4.185   0.974  -0.151  0.00  0.00    +0.024 A 
ATOM      6  C   UNL     1      -4.812   1.453  -1.285  0.00  0.00    +0.002 A 
ATOM      7  C   UNL     1      -4.393   2.634  -1.877  0.00  0.00    +0.001 A 
ATOM      8  C   UNL     1      -3.342   3.351  -1.342  0.00  0.00    +0.015 A 
ATOM      9  C   UNL     1      -2.702   2.881  -0.199  0.00  0.00    +0.058 A 
ATOM     10  C   UNL     1      -1.577   3.608   0.416  0.00  0.00    +0.254 C 
ATOM     11  O   UNL     1      -1.335   4.755   0.091  0.00  0.00    -0.270 OA
ATOM     12  N   UNL     1      -0.817   2.987   1.342  0.00  0.00    -0.246 N 
ATOM     13  C   UNL     1      -0.621   1.347   3.141  0.00  0.00    +0.053 C 
ATOM     14  H   UNL     1      -2.922   0.721   2.205  0.00  0.00    +0.148 HD
ENDROOT
BRANCH  12  15
ATOM     15  C   UNL     1       0.204   3.699   1.984  0.00  0.00    +0.039 A 
ATOM     16  C   UNL     1      -0.080   4.452   3.116  0.00  0.00    +0.025 A 
ATOM     17  C   UNL     1       0.927   5.150   3.752  0.00  0.00    +0.025 A 
ATOM     18  C   UNL     1       2.223   5.109   3.252  0.00  0.00    +0.029 A 
ATOM     19  C   UNL     1       2.505   4.360   2.117  0.00  0.00    +0.025 A 
ATOM     20  C   UNL     1       1.499   3.658   1.485  0.00  0.00    +0.025 A 
BRANCH  18  21
ATOM     21  N   UNL     1       3.242   5.821   3.893  0.00  0.00    -0.336 N 
ATOM     22  C   UNL     1       4.580   5.879   3.298  0.00  0.00    +0.129 C 
ATOM     23  C   UNL     1       2.972   6.508   5.158  0.00  0.00    +0.129 C 
ENDBRANCH  18  21
ENDBRANCH  12  15
TORSDOF 2
