REMARK  Name = ZINC53531535
REMARK  7 active torsions:
REMARK  status: ('A' for Active; 'I' for Inactive)
REMARK    1  A    between atoms: C_1  and  C_2
REMARK    2  A    between atoms: C_5  and  C_23
REMARK    3  A    between atoms: N_12  and  C_13
REMARK    4  A    between atoms: C_13  and  C_14
REMARK    5  A    between atoms: C_14  and  C_15
REMARK    6  A    between atoms: C_14  and  C_16
REMARK    7  A    between atoms: C_14  and  N_17
REMARK                            x       y       z     vdW  Elec       q    Type
REMARK                         _______ _______ _______ _____ _____    ______ ____
ROOT
ATOM      1  C   UNL     1       0.255   1.770  -0.323  0.00  0.00    +0.009 C 
ATOM      2  C   UNL     1       0.165   0.247  -0.196  0.00  0.00    +0.004 C 
ATOM      3  C   UNL     1      -1.306  -0.174  -0.141  0.00  0.00    +0.009 C 
ATOM      4  C   UNL     1      -1.397  -1.699  -0.046  0.00  0.00    +0.004 C 
ATOM      5  C   UNL     1      -0.711  -2.169   1.240  0.00  0.00    +0.112 C 
ATOM      6  N   UNL     1       0.661  -1.645   1.263  0.00  0.00    -0.285 N 
ATOM      7  C   UNL     1       0.869  -0.201   1.089  0.00  0.00    +0.112 C 
ATOM      8  C   UNL     1       1.710  -2.473   1.440  0.00  0.00    +0.302 C 
ATOM      9  O   UNL     1       1.521  -3.651   1.674  0.00  0.00    -0.253 OA
ATOM     10  N   UNL     1       2.967  -1.995   1.359  0.00  0.00    -0.297 N 
ATOM     11  C   UNL     1      -2.868  -2.122  -0.026  0.00  0.00    +0.009 C 
ATOM     12  H   UNL     1       3.118  -1.042   1.252  0.00  0.00    +0.150 HD
ENDROOT
BRANCH  10  13
ATOM     13  C   UNL     1       4.106  -2.913   1.433  0.00  0.00    +0.127 C 
BRANCH  13  14
ATOM     14  C   UNL     1       5.408  -2.110   1.447  0.00  0.00    +0.032 C 
ATOM     15  C   UNL     1       5.485  -1.285   2.733  0.00  0.00    +0.029 C 
ATOM     16  C   UNL     1       6.599  -3.069   1.385  0.00  0.00    +0.029 C 
BRANCH  14  17
ATOM     17  N   UNL     1       5.442  -1.211   0.286  0.00  0.00    -0.291 NA
ATOM     18  C   UNL     1       5.285  -1.963  -0.967  0.00  0.00    +0.113 C 
ATOM     19  C   UNL     1       5.266  -0.984  -2.144  0.00  0.00    +0.175 C 
ATOM     20  O   UNL     1       6.464  -0.203  -2.128  0.00  0.00    -0.377 OA
ATOM     21  C   UNL     1       6.648   0.543  -0.922  0.00  0.00    +0.175 C 
ATOM     22  C   UNL     1       6.681  -0.420   0.268  0.00  0.00    +0.113 C 
ENDBRANCH  14  17
ENDBRANCH  13  14
ENDBRANCH  10  13
TORSDOF 3
