REMARK  Name = ZINC35870171
REMARK  5 active torsions:
REMARK  status: ('A' for Active; 'I' for Inactive)
REMARK    1  A    between atoms: C_6  and  N_7
REMARK    2  A    between atoms: C_11  and  C_28
REMARK    3  A    between atoms: N_18  and  C_20
REMARK    4  A    between atoms: C_20  and  C_21
REMARK    5  A    between atoms: N_30  and  C_31
REMARK                            x       y       z     vdW  Elec       q    Type
REMARK                         _______ _______ _______ _____ _____    ______ ____
ROOT
ATOM      1  C   UNL     1      -0.017   1.378   0.010  0.00  0.00    +0.034 A 
ATOM      2  C   UNL     1       1.169   2.085   0.002  0.00  0.00    +0.025 A 
ATOM      3  C   UNL     1       2.383   1.407  -0.014  0.00  0.00    +0.033 A 
ATOM      4  C   UNL     1       2.399   0.020  -0.025  0.00  0.00    -0.023 A 
ATOM      5  C   UNL     1       1.207  -0.681  -0.015  0.00  0.00    +0.038 A 
ATOM      6  C   UNL     1       0.002  -0.004   0.002  0.00  0.00    +0.127 A 
ATOM      7  C   UNL     1       3.702  -0.725  -0.051  0.00  0.00    +0.051 C 
ATOM      8  C   UNL     1       4.815   0.052   0.619  0.00  0.00    +0.098 C 
ATOM      9  C   UNL     1       4.869   1.510   0.255  0.00  0.00    +0.069 C 
ATOM     10  N   UNL     1       3.575   2.120  -0.018  0.00  0.00    -0.329 N 
ATOM     11  C   UNL     1       3.569   3.558  -0.357  0.00  0.00    +0.087 C 
ATOM     12  C   UNL     1       4.545   3.751  -1.528  0.00  0.00    -0.059 C 
ATOM     13  N   UNL     1       5.867   3.228  -1.163  0.00  0.00    +0.388 N 
ATOM     14  C   UNL     1       5.802   1.779  -0.927  0.00  0.00    -0.055 C 
ATOM     15  H   UNL     1       6.186   3.689  -0.324  0.00  0.00    -0.081 HD
ENDROOT
BRANCH   8  16
ATOM     16  C   UNL     1       4.642  -0.058   2.112  0.00  0.00    +0.218 C 
ATOM     17  O   UNL     1       4.482   0.942   2.779  0.00  0.00    -0.275 OA
ATOM     18  N   UNL     1       4.665  -1.268   2.706  0.00  0.00    -0.312 N 
ATOM     19  H   UNL     1       4.793  -2.067   2.173  0.00  0.00    +0.149 HD
BRANCH  18  20
ATOM     20  C   UNL     1       4.496  -1.374   4.158  0.00  0.00    +0.073 C 
ATOM     21  C   UNL     1       5.426  -2.329   4.909  0.00  0.00    +0.024 C 
ATOM     22  C   UNL     1       3.953  -2.693   4.711  0.00  0.00    +0.024 C 
ENDBRANCH  18  20
ENDBRANCH   8  16
BRANCH   6  23
ATOM     23  N   UNL     1      -1.270  -0.760   0.012  0.00  0.00    +0.056 N 
ATOM     24  O   UNL     1      -2.325  -0.169   0.026  0.00  0.00    -0.126 OA
ATOM     25  O   UNL     1      -1.255  -1.969   0.005  0.00  0.00    -0.126 OA
ENDBRANCH   6  23
BRANCH  13  26
ATOM     26  C   UNL     1       6.812   3.500  -2.254  0.00  0.00    +0.019 C 
BRANCH  26  27
ATOM     27  C   UNL     1       6.995   4.988  -2.402  0.00  0.00    +0.199 C 
ATOM     28  O   UNL     1       6.397   5.748  -1.670  0.00  0.00    -0.278 OA
ATOM     29  N   UNL     1       7.824   5.475  -3.347  0.00  0.00    -0.303 N 
ATOM     30  C   UNL     1       8.602   4.671  -4.301  0.00  0.00    +0.108 C 
ATOM     31  C   UNL     1       9.420   5.652  -5.167  0.00  0.00    +0.020 C 
ATOM     32  C   UNL     1       9.489   6.923  -4.280  0.00  0.00    +0.020 C 
ATOM     33  C   UNL     1       8.095   6.902  -3.600  0.00  0.00    +0.108 C 
ENDBRANCH  26  27
ENDBRANCH  13  26
TORSDOF 5
