REMARK  Name = ZINC18522422
REMARK  7 active torsions:
REMARK  status: ('A' for Active; 'I' for Inactive)
REMARK    1  A    between atoms: C_1  and  C_2
REMARK    2  A    between atoms: C_2  and  C_4
REMARK    3  A    between atoms: C_2  and  S_16
REMARK    4  A    between atoms: N_6  and  C_7
REMARK    5  A    between atoms: N_6  and  C_8
REMARK    6  A    between atoms: S_16  and  C_17
REMARK    7  A    between atoms: N_21  and  C_22
REMARK                            x       y       z     vdW  Elec       q    Type
REMARK                         _______ _______ _______ _____ _____    ______ ____
ROOT
ATOM      1  C   UNL     1       4.239  -6.201   0.855  0.00  0.00    +0.198 A 
ATOM      2  N   UNL     1       3.638  -6.468   1.989  0.00  0.00    -0.120 NA
ATOM      3  N   UNL     1       4.177  -7.657   2.496  0.00  0.00    -0.112 NA
ATOM      4  C   UNL     1       5.097  -8.075   1.662  0.00  0.00    +0.225 A 
ATOM      5  N   UNL     1       5.162  -7.186   0.624  0.00  0.00    -0.258 N 
ATOM      6  N   UNL     1       5.872  -9.219   1.806  0.00  0.00    -0.299 N 
ATOM      7  C   UNL     1       7.312  -8.876   1.922  0.00  0.00    +0.108 C 
ATOM      8  C   UNL     1       7.925 -10.135   2.584  0.00  0.00    +0.020 C 
ATOM      9  C   UNL     1       6.828 -10.568   3.584  0.00  0.00    +0.020 C 
ATOM     10  C   UNL     1       5.527  -9.938   3.052  0.00  0.00    +0.108 C 
ENDROOT
BRANCH   5  11
ATOM     11  C   UNL     1       6.020  -7.269  -0.482  0.00  0.00    +0.053 A 
ATOM     12  C   UNL     1       7.000  -6.305  -0.675  0.00  0.00    +0.026 A 
ATOM     13  C   UNL     1       7.845  -6.389  -1.764  0.00  0.00    +0.003 A 
ATOM     14  C   UNL     1       7.717  -7.432  -2.663  0.00  0.00    +0.020 A 
ATOM     15  C   UNL     1       6.741  -8.395  -2.473  0.00  0.00    +0.043 A 
ATOM     16  C   UNL     1       5.896  -8.318  -1.381  0.00  0.00    +0.046 A 
ATOM     17 CL   UNL     1       6.582  -9.704  -3.603  0.00  0.00    -0.083 Cl
ENDBRANCH   5  11
BRANCH   1  18
ATOM     18  S   UNL     1       3.922  -4.813  -0.184  0.00  0.00    -0.073 S 
BRANCH  18  20
ATOM     19  C   UNL     1       1.340  -4.766   0.718  0.00  0.00    +0.029 C 
ATOM     20  C   UNL     1       2.608  -3.909   0.680  0.00  0.00    +0.137 C 
BRANCH  20  21
ATOM     21  C   UNL     1       2.322  -2.621  -0.048  0.00  0.00    +0.229 C 
ATOM     22  O   UNL     1       2.570  -2.525  -1.231  0.00  0.00    -0.274 OA
ATOM     23  N   UNL     1       1.791  -1.575   0.616  0.00  0.00    -0.299 N 
ATOM     24  C   UNL     1       1.492  -1.691   2.045  0.00  0.00    +0.132 C 
BRANCH  23  25
ATOM     25  C   UNL     1       1.514  -0.323  -0.091  0.00  0.00    +0.098 C 
ATOM     26  C   UNL     1       2.330   0.814   0.546  0.00  0.00    +0.046 C 
ATOM     27  C   UNL     1       1.790   2.165  -0.003  0.00  0.00    +0.168 C 
ATOM     28  S   UNL     1      -0.023   1.835   0.012  0.00  0.00    -0.029 S 
ATOM     29  O   UNL     1      -0.587   2.296  -1.208  0.00  0.00    -0.174 OA
ATOM     30  O   UNL     1      -0.564   2.283   1.247  0.00  0.00    -0.174 OA
ATOM     31  C   UNL     1       0.002  -0.004   0.002  0.00  0.00    +0.188 C 
ENDBRANCH  23  25
ENDBRANCH  20  21
ENDBRANCH  18  20
ENDBRANCH   1  18
TORSDOF 5
