REMARK  Name = ZINC16004143
REMARK  5 active torsions:
REMARK  status: ('A' for Active; 'I' for Inactive)
REMARK    1  A    between atoms: C_3  and  O_12
REMARK    2  A    between atoms: O_12  and  C_13
REMARK    3  A    between atoms: C_13  and  C_14
REMARK    4  A    between atoms: N_16  and  C_17
REMARK    5  A    between atoms: C_18  and  C_26
REMARK                            x       y       z     vdW  Elec       q    Type
REMARK                         _______ _______ _______ _____ _____    ______ ____
ROOT
ATOM      1  C   UNL     1       4.902  -2.627  -0.059  0.00  0.00    +0.255 C 
ATOM      2  O   UNL     1       5.860  -1.884  -0.063  0.00  0.00    -0.272 OA
ATOM      3  N   UNL     1       5.085  -3.963  -0.068  0.00  0.00    -0.277 N 
ATOM      4  H   UNL     1       4.318  -4.557  -0.064  0.00  0.00    +0.155 HD
ENDROOT
BRANCH   3   5
ATOM      5  C   UNL     1       6.369  -4.486  -0.083  0.00  0.00    +0.084 A 
ATOM      6  C   UNL     1       6.756  -5.819  -0.088  0.00  0.00    +0.068 A 
ATOM      7  C   UNL     1       8.181  -6.104  -0.108  0.00  0.00    -0.023 A 
ATOM      8  C   UNL     1       8.985  -5.018  -0.109  0.00  0.00    -0.004 A 
ATOM      9  S   UNL     1       7.878  -3.636  -0.092  0.00  0.00    -0.077 S 
ATOM     10  C   UNL     1      10.482  -5.003  -0.121  0.00  0.00    +0.043 C 
ATOM     11  C   UNL     1      10.983  -6.407   0.245  0.00  0.00    +0.005 C 
ATOM     12  C   UNL     1      10.218  -7.438  -0.591  0.00  0.00    +0.005 C 
ATOM     13  C   UNL     1       8.764  -7.511  -0.121  0.00  0.00    +0.037 C 
BRANCH   6  14
ATOM     14  C   UNL     1       5.765  -6.899  -0.079  0.00  0.00    +0.244 C 
ATOM     15  O   UNL     1       5.343  -7.347  -1.129  0.00  0.00    -0.270 OA
ATOM     16  N   UNL     1       5.322  -7.396   1.093  0.00  0.00    -0.325 N 
ATOM     17  H   UNL     1       5.658  -7.040   1.929  0.00  0.00    +0.145 HD
ATOM     18  H   UNL     1       4.666  -8.111   1.099  0.00  0.00    +0.145 HD
ENDBRANCH   6  14
ENDBRANCH   3   5
BRANCH   1  19
ATOM     19  C   UNL     1       3.506  -2.058  -0.042  0.00  0.00    +0.324 C 
BRANCH  19  20
ATOM     20  O   UNL     1       3.574  -0.631  -0.035  0.00  0.00    -0.483 OA
BRANCH  20  23
ATOM     21  C   UNL     1       0.002  -0.004   0.002  0.00  0.00    +0.015 A 
ATOM     22  C   UNL     1       1.196  -0.666  -0.013  0.00  0.00    +0.046 A 
ATOM     23  C   UNL     1       2.396   0.042  -0.020  0.00  0.00    +0.125 A 
ATOM     24  C   UNL     1       2.395   1.428  -0.013  0.00  0.00    +0.092 A 
ATOM     25  C   UNL     1       1.192   2.116   0.002  0.00  0.00    +0.143 A 
ATOM     26  C   UNL     1      -0.017   1.395   0.010  0.00  0.00    +0.018 A 
ATOM     27  C   UNL     1      -1.282   2.132   0.032  0.00  0.00    +0.018 A 
ATOM     28  C   UNL     1      -1.234   3.490   0.032  0.00  0.00    +0.092 A 
ATOM     29  C   UNL     1       0.013   4.147   0.023  0.00  0.00    +0.337 A 
ATOM     30  O   UNL     1       0.042   5.365   0.029  0.00  0.00    -0.245 OA
ATOM     31  O   UNL     1       1.170   3.466   0.009  0.00  0.00    -0.422 OA
ENDBRANCH  20  23
ENDBRANCH  19  20
ENDBRANCH   1  19
TORSDOF 5
