REMARK  Name = ZINC39980140
REMARK  8 active torsions:
REMARK  status: ('A' for Active; 'I' for Inactive)
REMARK    1  A    between atoms: C_1  and  C_2
REMARK    2  A    between atoms: C_2  and  C_3
REMARK    3  A    between atoms: C_2  and  C_4
REMARK    4  A    between atoms: C_4  and  N_5
REMARK    5  A    between atoms: N_8  and  C_11
REMARK    6  A    between atoms: C_11  and  C_12
REMARK    7  A    between atoms: C_19  and  C_27
REMARK    8  A    between atoms: C_19  and  C_28
REMARK                            x       y       z     vdW  Elec       q    Type
REMARK                         _______ _______ _______ _____ _____    ______ ____
ROOT
ATOM      1  C   UNL     1       6.987  -1.218  -2.354  0.00  0.00    +0.124 A 
ATOM      2  N   UNL     1       6.312  -1.844  -3.281  0.00  0.00    -0.232 NA
ATOM      3  C   UNL     1       6.912  -2.272  -4.401  0.00  0.00    +0.082 A 
ATOM      4  C   UNL     1       8.265  -2.047  -4.586  0.00  0.00    +0.049 A 
ATOM      5  C   UNL     1       8.977  -1.374  -3.580  0.00  0.00    +0.256 A 
ATOM      6  N   UNL     1       8.306  -0.971  -2.479  0.00  0.00    -0.310 N 
ATOM      7  O   UNL     1      10.171  -1.156  -3.699  0.00  0.00    -0.267 OA
ATOM      8  C   UNL     1       8.947  -2.509  -5.841  0.00  0.00    +0.001 C 
ATOM      9  C   UNL     1       8.358  -3.835  -6.316  0.00  0.00    +0.047 C 
ATOM     10  C   UNL     1       6.857  -3.751  -6.389  0.00  0.00    -0.037 A 
ATOM     11  C   UNL     1       6.156  -2.991  -5.451  0.00  0.00    +0.004 A 
ATOM     12  C   UNL     1       4.768  -2.916  -5.511  0.00  0.00    +0.010 A 
ATOM     13  C   UNL     1       4.089  -3.593  -6.505  0.00  0.00    +0.001 A 
ATOM     14  C   UNL     1       4.787  -4.342  -7.436  0.00  0.00    +0.000 A 
ATOM     15  C   UNL     1       6.168  -4.421  -7.378  0.00  0.00    +0.004 A 
ATOM     16  C   UNL     1       8.762  -1.455  -6.934  0.00  0.00    +0.016 C 
ATOM     17  C   UNL     1      10.441  -2.691  -5.565  0.00  0.00    +0.016 C 
ATOM     18  H   UNL     1       8.778  -0.503  -1.772  0.00  0.00    +0.170 HD
ENDROOT
BRANCH   1  19
ATOM     19  C   UNL     1       6.270  -0.756  -1.112  0.00  0.00    +0.158 C 
BRANCH  19  23
ATOM     20  N   UNL     1       2.045  -0.602  -1.095  0.00  0.00    +0.381 N 
ATOM     21  C   UNL     1       2.713  -1.362  -0.030  0.00  0.00    -0.063 C 
ATOM     22  C   UNL     1       4.170  -0.908   0.085  0.00  0.00    +0.066 C 
ATOM     23  N   UNL     1       4.851  -1.127  -1.199  0.00  0.00    -0.299 NA
ATOM     24  C   UNL     1       4.179  -0.392  -2.279  0.00  0.00    +0.066 C 
ATOM     25  C   UNL     1       2.722  -0.851  -2.375  0.00  0.00    -0.063 C 
ATOM     26  H   UNL     1       2.085   0.383  -0.880  0.00  0.00    -0.082 HD
BRANCH  20  27
ATOM     27  C   UNL     1       0.642  -1.025  -1.193  0.00  0.00    -0.076 C 
BRANCH  27  29
ATOM     28  C   UNL     1      -0.140   0.870   0.234  0.00  0.00    +0.005 C 
ATOM     29  C   UNL     1      -0.094  -0.653   0.095  0.00  0.00    -0.034 C 
ATOM     30  C   UNL     1      -1.521  -1.204   0.045  0.00  0.00    +0.005 C 
ENDBRANCH  27  29
ENDBRANCH  20  27
ENDBRANCH  19  23
ENDBRANCH   1  19
TORSDOF 4
