REMARK  Name = ZINC08574626
REMARK  4 active torsions:
REMARK  status: ('A' for Active; 'I' for Inactive)
REMARK    1  A    between atoms: C_1  and  C_2
REMARK    2  A    between atoms: C_3  and  C_11
REMARK    3  A    between atoms: N_13  and  N_14
REMARK    4  A    between atoms: C_15  and  C_16
REMARK                            x       y       z     vdW  Elec       q    Type
REMARK                         _______ _______ _______ _____ _____    ______ ____
ROOT
ATOM      1  C   UNL     1      -1.364   2.232  -1.352  0.00  0.00    +0.282 C 
ATOM      2  O   UNL     1      -1.052   3.304  -0.864  0.00  0.00    -0.267 OA
ATOM      3  N   UNL     1      -2.604   1.740  -1.163  0.00  0.00    -0.202 N 
ATOM      4  H   UNL     1      -2.833   0.859  -1.498  0.00  0.00    +0.178 HD
ENDROOT
BRANCH   1   7
ATOM      5  C   UNL     1       1.458   3.264  -2.191  0.00  0.00    +0.068 C 
ATOM      6  C   UNL     1       0.837   1.928  -2.512  0.00  0.00    +0.069 A 
ATOM      7  C   UNL     1      -0.421   1.502  -2.119  0.00  0.00    +0.133 A 
ATOM      8  N   UNL     1      -0.579   0.226  -2.629  0.00  0.00    -0.295 N 
ATOM      9  C   UNL     1      -1.601  -0.668  -2.562  0.00  0.00    +0.093 A 
ATOM     10  C   UNL     1      -1.499  -1.877  -3.161  0.00  0.00    +0.018 A 
ATOM     11  C   UNL     1      -0.335  -2.219  -3.861  0.00  0.00    +0.005 A 
ATOM     12  C   UNL     1       0.694  -1.328  -3.934  0.00  0.00    +0.047 A 
ATOM     13  C   UNL     1       0.570  -0.077  -3.304  0.00  0.00    +0.138 A 
ATOM     14  N   UNL     1       1.400   0.960  -3.217  0.00  0.00    -0.232 NA
ENDBRANCH   1   7
BRANCH   3  15
ATOM     15  N   UNL     1      -3.564   2.502  -0.484  0.00  0.00    -0.187 NA
ATOM     16  C   UNL     1      -4.708   1.976  -0.171  0.00  0.00    +0.138 C 
BRANCH  16  17
ATOM     17  C   UNL     1      -4.872   0.510  -0.179  0.00  0.00    -0.005 A 
ATOM     18  C   UNL     1      -6.147  -0.052  -0.275  0.00  0.00    +0.011 A 
ATOM     19  C   UNL     1      -6.293  -1.423  -0.288  0.00  0.00    +0.020 A 
ATOM     20  C   UNL     1      -5.181  -2.242  -0.193  0.00  0.00    +0.041 A 
ATOM     21  C   UNL     1      -3.914  -1.691  -0.091  0.00  0.00    +0.020 A 
ATOM     22  C   UNL     1      -3.754  -0.321  -0.084  0.00  0.00    +0.011 A 
ATOM     23 CL   UNL     1      -5.374  -3.967  -0.201  0.00  0.00    -0.084 Cl
ENDBRANCH  16  17
ENDBRANCH   3  15
TORSDOF 3
