REMARK  Name = ZINC00256362
REMARK  2 active torsions:
REMARK  status: ('A' for Active; 'I' for Inactive)
REMARK    1  A    between atoms: C_7  and  C_11
REMARK    2  A    between atoms: C_7  and  O_25
REMARK                            x       y       z     vdW  Elec       q    Type
REMARK                         _______ _______ _______ _____ _____    ______ ____
ROOT
ATOM      1  C   UNL     1      -3.894   3.003   4.149  0.00  0.00    +0.000 A 
ATOM      2  C   UNL     1      -3.862   4.385   4.100  0.00  0.00    +0.002 A 
ATOM      3  C   UNL     1      -3.241   5.031   3.052  0.00  0.00    +0.024 A 
ATOM      4  C   UNL     1      -2.639   4.294   2.034  0.00  0.00    +0.040 A 
ATOM      5  C   UNL     1      -2.678   2.907   2.094  0.00  0.00    +0.015 A 
ATOM      6  C   UNL     1      -3.299   2.264   3.141  0.00  0.00    +0.009 A 
ATOM      7  C   UNL     1      -1.952   2.407   0.867  0.00  0.00    +0.178 C 
ATOM      8  C   UNL     1      -1.525   3.671   0.151  0.00  0.00    +0.254 C 
ATOM      9  O   UNL     1      -0.907   3.736  -0.891  0.00  0.00    -0.272 OA
ATOM     10  N   UNL     1      -1.959   4.708   0.887  0.00  0.00    -0.282 N 
ATOM     11  H   UNL     1      -1.816   5.638   0.650  0.00  0.00    +0.155 HD
ENDROOT
BRANCH   7  12
ATOM     12  C   UNL     1      -0.729   1.579   1.267  0.00  0.00    +0.100 C 
ATOM     13  C   UNL     1      -0.177   0.857   0.036  0.00  0.00    +0.015 C 
ATOM     14  C   UNL     1      -1.026   1.210  -1.186  0.00  0.00    +0.001 C 
ATOM     15  C   UNL     1      -0.112   1.647  -2.333  0.00  0.00    +0.000 C 
ATOM     16  C   UNL     1      -0.584   2.998  -2.875  0.00  0.00    +0.000 C 
ATOM     17  C   UNL     1       0.577   3.994  -2.843  0.00  0.00    +0.000 C 
ATOM     18  C   UNL     1       0.141   5.261  -2.103  0.00  0.00    +0.000 C 
ATOM     19  C   UNL     1       1.153   5.582  -1.002  0.00  0.00    +0.000 C 
ATOM     20  C   UNL     1       0.424   5.712   0.338  0.00  0.00    +0.000 C 
ATOM     21  C   UNL     1       1.092   4.804   1.372  0.00  0.00    +0.007 C 
ATOM     22  C   UNL     1       0.028   3.948   2.061  0.00  0.00    +0.075 C 
ATOM     23  C   UNL     1       0.331   2.489   1.832  0.00  0.00    +0.140 C 
ATOM     24  O   UNL     1       1.423   2.050   2.102  0.00  0.00    -0.297 OA
ENDBRANCH   7  12
BRANCH   7  25
ATOM     25  O   UNL     1      -2.830   1.636   0.045  0.00  0.00    -0.374 OA
ATOM     26  H   UNL     1      -3.623   2.112  -0.238  0.00  0.00    +0.211 HD
ENDBRANCH   7  25
TORSDOF 2
