REMARK  Name = ZINC08376871
REMARK  1 active torsions:
REMARK  status: ('A' for Active; 'I' for Inactive)
REMARK    1  A    between atoms: C_4  and  N_8
REMARK                            x       y       z     vdW  Elec       q    Type
REMARK                         _______ _______ _______ _____ _____    ______ ____
ROOT
ATOM      1  N   UNL     1       1.162   6.667   1.134  0.00  0.00    -0.265 N 
ATOM      2  C   UNL     1       1.433   5.936   0.034  0.00  0.00    +0.307 C 
ATOM      3  O   UNL     1       1.887   6.476  -0.957  0.00  0.00    -0.252 OA
ATOM      4  N   UNL     1       1.201   4.609   0.032  0.00  0.00    -0.285 N 
ATOM      5  C   UNL     1       1.377   3.820  -1.195  0.00  0.00    +0.114 C 
ATOM      6  C   UNL     1       2.322   2.651  -0.898  0.00  0.00    +0.084 C 
ATOM      7  C   UNL     1       1.786   1.856   0.294  0.00  0.00    +0.173 C 
ATOM      8  C   UNL     1       1.718   2.754   1.531  0.00  0.00    +0.084 C 
ATOM      9  C   UNL     1       0.767   3.923   1.257  0.00  0.00    +0.114 C 
ATOM     10  O   UNL     1       0.478   1.355  -0.010  0.00  0.00    -0.346 OA
ATOM     11  C   UNL     1       0.546  -0.084   0.050  0.00  0.00    +0.191 C 
ATOM     12  C   UNL     1       2.057  -0.372  -0.139  0.00  0.00    +0.191 C 
ATOM     13  O   UNL     1       2.659   0.745   0.558  0.00  0.00    -0.346 OA
ATOM     14  H   UNL     1       0.836   6.231   1.937  0.00  0.00    +0.157 HD
ENDROOT
BRANCH   1  18
ATOM     15  C   UNL     1       1.724  10.800   1.084  0.00  0.00    +0.006 A 
ATOM     16  C   UNL     1       1.266  10.153  -0.049  0.00  0.00    +0.040 A 
ATOM     17  C   UNL     1       1.078   8.782  -0.036  0.00  0.00    +0.147 A 
ATOM     18  C   UNL     1       1.351   8.056   1.117  0.00  0.00    +0.106 A 
ATOM     19  C   UNL     1       1.805   8.711   2.255  0.00  0.00    +0.147 A 
ATOM     20  C   UNL     1       1.996  10.081   2.233  0.00  0.00    +0.040 A 
ATOM     21  F   UNL     1       2.066   8.009   3.380  0.00  0.00    -0.203 F 
ATOM     22  F   UNL     1       0.630   8.151  -1.143  0.00  0.00    -0.203 F 
ENDBRANCH   1  18
TORSDOF 1
