REMARK  Name = ZINC67376292
REMARK  7 active torsions:
REMARK  status: ('A' for Active; 'I' for Inactive)
REMARK    1  A    between atoms: C_4  and  C_7
REMARK    2  A    between atoms: C_7  and  C_9
REMARK    3  A    between atoms: C_7  and  O_29
REMARK    4  A    between atoms: N_12  and  C_15
REMARK    5  A    between atoms: C_15  and  C_16
REMARK    6  A    between atoms: C_18  and  C_21
REMARK    7  A    between atoms: C_21  and  C_22
REMARK                            x       y       z     vdW  Elec       q    Type
REMARK                         _______ _______ _______ _____ _____    ______ ____
ROOT
ATOM      1  C   UNL     1       4.049  -1.182   1.377  0.00  0.00    +0.019 C 
ATOM      2  C   UNL     1       4.163   0.028   2.309  0.00  0.00    -0.012 C 
ATOM      3  C   UNL     1       4.579  -0.447   3.704  0.00  0.00    -0.078 C 
ATOM      4  N   UNL     1       5.875  -1.131   3.625  0.00  0.00    +0.386 N 
ATOM      5  C   UNL     1       5.755  -2.332   2.790  0.00  0.00    -0.078 C 
ATOM      6  C   UNL     1       5.385  -1.930   1.361  0.00  0.00    -0.012 C 
ATOM      7  H   UNL     1       6.559  -0.508   3.221  0.00  0.00    -0.081 HD
ENDROOT
BRANCH   1   8
ATOM      8  C   UNL     1       3.711  -0.707  -0.038  0.00  0.00    +0.147 C 
BRANCH   8  12
ATOM      9  C   UNL     1      -0.017   1.378   0.010  0.00  0.00    +0.000 A 
ATOM     10  C   UNL     1       1.171   2.086   0.002  0.00  0.00    +0.000 A 
ATOM     11  C   UNL     1       2.377   1.411  -0.013  0.00  0.00    +0.006 A 
ATOM     12  C   UNL     1       2.396   0.029  -0.020  0.00  0.00    -0.019 A 
ATOM     13  C   UNL     1       1.208  -0.679  -0.012  0.00  0.00    +0.006 A 
ATOM     14  C   UNL     1       0.002  -0.004   0.002  0.00  0.00    +0.000 A 
ENDBRANCH   8  12
BRANCH   8  15
ATOM     15  O   UNL     1       3.614  -1.836  -0.908  0.00  0.00    -0.387 OA
ATOM     16  H   UNL     1       2.934  -2.474  -0.651  0.00  0.00    +0.210 HD
ENDBRANCH   8  15
ENDBRANCH   1   8
BRANCH   4  17
ATOM     17  C   UNL     1       6.306  -1.516   4.976  0.00  0.00    +0.022 C 
BRANCH  17  18
ATOM     18  C   UNL     1       7.691  -2.107   4.911  0.00  0.00    +0.211 A 
ATOM     19  N   UNL     1       8.810  -1.447   5.025  0.00  0.00    -0.197 NA
ATOM     20  C   UNL     1       9.849  -2.282   4.920  0.00  0.00    +0.176 A 
ATOM     21  N   UNL     1       9.401  -3.491   4.737  0.00  0.00    -0.061 NA
ATOM     22  O   UNL     1       7.984  -3.401   4.734  0.00  0.00    -0.340 OA
BRANCH  20  23
ATOM     23  C   UNL     1      11.302  -1.889   4.999  0.00  0.00    +0.115 C 
BRANCH  23  24
ATOM     24  C   UNL     1      11.764  -1.962   6.431  0.00  0.00    -0.039 A 
ATOM     25  C   UNL     1      11.653  -0.854   7.251  0.00  0.00    +0.004 A 
ATOM     26  C   UNL     1      12.077  -0.920   8.565  0.00  0.00    +0.002 A 
ATOM     27  C   UNL     1      12.613  -2.094   9.060  0.00  0.00    +0.020 A 
ATOM     28  C   UNL     1      12.725  -3.202   8.241  0.00  0.00    +0.041 A 
ATOM     29  C   UNL     1      12.295  -3.138   6.927  0.00  0.00    +0.024 A 
ATOM     30 CL   UNL     1      13.399  -4.677   8.862  0.00  0.00    -0.084 Cl
ENDBRANCH  23  24
ENDBRANCH  20  23
ENDBRANCH  17  18
ENDBRANCH   4  17
TORSDOF 7
