REMARK  Name = ZINC14162854
REMARK  4 active torsions:
REMARK  status: ('A' for Active; 'I' for Inactive)
REMARK    1  A    between atoms: C_1  and  C_2
REMARK    2  A    between atoms: C_11  and  N_15
REMARK    3  A    between atoms: C_19  and  C_22
REMARK    4  A    between atoms: C_22  and  O_23
REMARK                            x       y       z     vdW  Elec       q    Type
REMARK                         _______ _______ _______ _____ _____    ______ ____
ROOT
ATOM      1  C   UNL     1      -5.655   3.841  -5.189  0.00  0.00    +0.008 C 
ATOM      2  C   UNL     1      -4.490   2.965  -4.720  0.00  0.00    -0.009 C 
ATOM      3  C   UNL     1      -3.857   3.579  -3.468  0.00  0.00    +0.008 C 
ATOM      4  C   UNL     1      -2.862   2.595  -2.853  0.00  0.00    +0.037 C 
ATOM      5  C   UNL     1      -1.883   2.144  -3.933  0.00  0.00    -0.025 A 
ATOM      6  C   UNL     1      -2.180   2.297  -5.240  0.00  0.00    -0.004 A 
ATOM      7  S   UNL     1      -0.775   1.657  -6.112  0.00  0.00    -0.073 S 
ATOM      8  C   UNL     1       0.206   1.170  -4.717  0.00  0.00    +0.114 A 
ATOM      9  C   UNL     1      -0.592   1.532  -3.613  0.00  0.00    +0.051 A 
ATOM     10  C   UNL     1      -0.030   1.254  -2.337  0.00  0.00    +0.133 A 
ATOM     11  N   UNL     1       1.162   0.683  -2.268  0.00  0.00    -0.220 NA
ATOM     12  C   UNL     1       1.853   0.365  -3.348  0.00  0.00    +0.224 A 
ATOM     13  N   UNL     1       1.386   0.604  -4.559  0.00  0.00    -0.228 NA
ATOM     14  C   UNL     1      -3.426   2.890  -5.824  0.00  0.00    +0.046 C 
ENDROOT
BRANCH  10  15
ATOM     15  N   UNL     1      -0.723   1.572  -1.182  0.00  0.00    -0.314 N 
ATOM     16  C   UNL     1      -1.523   0.432  -0.718  0.00  0.00    +0.106 C 
ATOM     17  C   UNL     1      -2.385   0.862   0.472  0.00  0.00    +0.019 C 
ATOM     18  C   UNL     1      -1.476   1.364   1.598  0.00  0.00    +0.009 C 
ATOM     19  C   UNL     1      -0.619   2.519   1.074  0.00  0.00    +0.032 C 
ATOM     20  C   UNL     1       0.191   2.041  -0.133  0.00  0.00    +0.112 C 
BRANCH  19  21
ATOM     21  C   UNL     1       0.334   2.988   2.176  0.00  0.00    +0.160 C 
BRANCH  21  22
ATOM     22  O   UNL     1      -0.421   3.542   3.255  0.00  0.00    -0.395 OA
ATOM     23  H   UNL     1       0.120   3.860   3.991  0.00  0.00    +0.209 HD
ENDBRANCH  21  22
ENDBRANCH  19  21
ENDBRANCH  10  15
TORSDOF 3
