REMARK  Name = ZINC12313117
REMARK  6 active torsions:
REMARK  status: ('A' for Active; 'I' for Inactive)
REMARK    1  A    between atoms: C_1  and  C_2
REMARK    2  A    between atoms: C_5  and  C_8
REMARK    3  A    between atoms: C_8  and  N_9
REMARK    4  A    between atoms: C_10  and  C_12
REMARK    5  A    between atoms: N_14  and  C_15
REMARK    6  A    between atoms: N_19  and  C_20
REMARK                            x       y       z     vdW  Elec       q    Type
REMARK                         _______ _______ _______ _____ _____    ______ ____
ROOT
ATOM      1  C   UNL     1      -1.544   1.441  -3.567  0.00  0.00    +0.304 C 
ATOM      2  O   UNL     1      -2.510   2.175  -3.539  0.00  0.00    -0.265 OA
ATOM      3  N   UNL     1      -0.926   1.184  -4.737  0.00  0.00    -0.262 N 
ATOM      4  H   UNL     1      -0.122   0.642  -4.752  0.00  0.00    +0.157 HD
ENDROOT
BRANCH   3   5
ATOM      5  C   UNL     1      -1.442   1.696  -5.924  0.00  0.00    +0.133 A 
ATOM      6  C   UNL     1      -2.191   2.845  -6.057  0.00  0.00    +0.026 A 
ATOM      7  C   UNL     1      -2.500   2.996  -7.397  0.00  0.00    +0.079 A 
ATOM      8  N   UNL     1      -1.972   1.979  -8.064  0.00  0.00    -0.168 NA
ATOM      9  N   UNL     1      -1.304   1.152  -7.159  0.00  0.00    -0.218 N 
ATOM     10  C   UNL     1      -3.332   4.220  -7.777  0.00  0.00    +0.127 C 
ATOM     11  S   UNL     1      -3.167   5.268  -6.274  0.00  0.00    -0.150 S 
ATOM     12  C   UNL     1      -2.706   3.923  -5.106  0.00  0.00    +0.110 C 
BRANCH   9  13
ATOM     13  C   UNL     1      -0.616  -0.028  -7.470  0.00  0.00    +0.068 A 
ATOM     14  C   UNL     1       0.605  -0.301  -6.867  0.00  0.00    +0.029 A 
ATOM     15  C   UNL     1       1.280  -1.466  -7.173  0.00  0.00    +0.022 A 
ATOM     16  C   UNL     1       0.745  -2.358  -8.085  0.00  0.00    +0.041 A 
ATOM     17  C   UNL     1      -0.470  -2.087  -8.691  0.00  0.00    +0.022 A 
ATOM     18  C   UNL     1      -1.151  -0.924  -8.386  0.00  0.00    +0.029 A 
ATOM     19 CL   UNL     1       1.598  -3.820  -8.472  0.00  0.00    -0.084 Cl
ENDBRANCH   9  13
ENDBRANCH   3   5
BRANCH   1  21
ATOM     20  N   UNL     1      -1.657   1.079  -1.135  0.00  0.00    -0.303 N 
ATOM     21  C   UNL     1      -1.040   0.822  -2.305  0.00  0.00    +0.300 C 
ATOM     22  O   UNL     1      -0.074   0.088  -2.333  0.00  0.00    -0.265 OA
ATOM     23  H   UNL     1      -2.429   1.666  -1.113  0.00  0.00    +0.149 HD
BRANCH  20  24
ATOM     24  C   UNL     1      -1.163   0.472   0.103  0.00  0.00    +0.140 C 
BRANCH  24  29
ATOM     25  C   UNL     1      -4.457   2.176   4.534  0.00  0.00    +0.044 C 
ATOM     26  C   UNL     1      -3.598   1.732   3.379  0.00  0.00    -0.050 A 
ATOM     27  C   UNL     1      -3.924   0.588   2.675  0.00  0.00    +0.003 A 
ATOM     28  C   UNL     1      -3.136   0.180   1.615  0.00  0.00    +0.005 A 
ATOM     29  C   UNL     1      -2.022   0.917   1.258  0.00  0.00    -0.030 A 
ATOM     30  C   UNL     1      -1.693   2.058   1.965  0.00  0.00    +0.005 A 
ATOM     31  C   UNL     1      -2.484   2.469   3.022  0.00  0.00    +0.003 A 
ENDBRANCH  24  29
ENDBRANCH  20  24
ENDBRANCH   1  21
TORSDOF 5
