REMARK  Name = ZINC12811507
REMARK  6 active torsions:
REMARK  status: ('A' for Active; 'I' for Inactive)
REMARK    1  A    between atoms: C_1  and  C_2
REMARK    2  A    between atoms: C_5  and  S_8
REMARK    3  A    between atoms: S_8  and  N_11
REMARK    4  A    between atoms: C_16  and  C_18
REMARK    5  A    between atoms: N_20  and  N_21
REMARK    6  A    between atoms: C_22  and  C_24
REMARK                            x       y       z     vdW  Elec       q    Type
REMARK                         _______ _______ _______ _____ _____    ______ ____
ROOT
ATOM      1  N   UNL     1      -2.018  -4.362   0.238  0.00  0.00    -0.165 NA
ATOM      2  C   UNL     1      -2.947  -4.621  -0.870  0.00  0.00    +0.110 C 
ATOM      3  C   UNL     1      -4.381  -4.561  -0.334  0.00  0.00    +0.017 C 
ATOM      4  C   UNL     1      -4.522  -5.528   0.844  0.00  0.00    +0.003 C 
ATOM      5  C   UNL     1      -3.570  -5.110   1.966  0.00  0.00    +0.030 C 
ATOM      6  C   UNL     1      -2.123  -5.180   1.454  0.00  0.00    +0.167 C 
ENDROOT
BRANCH   6   7
ATOM      7  C   UNL     1      -1.186  -4.643   2.506  0.00  0.00    +0.248 C 
ATOM      8  O   UNL     1      -1.300  -3.499   2.893  0.00  0.00    -0.273 OA
ATOM      9  N   UNL     1      -0.223  -5.435   3.017  0.00  0.00    -0.233 N 
ATOM     10  H   UNL     1      -0.132  -6.350   2.708  0.00  0.00    +0.173 HD
BRANCH   9  11
ATOM     11  N   UNL     1       0.648  -4.936   3.995  0.00  0.00    -0.230 N 
ATOM     12  C   UNL     1       1.612  -5.728   4.506  0.00  0.00    +0.260 C 
ATOM     13  O   UNL     1       1.726  -6.874   4.119  0.00  0.00    -0.269 OA
ATOM     14  H   UNL     1       0.557  -4.021   4.304  0.00  0.00    +0.173 HD
BRANCH  12  15
ATOM     15  C   UNL     1       2.530  -5.202   5.537  0.00  0.00    +0.038 A 
ATOM     16  C   UNL     1       2.405  -3.884   5.980  0.00  0.00    +0.016 A 
ATOM     17  C   UNL     1       3.260  -3.400   6.947  0.00  0.00    +0.039 A 
ATOM     18  C   UNL     1       4.251  -4.216   7.471  0.00  0.00    +0.123 A 
ATOM     19  C   UNL     1       4.383  -5.524   7.030  0.00  0.00    +0.039 A 
ATOM     20  C   UNL     1       3.529  -6.020   6.069  0.00  0.00    +0.016 A 
ATOM     21  F   UNL     1       5.090  -3.735   8.414  0.00  0.00    -0.205 F 
ENDBRANCH  12  15
ENDBRANCH   9  11
ENDBRANCH   6   7
BRANCH   1  22
ATOM     22  S   UNL     1      -0.869  -3.176   0.116  0.00  0.00    +0.062 S 
ATOM     23  O   UNL     1      -0.652  -2.963  -1.272  0.00  0.00    -0.153 OA
ATOM     24  O   UNL     1       0.181  -3.534   1.004  0.00  0.00    -0.153 OA
BRANCH  22  29
ATOM     25  C   UNL     1      -3.306   1.901   2.280  0.00  0.00    +0.044 C 
ATOM     26  C   UNL     1      -2.697   0.633   1.740  0.00  0.00    -0.050 A 
ATOM     27  C   UNL     1      -3.092   0.148   0.507  0.00  0.00    +0.005 A 
ATOM     28  C   UNL     1      -2.530  -1.013   0.009  0.00  0.00    +0.029 A 
ATOM     29  C   UNL     1      -1.580  -1.694   0.748  0.00  0.00    +0.106 A 
ATOM     30  C   UNL     1      -1.189  -1.211   1.983  0.00  0.00    +0.029 A 
ATOM     31  C   UNL     1      -1.747  -0.048   2.479  0.00  0.00    +0.005 A 
ENDBRANCH  22  29
ENDBRANCH   1  22
TORSDOF 5
