REMARK  Name = ZINC20017875
REMARK  5 active torsions:
REMARK  status: ('A' for Active; 'I' for Inactive)
REMARK    1  A    between atoms: C_1  and  C_2
REMARK    2  A    between atoms: C_4  and  N_11
REMARK    3  A    between atoms: C_5  and  O_9
REMARK    4  A    between atoms: O_9  and  C_10
REMARK    5  A    between atoms: N_11  and  C_12
REMARK                            x       y       z     vdW  Elec       q    Type
REMARK                         _______ _______ _______ _____ _____    ______ ____
ROOT
ATOM      1  N   UNL     1       2.402   1.104  -0.015  0.00  0.00    -0.338 N 
ATOM      2  H   UNL     1       3.346   1.668  -0.021  0.00  0.00    +0.146 HD
ENDROOT
BRANCH   1   3
ATOM      3  C   UNL     1       2.424  -0.361  -0.023  0.00  0.00    +0.071 C 
ATOM      4  C   UNL     1       2.319  -0.880   1.412  0.00  0.00    +0.027 C 
ATOM      5  C   UNL     1       2.337  -2.410   1.404  0.00  0.00    +0.067 C 
ATOM      6  C   UNL     1       3.643  -2.900   0.773  0.00  0.00    +0.170 C 
ATOM      7  C   UNL     1       3.754  -2.378  -0.660  0.00  0.00    +0.067 C 
ATOM      8  C   UNL     1       3.732  -0.848  -0.648  0.00  0.00    +0.027 C 
ATOM      9  O   UNL     1       4.755  -2.418   1.545  0.00  0.00    -0.346 OA
ATOM     10  C   UNL     1       5.077  -3.503   2.448  0.00  0.00    +0.191 C 
ATOM     11  C   UNL     1       4.801  -4.743   1.561  0.00  0.00    +0.191 C 
ATOM     12  O   UNL     1       3.668  -4.332   0.769  0.00  0.00    -0.346 OA
ENDBRANCH   1   3
BRANCH   1  16
ATOM     13  C   UNL     1      -2.513   0.978   0.020  0.00  0.00    +0.045 C 
ATOM     14  C   UNL     1      -1.219   1.751   0.017  0.00  0.00    -0.030 A 
ATOM     15  C   UNL     1      -0.013   1.076   0.008  0.00  0.00    +0.031 A 
ATOM     16  C   UNL     1       1.179   1.786   0.000  0.00  0.00    +0.070 A 
ATOM     17  C   UNL     1       1.156   3.179   0.008  0.00  0.00    +0.142 A 
ATOM     18  C   UNL     1      -0.056   3.848   0.022  0.00  0.00    +0.067 A 
ATOM     19  C   UNL     1      -1.241   3.134   0.030  0.00  0.00    +0.047 A 
ATOM     20 CL   UNL     1      -2.760   3.975   0.048  0.00  0.00    -0.083 Cl
BRANCH  17  21
ATOM     21  O   UNL     1       2.322   3.880  -0.000  0.00  0.00    -0.493 OA
ATOM     22  C   UNL     1       2.222   5.305   0.008  0.00  0.00    +0.277 C 
ENDBRANCH  17  21
ENDBRANCH   1  16
TORSDOF 3
