REMARK  Name = ZINC39455755
REMARK  9 active torsions:
REMARK  status: ('A' for Active; 'I' for Inactive)
REMARK    1  A    between atoms: C_1  and  C_2
REMARK    2  A    between atoms: C_4  and  C_31
REMARK    3  A    between atoms: C_8  and  C_12
REMARK    4  A    between atoms: C_12  and  C_14
REMARK    5  A    between atoms: C_12  and  O_15
REMARK    6  A    between atoms: O_15  and  C_16
REMARK    7  A    between atoms: C_16  and  C_18
REMARK    8  A    between atoms: C_21  and  S_24
REMARK    9  A    between atoms: S_24  and  C_27
REMARK                            x       y       z     vdW  Elec       q    Type
REMARK                         _______ _______ _______ _____ _____    ______ ____
ROOT
ATOM      1  O   UNL     1       6.302  -2.647   0.685  0.00  0.00    -0.450 OA
ENDROOT
BRANCH   1   2
ATOM      2  C   UNL     1       5.277  -3.531   0.228  0.00  0.00    +0.238 C 
ATOM      3  C   UNL     1       5.792  -4.338  -0.965  0.00  0.00    +0.060 C 
BRANCH   2  10
ATOM      4  C   UNL     1      -0.019   1.526   0.010  0.00  0.00    +0.024 C 
ATOM      5  C   UNL     1       0.002  -0.004   0.002  0.00  0.00    +0.076 C 
ATOM      6  C   UNL     1       0.769  -0.528  -1.190  0.00  0.00    -0.045 C 
ATOM      7  C   UNL     1       1.868  -1.261  -0.953  0.00  0.00    +0.071 C 
ATOM      8  C   UNL     1       2.243  -1.498   0.457  0.00  0.00    +0.112 C 
ATOM      9  N   UNL     1       3.306  -2.207   0.754  0.00  0.00    -0.224 NA
ATOM     10  C   UNL     1       4.072  -2.729  -0.191  0.00  0.00    +0.164 C 
ATOM     11  N   UNL     1       3.837  -2.585  -1.473  0.00  0.00    -0.158 NA
ATOM     12  C   UNL     1       2.796  -1.891  -1.945  0.00  0.00    +0.271 C 
ATOM     13  O   UNL     1       2.607  -1.777  -3.144  0.00  0.00    -0.268 OA
ATOM     14  S   UNL     1       0.997  -0.657   1.404  0.00  0.00    -0.098 S 
ATOM     15  C   UNL     1       0.315  -0.239  -2.598  0.00  0.00    +0.041 C 
ENDBRANCH   2  10
ENDBRANCH   1   2
BRANCH   1  16
ATOM     16  C   UNL     1       7.141  -3.119   1.627  0.00  0.00    +0.340 C 
ATOM     17  O   UNL     1       7.006  -4.249   2.050  0.00  0.00    -0.245 OA
BRANCH  16  18
ATOM     18  C   UNL     1       8.226  -2.261   2.147  0.00  0.00    +0.059 A 
ATOM     19  C   UNL     1       8.381  -0.959   1.667  0.00  0.00    +0.017 A 
ATOM     20  C   UNL     1       9.396  -0.163   2.156  0.00  0.00    +0.028 A 
ATOM     21  C   UNL     1      10.259  -0.652   3.120  0.00  0.00    +0.094 A 
ATOM     22  C   UNL     1      10.111  -1.942   3.600  0.00  0.00    +0.028 A 
ATOM     23  C   UNL     1       9.097  -2.746   3.124  0.00  0.00    +0.017 A 
BRANCH  21  24
ATOM     24  S   UNL     1      11.553   0.371   3.739  0.00  0.00    +0.058 S 
ATOM     25  O   UNL     1      12.555  -0.536   4.177  0.00  0.00    -0.164 OA
ATOM     26  O   UNL     1      11.819   1.293   2.692  0.00  0.00    -0.164 OA
BRANCH  24  27
ATOM     27  C   UNL     1      10.826   1.233   5.160  0.00  0.00    +0.485 C 
ATOM     28  F   UNL     1       9.727   1.988   4.736  0.00  0.00    -0.183 F 
ATOM     29  F   UNL     1      10.408   0.295   6.111  0.00  0.00    -0.183 F 
ENDBRANCH  24  27
ENDBRANCH  21  24
ENDBRANCH  16  18
ENDBRANCH   1  16
TORSDOF 6
