REMARK  Name = ZINC65181389
REMARK  9 active torsions:
REMARK  status: ('A' for Active; 'I' for Inactive)
REMARK    1  A    between atoms: C_1  and  C_2
REMARK    2  A    between atoms: C_2  and  O_3
REMARK    3  A    between atoms: O_3  and  C_4
REMARK    4  A    between atoms: C_9  and  C_10
REMARK    5  A    between atoms: N_12  and  C_13
REMARK    6  A    between atoms: N_12  and  C_14
REMARK    7  A    between atoms: C_14  and  C_15
REMARK    8  A    between atoms: C_15  and  C_16
REMARK    9  A    between atoms: C_19  and  C_22
REMARK                            x       y       z     vdW  Elec       q    Type
REMARK                         _______ _______ _______ _____ _____    ______ ____
ROOT
ATOM      1  C   UNL     1       5.492   0.204  -5.859  0.00  0.00    +0.139 C 
ATOM      2  N   UNL     1       4.976   0.661  -6.941  0.00  0.00    -0.072 NA
ATOM      3  O   UNL     1       5.885   1.507  -7.620  0.00  0.00    -0.367 OA
ATOM      4  C   UNL     1       7.079   1.539  -6.822  0.00  0.00    +0.318 C 
ATOM      5  N   UNL     1       6.772   0.672  -5.673  0.00  0.00    -0.291 N 
ATOM      6  H   UNL     1       7.359   0.468  -4.928  0.00  0.00    +0.151 HD
ENDROOT
BRANCH   4   7
ATOM      7  C   UNL     1       8.267   0.988  -7.614  0.00  0.00    +0.165 C 
ATOM      8  C   UNL     1       7.961  -0.409  -8.108  0.00  0.00    +0.012 C 
ATOM      9  C   UNL     1       8.019  -0.349  -9.458  0.00  0.00    -0.004 A 
ATOM     10  C   UNL     1       7.822  -1.357 -10.507  0.00  0.00    +0.010 A 
ATOM     11  C   UNL     1       7.949  -0.990 -11.802  0.00  0.00    +0.001 A 
ATOM     12  C   UNL     1       8.265   0.326 -12.167  0.00  0.00    +0.002 A 
ATOM     13  C   UNL     1       8.461   1.307 -11.261  0.00  0.00    +0.026 A 
ATOM     14  C   UNL     1       8.351   1.033  -9.870  0.00  0.00    +0.043 A 
ATOM     15  N   UNL     1       8.494   1.800  -8.814  0.00  0.00    -0.373 N 
ATOM     16  H   UNL     1       8.713   2.745  -8.825  0.00  0.00    +0.160 HD
ENDBRANCH   4   7
BRANCH   1  17
ATOM     17  C   UNL     1       4.782  -0.725  -4.907  0.00  0.00    +0.094 C 
BRANCH  17  18
ATOM     18  C   UNL     1       3.381  -1.028  -5.441  0.00  0.00    +0.115 C 
BRANCH  18  21
ATOM     19  C   UNL     1       1.953  -1.426  -3.507  0.00  0.00    +0.250 C 
ATOM     20  O   UNL     1       1.793  -0.225  -3.412  0.00  0.00    -0.270 OA
ATOM     21  N   UNL     1       2.691  -1.931  -4.516  0.00  0.00    -0.300 N 
ATOM     22  C   UNL     1       2.803  -3.381  -4.688  0.00  0.00    +0.132 C 
BRANCH  19  28
ATOM     23  C   UNL     1       1.490  -2.087  -1.147  0.00  0.00    +0.133 A 
ATOM     24  C   UNL     1       0.903  -2.943  -0.227  0.00  0.00    +0.046 A 
ATOM     25  C   UNL     1       0.178  -4.034  -0.660  0.00  0.00    +0.004 A 
ATOM     26  C   UNL     1       0.030  -4.284  -2.015  0.00  0.00    +0.001 A 
ATOM     27  C   UNL     1       0.606  -3.444  -2.944  0.00  0.00    +0.017 A 
ATOM     28  C   UNL     1       1.338  -2.333  -2.518  0.00  0.00    +0.078 A 
BRANCH  23  29
ATOM     29  O   UNL     1       2.204  -1.015  -0.722  0.00  0.00    -0.491 OA
BRANCH  29  31
ATOM     30  C   UNL     1       3.150   0.422   0.975  0.00  0.00    +0.048 C 
ATOM     31  C   UNL     1       2.316  -0.829   0.690  0.00  0.00    +0.226 C 
ENDBRANCH  29  31
ENDBRANCH  23  29
ENDBRANCH  19  28
ENDBRANCH  18  21
ENDBRANCH  17  18
ENDBRANCH   1  17
TORSDOF 7
