REMARK  Name = ZINC57346732
REMARK  3 active torsions:
REMARK  status: ('A' for Active; 'I' for Inactive)
REMARK    1  A    between atoms: C_1  and  C_2
REMARK    2  A    between atoms: N_11  and  C_12
REMARK    3  A    between atoms: C_12  and  C_13
REMARK                            x       y       z     vdW  Elec       q    Type
REMARK                         _______ _______ _______ _____ _____    ______ ____
ROOT
ATOM      1  C   UNL     1      -0.017   1.530   0.020  0.00  0.00    +0.009 C 
ATOM      2  C   UNL     1       0.005  -0.000   0.006  0.00  0.00    +0.003 C 
ATOM      3  C   UNL     1      -1.431  -0.531   0.013  0.00  0.00    +0.006 C 
ATOM      4  C   UNL     1      -1.411  -2.061  -0.033  0.00  0.00    +0.019 C 
ATOM      5  C   UNL     1      -0.691  -2.596   1.209  0.00  0.00    +0.109 C 
ATOM      6  N   UNL     1       0.639  -1.977   1.288  0.00  0.00    -0.285 N 
ATOM      7  C   UNL     1       0.741  -0.512   1.248  0.00  0.00    +0.112 C 
ATOM      8  C   UNL     1       1.746  -2.740   1.395  0.00  0.00    +0.303 C 
ATOM      9  O   UNL     1       2.845  -2.222   1.364  0.00  0.00    -0.253 OA
ATOM     10  N   UNL     1       1.633  -4.075   1.536  0.00  0.00    -0.294 N 
ATOM     11  H   UNL     1       0.760  -4.496   1.489  0.00  0.00    +0.151 HD
ENDROOT
BRANCH  10  12
ATOM     12  C   UNL     1       2.828  -4.891   1.762  0.00  0.00    +0.162 C 
BRANCH  12  13
ATOM     13  C   UNL     1       2.432  -6.340   1.885  0.00  0.00    +0.077 A 
ATOM     14  C   UNL     1       2.440  -7.247   0.884  0.00  0.00    +0.117 A 
ATOM     15  N   UNL     1       2.014  -8.435   1.412  0.00  0.00    -0.305 N 
ATOM     16  C   UNL     1       1.829  -9.674   0.869  0.00  0.00    +0.108 A 
ATOM     17  C   UNL     1       1.390 -10.700   1.629  0.00  0.00    +0.034 A 
ATOM     18  C   UNL     1       1.115 -10.504   2.993  0.00  0.00    +0.020 A 
ATOM     19  C   UNL     1       1.295  -9.274   3.546  0.00  0.00    +0.048 A 
ATOM     20  C   UNL     1       1.754  -8.214   2.740  0.00  0.00    +0.138 A 
ATOM     21  N   UNL     1       2.019  -6.942   3.003  0.00  0.00    -0.231 NA
ATOM     22 BR   UNL     1       1.142 -12.407   0.854  0.00  0.00    -0.049 Br
ENDBRANCH  12  13
ENDBRANCH  10  12
TORSDOF 2
