REMARK  Name = ZINC21866201
REMARK  10 active torsions:
REMARK  status: ('A' for Active; 'I' for Inactive)
REMARK    1  A    between atoms: C_1  and  C_2
REMARK    2  A    between atoms: C_2  and  C_3
REMARK    3  A    between atoms: C_2  and  C_4
REMARK    4  A    between atoms: C_4  and  C_5
REMARK    5  A    between atoms: C_5  and  N_6
REMARK    6  A    between atoms: C_7  and  C_9
REMARK    7  A    between atoms: C_9  and  C_35
REMARK    8  A    between atoms: C_18  and  N_30
REMARK    9  A    between atoms: N_22  and  C_23
REMARK   10  A    between atoms: C_31  and  C_33
REMARK                            x       y       z     vdW  Elec       q    Type
REMARK                         _______ _______ _______ _____ _____    ______ ____
ROOT
ATOM      1  C   UNL     1       0.071   4.042   0.179  0.00  0.00    +0.129 C 
ATOM      2  C   UNL     1       1.509   3.567  -0.024  0.00  0.00    +0.157 C 
ATOM      3  N   UNL     1       1.515   2.106  -0.180  0.00  0.00    -0.332 N 
ATOM      4  C   UNL     1       2.373   1.314  -0.872  0.00  0.00    +0.052 A 
ATOM      5  C   UNL     1       3.485   1.617  -1.660  0.00  0.00    +0.029 A 
ATOM      6  C   UNL     1       4.162   0.557  -2.233  0.00  0.00    +0.040 A 
ATOM      7  C   UNL     1       3.771  -0.762  -2.047  0.00  0.00    +0.124 A 
ATOM      8  C   UNL     1       2.673  -1.094  -1.274  0.00  0.00    +0.050 A 
ATOM      9  C   UNL     1       1.972  -0.035  -0.685  0.00  0.00    +0.025 A 
ATOM     10  C   UNL     1       0.792  -0.011   0.168  0.00  0.00    +0.072 A 
ATOM     11  C   UNL     1       0.546   1.307   0.445  0.00  0.00    +0.127 A 
ATOM     12  C   UNL     1      -0.513   1.913   1.259  0.00  0.00    +0.266 C 
ATOM     13  O   UNL     1      -1.239   1.241   1.968  0.00  0.00    -0.268 OA
ATOM     14  N   UNL     1      -0.640   3.258   1.182  0.00  0.00    -0.278 N 
ATOM     15  F   UNL     1       4.482  -1.747  -2.637  0.00  0.00    -0.205 F 
ATOM     16  C   UNL     1      -0.678   3.937  -1.151  0.00  0.00    +0.043 C 
ENDROOT
BRANCH  14  17
ATOM     17  C   UNL     1      -1.518   3.946   2.132  0.00  0.00    +0.078 C 
ATOM     18  C   UNL     1      -1.100   3.563   3.566  0.00  0.00    +0.022 C 
ATOM     19  C   UNL     1      -1.619   4.614   4.511  0.00  0.00    +0.002 C 
ATOM     20  C   UNL     1      -2.984   4.236   5.117  0.00  0.00    +0.000 C 
ATOM     21  C   UNL     1      -3.943   3.611   4.086  0.00  0.00    +0.000 C 
ATOM     22  C   UNL     1      -3.901   4.319   2.758  0.00  0.00    +0.002 C 
ATOM     23  C   UNL     1      -2.899   3.585   1.844  0.00  0.00    +0.022 C 
ENDBRANCH  14  17
BRANCH  10  24
ATOM     24  N   UNL     1       0.061  -1.108   0.613  0.00  0.00    -0.283 N 
ATOM     25  C   UNL     1       0.660  -2.308   0.744  0.00  0.00    +0.214 C 
ATOM     26  O   UNL     1       1.852  -2.416   0.548  0.00  0.00    -0.276 OA
ATOM     27  C   UNL     1      -0.152  -3.517   1.132  0.00  0.00    +0.109 C 
ATOM     28  H   UNL     1      -1.005  -0.996   0.858  0.00  0.00    +0.155 HD
ENDBRANCH  10  24
BRANCH   1  30
ATOM     29  N   UNL     1       0.465   5.806   1.867  0.00  0.00    -0.313 N 
ATOM     30  C   UNL     1       0.092   5.485   0.613  0.00  0.00    +0.238 C 
ATOM     31  O   UNL     1      -0.228   6.358  -0.167  0.00  0.00    -0.273 OA
ATOM     32  H   UNL     1       0.673   5.012   2.599  0.00  0.00    +0.149 HD
BRANCH  29  33
ATOM     33  C   UNL     1       0.595   7.213   2.256  0.00  0.00    +0.104 C 
BRANCH  33  34
ATOM     34  C   UNL     1       1.147   7.300   3.680  0.00  0.00    +0.022 C 
BRANCH  34  36
ATOM     35  C   UNL     1       1.578   8.833   5.605  0.00  0.00    +0.007 C 
ATOM     36  C   UNL     1       1.143   8.759   4.140  0.00  0.00    -0.016 C 
ATOM     37  C   UNL     1       2.114   9.569   3.279  0.00  0.00    +0.007 C 
ENDBRANCH  34  36
ENDBRANCH  33  34
ENDBRANCH  29  33
ENDBRANCH   1  30
TORSDOF 6
