REMARK  Name = ZINC65059942
REMARK  5 active torsions:
REMARK  status: ('A' for Active; 'I' for Inactive)
REMARK    1  A    between atoms: C_1  and  O_2
REMARK    2  A    between atoms: O_2  and  C_3
REMARK    3  A    between atoms: C_8  and  C_13
REMARK    4  A    between atoms: C_21  and  C_23
REMARK    5  A    between atoms: C_28  and  C_29
REMARK                            x       y       z     vdW  Elec       q    Type
REMARK                         _______ _______ _______ _____ _____    ______ ____
ROOT
ATOM      1  C   UNL     1       3.548  -4.619  -3.727  0.00  0.00    +0.242 C 
ATOM      2  O   UNL     1       4.552  -3.960  -3.556  0.00  0.00    -0.273 OA
ATOM      3  N   UNL     1       3.623  -5.964  -3.764  0.00  0.00    -0.297 N 
ATOM      4  C   UNL     1       2.415  -6.774  -3.977  0.00  0.00    +0.127 C 
ATOM      5  C   UNL     1       2.647  -7.693  -5.183  0.00  0.00    +0.127 C 
ATOM      6  N   UNL     1       3.938  -8.375  -5.012  0.00  0.00    -0.295 N 
ATOM      7  C   UNL     1       5.145  -7.565  -4.799  0.00  0.00    +0.127 C 
ATOM      8  C   UNL     1       4.914  -6.646  -3.599  0.00  0.00    +0.127 C 
ATOM      9  C   UNL     1       4.012  -9.720  -5.049  0.00  0.00    +0.247 C 
ATOM     10  O   UNL     1       2.996 -10.384  -5.125  0.00  0.00    -0.270 OA
ENDROOT
BRANCH   1  16
ATOM     11  C   UNL     1       0.586  -0.595  -1.102  0.00  0.00    +0.121 A 
ATOM     12  C   UNL     1       1.158   0.204  -2.107  0.00  0.00    +0.047 A 
ATOM     13  C   UNL     1       1.782  -0.319  -3.184  0.00  0.00    +0.029 A 
ATOM     14  C   UNL     1       1.879  -1.774  -3.334  0.00  0.00    +0.043 A 
ATOM     15  N   UNL     1       2.417  -2.525  -4.262  0.00  0.00    -0.370 N 
ATOM     16  C   UNL     1       2.217  -3.933  -3.898  0.00  0.00    +0.190 C 
ATOM     17  C   UNL     1       1.464  -3.920  -2.587  0.00  0.00    +0.016 C 
ATOM     18  C   UNL     1       1.276  -2.617  -2.276  0.00  0.00    -0.000 A 
ATOM     19  C   UNL     1       0.625  -1.948  -1.144  0.00  0.00    +0.055 A 
ATOM     20  H   UNL     1       2.871  -2.205  -5.057  0.00  0.00    +0.161 HD
BRANCH  11  22
ATOM     21  C   UNL     1      -0.043   1.440  -0.046  0.00  0.00    +0.277 C 
ATOM     22  O   UNL     1      -0.024   0.011  -0.049  0.00  0.00    -0.495 OA
ENDBRANCH  11  22
ENDBRANCH   1  16
BRANCH   9  23
ATOM     23  C   UNL     1       5.329 -10.390  -4.996  0.00  0.00    +0.049 A 
ATOM     24  C   UNL     1       6.322 -10.057  -5.919  0.00  0.00    +0.013 A 
ATOM     25  C   UNL     1       7.549 -10.684  -5.864  0.00  0.00    +0.001 A 
ATOM     26  C   UNL     1       7.797 -11.643  -4.897  0.00  0.00    +0.001 A 
ATOM     27  C   UNL     1       6.817 -11.977  -3.979  0.00  0.00    +0.013 A 
ATOM     28  C   UNL     1       5.588 -11.353  -4.019  0.00  0.00    +0.067 A 
BRANCH  28  29
ATOM     29  C   UNL     1       4.523 -11.715  -3.015  0.00  0.00    +0.418 C 
ATOM     30  F   UNL     1       5.015 -12.695  -2.147  0.00  0.00    -0.166 F 
ATOM     31  F   UNL     1       4.169 -10.578  -2.282  0.00  0.00    -0.166 F 
ATOM     32  F   UNL     1       3.398 -12.207  -3.685  0.00  0.00    -0.166 F 
ENDBRANCH  28  29
ENDBRANCH   9  23
TORSDOF 4
