REMARK  Name = ZINC06303792
REMARK  6 active torsions:
REMARK  status: ('A' for Active; 'I' for Inactive)
REMARK    1  A    between atoms: C_1  and  C_2
REMARK    2  A    between atoms: C_2  and  O_3
REMARK    3  A    between atoms: O_3  and  C_4
REMARK    4  A    between atoms: C_9  and  N_10
REMARK    5  A    between atoms: C_11  and  C_13
REMARK    6  A    between atoms: C_14  and  C_26
REMARK                            x       y       z     vdW  Elec       q    Type
REMARK                         _______ _______ _______ _____ _____    ______ ____
ROOT
ATOM      1  C   UNL     1      -2.442   1.125   0.140  0.00  0.00    +0.194 A 
ATOM      2  C   UNL     1      -3.622   1.799   0.161  0.00  0.00    +0.008 A 
ATOM      3  C   UNL     1      -4.647   0.829   0.293  0.00  0.00    +0.024 A 
ATOM      4  C   UNL     1      -6.053   0.914   0.371  0.00  0.00    +0.012 A 
ATOM      5  C   UNL     1      -6.808  -0.202   0.497  0.00  0.00    +0.009 A 
ATOM      6  C   UNL     1      -6.198  -1.473   0.552  0.00  0.00    -0.014 A 
ATOM      7  C   UNL     1      -6.971  -2.638   0.682  0.00  0.00    +0.008 A 
ATOM      8  C   UNL     1      -6.359  -3.854   0.733  0.00  0.00    +0.001 A 
ATOM      9  C   UNL     1      -4.973  -3.961   0.658  0.00  0.00    +0.001 A 
ATOM     10  C   UNL     1      -4.192  -2.852   0.532  0.00  0.00    +0.012 A 
ATOM     11  C   UNL     1      -4.788  -1.583   0.477  0.00  0.00    +0.025 A 
ATOM     12  C   UNL     1      -4.008  -0.414   0.345  0.00  0.00    +0.144 A 
ATOM     13  O   UNL     1      -2.683  -0.199   0.246  0.00  0.00    -0.449 OA
ATOM     14  C   UNL     1      -3.806   3.292   0.064  0.00  0.00    +0.048 C 
ENDROOT
BRANCH   1  16
ATOM     15  N   UNL     1      -0.011   0.966   0.007  0.00  0.00    -0.276 N 
ATOM     16  C   UNL     1      -1.114   1.740   0.016  0.00  0.00    +0.284 C 
ATOM     17  O   UNL     1      -1.010   2.949  -0.078  0.00  0.00    -0.266 OA
ATOM     18  H   UNL     1      -0.097  -0.000   0.018  0.00  0.00    +0.155 HD
BRANCH  15  24
ATOM     19  C   UNL     1       2.323   0.957   0.647  0.00  0.00    +0.142 A 
ATOM     20  C   UNL     1       3.577   1.545   0.614  0.00  0.00    +0.047 A 
ATOM     21  C   UNL     1       3.770   2.724  -0.083  0.00  0.00    +0.004 A 
ATOM     22  C   UNL     1       2.714   3.319  -0.748  0.00  0.00    +0.002 A 
ATOM     23  C   UNL     1       1.461   2.736  -0.724  0.00  0.00    +0.027 A 
ATOM     24  C   UNL     1       1.258   1.556  -0.023  0.00  0.00    +0.076 A 
BRANCH  19  25
ATOM     25  O   UNL     1       2.132  -0.203   1.331  0.00  0.00    -0.490 OA
BRANCH  25  27
ATOM     26  C   UNL     1       2.863  -2.052   2.705  0.00  0.00    +0.048 C 
ATOM     27  C   UNL     1       3.269  -0.759   1.994  0.00  0.00    +0.226 C 
ENDBRANCH  25  27
ENDBRANCH  19  25
ENDBRANCH  15  24
ENDBRANCH   1  16
TORSDOF 4
