REMARK  Name = ZINC17090199
REMARK  7 active torsions:
REMARK  status: ('A' for Active; 'I' for Inactive)
REMARK    1  A    between atoms: C_1  and  N_2
REMARK    2  A    between atoms: C_3  and  C_8
REMARK    3  A    between atoms: N_10  and  N_11
REMARK    4  A    between atoms: C_12  and  C_13
REMARK    5  A    between atoms: C_12  and  C_20
REMARK    6  A    between atoms: C_16  and  O_19
REMARK    7  A    between atoms: C_23  and  O_26
REMARK                            x       y       z     vdW  Elec       q    Type
REMARK                         _______ _______ _______ _____ _____    ______ ____
ROOT
ATOM      1  N   UNL     1      -0.037   4.273   1.270  0.00  0.00    -0.179 NA
ATOM      2  C   UNL     1       1.007   3.577   1.638  0.00  0.00    +0.096 C 
ENDROOT
BRANCH   2   3
ATOM      3  C   UNL     1       0.953   2.098   1.621  0.00  0.00    +0.003 A 
ATOM      4  C   UNL     1       1.811   1.377   0.790  0.00  0.00    +0.013 A 
ATOM      5  C   UNL     1       1.758  -0.001   0.776  0.00  0.00    +0.046 A 
ATOM      6  C   UNL     1       0.853  -0.670   1.589  0.00  0.00    +0.117 A 
ATOM      7  C   UNL     1      -0.002   0.044   2.418  0.00  0.00    +0.046 A 
ATOM      8  C   UNL     1       0.045   1.421   2.437  0.00  0.00    +0.013 A 
BRANCH   6   9
ATOM      9  O   UNL     1       0.804  -2.028   1.573  0.00  0.00    -0.507 OA
ATOM     10  H   UNL     1       1.392  -2.450   2.215  0.00  0.00    +0.292 HD
ENDBRANCH   6   9
ENDBRANCH   2   3
BRANCH   2  11
ATOM     11  C   UNL     1       2.241   4.268   2.073  0.00  0.00    +0.003 A 
ATOM     12  C   UNL     1       3.383   3.529   2.385  0.00  0.00    +0.013 A 
ATOM     13  C   UNL     1       4.533   4.177   2.785  0.00  0.00    +0.046 A 
ATOM     14  C   UNL     1       4.552   5.561   2.887  0.00  0.00    +0.117 A 
ATOM     15  C   UNL     1       3.416   6.300   2.582  0.00  0.00    +0.046 A 
ATOM     16  C   UNL     1       2.264   5.660   2.176  0.00  0.00    +0.013 A 
BRANCH  14  17
ATOM     17  O   UNL     1       5.685   6.196   3.286  0.00  0.00    -0.507 OA
ATOM     18  H   UNL     1       5.750   6.321   4.243  0.00  0.00    +0.292 HD
ENDBRANCH  14  17
ENDBRANCH   2  11
BRANCH   1  21
ATOM     19  C   UNL     1      -2.335   4.340   0.652  0.00  0.00    +0.282 C 
ATOM     20  O   UNL     1      -2.276   5.555   0.609  0.00  0.00    -0.267 OA
ATOM     21  N   UNL     1      -1.229   3.621   0.930  0.00  0.00    -0.201 N 
ATOM     22  H   UNL     1      -1.259   2.652   0.894  0.00  0.00    +0.178 HD
BRANCH  19  25
ATOM     23  C   UNL     1      -2.765   1.289   0.367  0.00  0.00    +0.173 C 
ATOM     24  N   UNL     1      -3.812   2.310   0.274  0.00  0.00    -0.261 N 
ATOM     25  C   UNL     1      -3.612   3.657   0.402  0.00  0.00    +0.139 A 
ATOM     26  C   UNL     1      -4.856   4.247   0.253  0.00  0.00    +0.068 A 
ATOM     27  C   UNL     1      -5.743   3.190   0.032  0.00  0.00    +0.150 A 
ATOM     28  N   UNL     1      -5.056   2.077   0.061  0.00  0.00    -0.178 NA
ATOM     29 BR   UNL     1      -5.267   6.092   0.328  0.00  0.00    -0.046 Br
ENDBRANCH  19  25
ENDBRANCH   1  21
TORSDOF 6
