REMARK  Name = ZINC64015097
REMARK  6 active torsions:
REMARK  status: ('A' for Active; 'I' for Inactive)
REMARK    1  A    between atoms: C_1  and  C_2
REMARK    2  A    between atoms: C_4  and  C_33
REMARK    3  A    between atoms: C_6  and  N_8
REMARK    4  A    between atoms: C_14  and  N_20
REMARK    5  A    between atoms: C_21  and  C_23
REMARK    6  A    between atoms: C_23  and  C_24
REMARK                            x       y       z     vdW  Elec       q    Type
REMARK                         _______ _______ _______ _____ _____    ______ ____
ROOT
ATOM      1  N   UNL     1       0.090  -2.360   2.467  0.00  0.00    -0.221 N 
ATOM      2  C   UNL     1       0.156  -1.988   3.872  0.00  0.00    +0.108 C 
ATOM      3  C   UNL     1      -0.409  -0.666   4.334  0.00  0.00    +0.025 C 
ATOM      4  C   UNL     1      -0.250  -0.627   5.865  0.00  0.00    +0.004 C 
ATOM      5  C   UNL     1      -0.924  -1.814   6.543  0.00  0.00    +0.023 C 
ATOM      6  C   UNL     1      -0.456  -3.157   5.947  0.00  0.00    +0.083 C 
ATOM      7  C   UNL     1      -0.752  -3.100   4.471  0.00  0.00    +0.074 C 
ATOM      8  C   UNL     1      -0.430  -4.253   3.584  0.00  0.00    +0.110 C 
ATOM      9  N   UNL     1       0.034  -3.777   2.479  0.00  0.00    -0.191 NA
ENDROOT
BRANCH   1  15
ATOM     10  C   UNL     1       1.970   1.496   0.070  0.00  0.00    +0.044 C 
ATOM     11  C   UNL     1       0.979   0.365   0.169  0.00  0.00    -0.048 A 
ATOM     12  C   UNL     1       0.055   0.167  -0.841  0.00  0.00    +0.006 A 
ATOM     13  C   UNL     1      -0.858  -0.869  -0.754  0.00  0.00    -0.048 A 
ATOM     14  C   UNL     1      -0.849  -1.709   0.342  0.00  0.00    +0.028 A 
ATOM     15  C   UNL     1       0.078  -1.513   1.358  0.00  0.00    +0.052 A 
ATOM     16  C   UNL     1       0.997  -0.475   1.265  0.00  0.00    +0.028 A 
ATOM     17  C   UNL     1      -1.863  -1.080  -1.857  0.00  0.00    +0.044 C 
ENDBRANCH   1  15
BRANCH   6  18
ATOM     18  N   UNL     1       0.984  -3.327   6.157  0.00  0.00    -0.312 N 
ATOM     19  C   UNL     1       1.512  -4.565   6.235  0.00  0.00    +0.217 C 
ATOM     20  O   UNL     1       0.795  -5.538   6.131  0.00  0.00    -0.275 OA
ATOM     21  H   UNL     1       1.557  -2.549   6.240  0.00  0.00    +0.149 HD
BRANCH  19  22
ATOM     22  C   UNL     1       2.993  -4.739   6.451  0.00  0.00    +0.129 C 
BRANCH  22  23
ATOM     23  C   UNL     1       3.324  -6.209   6.500  0.00  0.00    -0.033 C 
ATOM     24  C   UNL     1       3.753  -6.980   5.476  0.00  0.00    -0.001 A 
ATOM     25  C   UNL     1       4.030  -6.694   4.064  0.00  0.00    +0.010 A 
ATOM     26  C   UNL     1       4.459  -7.696   3.263  0.00  0.00    +0.001 A 
ATOM     27  C   UNL     1       4.644  -8.998   3.747  0.00  0.00    +0.002 A 
ATOM     28  C   UNL     1       4.411  -9.339   5.032  0.00  0.00    +0.026 A 
ATOM     29  C   UNL     1       3.958  -8.364   5.963  0.00  0.00    +0.043 A 
ATOM     30  N   UNL     1       3.666  -8.444   7.238  0.00  0.00    -0.380 N 
ATOM     31  C   UNL     1       3.248  -7.117   7.707  0.00  0.00    +0.145 C 
ATOM     32  H   UNL     1       3.720  -9.245   7.782  0.00  0.00    +0.160 HD
ENDBRANCH  22  23
ENDBRANCH  19  22
ENDBRANCH   6  18
TORSDOF 4
