REMARK  Name = ZINC04330541
REMARK  5 active torsions:
REMARK  status: ('A' for Active; 'I' for Inactive)
REMARK    1  A    between atoms: C_3  and  C_10
REMARK    2  A    between atoms: C_5  and  N_7
REMARK    3  A    between atoms: C_11  and  C_12
REMARK    4  A    between atoms: N_14  and  C_15
REMARK    5  A    between atoms: C_16  and  C_20
REMARK                            x       y       z     vdW  Elec       q    Type
REMARK                         _______ _______ _______ _____ _____    ______ ____
ROOT
ATOM      1  C   UNL     1      -0.070   5.317   0.030  0.00  0.00    +0.013 C 
ATOM      2  C   UNL     1      -1.247   5.976   0.045  0.00  0.00    +0.068 C 
ENDROOT
BRANCH   1   5
ATOM      3  C   UNL     1      -1.222   1.748   0.017  0.00  0.00    +0.003 A 
ATOM      4  C   UNL     1      -1.249   3.127   0.030  0.00  0.00    +0.008 A 
ATOM      5  C   UNL     1      -0.050   3.846   0.022  0.00  0.00    -0.023 A 
ATOM      6  C   UNL     1       1.168   3.159   0.007  0.00  0.00    +0.040 A 
ATOM      7  C   UNL     1       1.179   1.781   0.000  0.00  0.00    +0.127 A 
ATOM      8  C   UNL     1      -0.013   1.076   0.008  0.00  0.00    +0.033 A 
BRANCH   7   9
ATOM      9  N   UNL     1       2.467   1.052  -0.015  0.00  0.00    +0.056 N 
ATOM     10  O   UNL     1       2.478  -0.166  -0.021  0.00  0.00    -0.126 OA
ATOM     11  O   UNL     1       3.517   1.671  -0.022  0.00  0.00    -0.126 OA
ENDBRANCH   7   9
ENDBRANCH   1   5
BRANCH   2  12
ATOM     12  C   UNL     1      -1.267   7.439   0.053  0.00  0.00    +0.241 C 
ATOM     13  O   UNL     1      -0.221   8.062   0.046  0.00  0.00    -0.270 OA
ATOM     14  N   UNL     1      -2.443   8.097   0.067  0.00  0.00    -0.275 N 
ATOM     15  H   UNL     1      -3.276   7.601   0.072  0.00  0.00    +0.156 HD
BRANCH  14  16
ATOM     16  C   UNL     1      -2.462   9.483   0.075  0.00  0.00    +0.089 A 
ATOM     17  C   UNL     1      -3.562  10.331   0.084  0.00  0.00    +0.080 A 
ATOM     18  C   UNL     1      -3.290  11.748   0.095  0.00  0.00    +0.028 A 
ATOM     19  C   UNL     1      -1.998  12.126   0.084  0.00  0.00    +0.048 A 
ATOM     20  S   UNL     1      -1.119  10.577   0.068  0.00  0.00    -0.081 S 
BRANCH  17  21
ATOM     21  C   UNL     1      -4.902   9.824   0.086  0.00  0.00    +0.102 C 
ATOM     22  N   UNL     1      -5.964   9.421   0.088  0.00  0.00    -0.191 NA
ENDBRANCH  17  21
ENDBRANCH  14  16
ENDBRANCH   2  12
TORSDOF 5
