REMARK  Name = ZINC12022578
REMARK  5 active torsions:
REMARK  status: ('A' for Active; 'I' for Inactive)
REMARK    1  A    between atoms: C_1  and  C_2
REMARK    2  A    between atoms: C_2  and  C_27
REMARK    3  A    between atoms: N_7  and  C_10
REMARK    4  A    between atoms: C_13  and  C_16
REMARK    5  A    between atoms: N_18  and  C_19
REMARK                            x       y       z     vdW  Elec       q    Type
REMARK                         _______ _______ _______ _____ _____    ______ ____
ROOT
ATOM      1  C   UNL     1      -4.958   5.462   0.476  0.00  0.00    +0.059 A 
ATOM      2  C   UNL     1      -3.766   6.178   0.475  0.00  0.00    +0.026 A 
ATOM      3  C   UNL     1      -2.563   5.517   0.363  0.00  0.00    +0.015 A 
ATOM      4  C   UNL     1      -2.542   4.124   0.249  0.00  0.00    +0.037 A 
ATOM      5  C   UNL     1      -3.742   3.408   0.245  0.00  0.00    +0.015 A 
ATOM      6  C   UNL     1      -4.941   4.075   0.363  0.00  0.00    +0.026 A 
ENDROOT
BRANCH   1  13
ATOM      7  C   UNL     1      -7.731   9.383   0.901  0.00  0.00    +0.022 C 
ATOM      8  C   UNL     1      -7.753   7.887   1.223  0.00  0.00    +0.064 C 
ATOM      9  C   UNL     1      -8.631   7.142   0.183  0.00  0.00    +0.205 C 
ATOM     10  S   UNL     1      -7.659   5.587   0.045  0.00  0.00    +0.053 S 
ATOM     11  O   UNL     1      -7.461   5.231  -1.317  0.00  0.00    -0.155 OA
ATOM     12  O   UNL     1      -8.092   4.631   1.003  0.00  0.00    -0.155 OA
ATOM     13  N   UNL     1      -6.174   6.135   0.590  0.00  0.00    -0.143 N 
ATOM     14  C   UNL     1      -6.362   7.334   1.162  0.00  0.00    +0.246 C 
ATOM     15  O   UNL     1      -5.426   7.957   1.617  0.00  0.00    -0.273 OA
ATOM     16  C   UNL     1      -8.323   7.671   2.627  0.00  0.00    +0.022 C 
ENDBRANCH   1  13
BRANCH   4  17
ATOM     17  C   UNL     1      -1.256   3.411   0.128  0.00  0.00    +0.248 C 
ATOM     18  O   UNL     1      -0.212   4.036   0.127  0.00  0.00    -0.270 OA
ATOM     19  N   UNL     1      -1.237   2.068   0.019  0.00  0.00    -0.281 N 
ATOM     20  H   UNL     1      -2.069   1.575  -0.048  0.00  0.00    +0.155 HD
BRANCH  19  21
ATOM     21  C   UNL     1      -0.017   1.385   0.002  0.00  0.00    +0.039 A 
ATOM     22  C   UNL     1       1.090   1.954  -0.615  0.00  0.00    +0.061 A 
ATOM     23  C   UNL     1       2.295   1.274  -0.635  0.00  0.00    +0.128 A 
ATOM     24  C   UNL     1       2.398   0.027  -0.041  0.00  0.00    +0.076 A 
ATOM     25  C   UNL     1       1.295  -0.542   0.574  0.00  0.00    +0.128 A 
ATOM     26  C   UNL     1       0.089   0.135   0.597  0.00  0.00    +0.061 A 
ATOM     27  F   UNL     1       1.398  -1.758   1.152  0.00  0.00    -0.205 F 
ATOM     28  F   UNL     1       3.372   1.827  -1.235  0.00  0.00    -0.205 F 
ENDBRANCH  19  21
ENDBRANCH   4  17
TORSDOF 3
