REMARK  Name = ZINC64739826
REMARK  6 active torsions:
REMARK  status: ('A' for Active; 'I' for Inactive)
REMARK    1  A    between atoms: C_1  and  C_2
REMARK    2  A    between atoms: C_2  and  S_3
REMARK    3  A    between atoms: S_3  and  C_4
REMARK    4  A    between atoms: C_10  and  C_18
REMARK    5  A    between atoms: N_20  and  C_21
REMARK    6  A    between atoms: C_26  and  C_27
REMARK                            x       y       z     vdW  Elec       q    Type
REMARK                         _______ _______ _______ _____ _____    ______ ____
ROOT
ATOM      1  C   UNL     1       0.755  -2.342  -1.436  0.00  0.00    +0.182 C 
ATOM      2  N   UNL     1       0.158  -2.834  -0.364  0.00  0.00    -0.154 NA
ATOM      3  C   UNL     1       0.127  -4.144  -0.107  0.00  0.00    +0.249 C 
ATOM      4  O   UNL     1      -0.448  -4.589   0.867  0.00  0.00    -0.273 OA
ATOM      5  C   UNL     1       0.845  -5.047  -1.089  0.00  0.00    +0.153 C 
ATOM      6  C   UNL     1      -0.148  -6.099  -1.585  0.00  0.00    +0.103 C 
ATOM      7  C   UNL     1       0.607  -7.118  -2.442  0.00  0.00    +0.110 C 
ATOM      8  C   UNL     1       1.466  -6.431  -3.464  0.00  0.00    +0.219 C 
ATOM      9  O   UNL     1       1.845  -7.066  -4.424  0.00  0.00    -0.275 OA
ATOM     10  N   UNL     1       1.833  -5.143  -3.361  0.00  0.00    -0.273 N 
ATOM     11  C   UNL     1       1.398  -4.369  -2.329  0.00  0.00    +0.117 C 
ATOM     12  N   UNL     1       1.325  -3.070  -2.403  0.00  0.00    -0.212 NA
ATOM     13  H   UNL     1       2.428  -4.759  -4.024  0.00  0.00    +0.156 HD
ENDROOT
BRANCH   6  14
ATOM     14  C   UNL     1      -0.780  -6.794  -0.406  0.00  0.00    +0.222 C 
ATOM     15  O   UNL     1      -0.099  -7.472   0.334  0.00  0.00    -0.275 OA
ATOM     16  N   UNL     1      -2.101  -6.663  -0.176  0.00  0.00    -0.285 N 
ATOM     17  H   UNL     1      -2.656  -6.170  -0.800  0.00  0.00    +0.155 HD
BRANCH  16  18
ATOM     18  C   UNL     1      -2.673  -7.239   0.965  0.00  0.00    +0.036 A 
ATOM     19  C   UNL     1      -2.074  -8.340   1.563  0.00  0.00    +0.024 A 
ATOM     20  C   UNL     1      -2.640  -8.906   2.688  0.00  0.00    +0.017 A 
ATOM     21  C   UNL     1      -3.803  -8.377   3.220  0.00  0.00    +0.018 A 
ATOM     22  C   UNL     1      -4.401  -7.280   2.627  0.00  0.00    +0.020 A 
ATOM     23  C   UNL     1      -3.836  -6.707   1.504  0.00  0.00    -0.028 A 
ATOM     24  C   UNL     1      -4.486  -5.508   0.861  0.00  0.00    +0.046 C 
ATOM     25 BR   UNL     1      -4.575  -9.155   4.761  0.00  0.00    -0.050 Br
ENDBRANCH  16  18
ENDBRANCH   6  14
BRANCH   1  26
ATOM     26  S   UNL     1       0.798  -0.589  -1.607  0.00  0.00    -0.089 S 
BRANCH  26  28
ATOM     27  C   UNL     1      -0.092   1.548  -0.150  0.00  0.00    +0.016 C 
ATOM     28  C   UNL     1      -0.058   0.018  -0.128  0.00  0.00    +0.074 C 
ENDBRANCH  26  28
ENDBRANCH   1  26
TORSDOF 4
