REMARK  Name = ZINC04974270
REMARK  9 active torsions:
REMARK  status: ('A' for Active; 'I' for Inactive)
REMARK    1  A    between atoms: C_4  and  C_7
REMARK    2  A    between atoms: C_7  and  C_8
REMARK    3  A    between atoms: C_7  and  C_14
REMARK    4  A    between atoms: C_7  and  O_20
REMARK    5  A    between atoms: O_20  and  C_21
REMARK    6  A    between atoms: C_21  and  C_22
REMARK    7  A    between atoms: C_24  and  O_41
REMARK    8  A    between atoms: C_26  and  O_40
REMARK    9  A    between atoms: C_28  and  N_31
REMARK                            x       y       z     vdW  Elec       q    Type
REMARK                         _______ _______ _______ _____ _____    ______ ____
ROOT
ATOM      1  O   UNL     1      -2.612   1.831   0.142  0.00  0.00    -0.357 OA
ENDROOT
BRANCH   1   2
ATOM      2  C   UNL     1      -1.259   2.190  -0.144  0.00  0.00    +0.144 C 
BRANCH   2   6
ATOM      3  C   UNL     1       1.354  -0.944   1.118  0.00  0.00    +0.000 A 
ATOM      4  C   UNL     1       0.615  -1.086  -0.041  0.00  0.00    +0.000 A 
ATOM      5  C   UNL     1      -0.232  -0.072  -0.449  0.00  0.00    +0.007 A 
ATOM      6  C   UNL     1      -0.340   1.083   0.303  0.00  0.00    -0.007 A 
ATOM      7  C   UNL     1       0.399   1.224   1.463  0.00  0.00    +0.007 A 
ATOM      8  C   UNL     1       1.247   0.211   1.870  0.00  0.00    +0.000 A 
ENDBRANCH   2   6
BRANCH   2   9
ATOM      9  C   UNL     1      -0.910   3.460   0.589  0.00  0.00    -0.007 A 
ATOM     10  C   UNL     1       0.302   4.082   0.355  0.00  0.00    +0.007 A 
ATOM     11  C   UNL     1       0.620   5.249   1.025  0.00  0.00    +0.000 A 
ATOM     12  C   UNL     1      -0.270   5.788   1.935  0.00  0.00    +0.000 A 
ATOM     13  C   UNL     1      -1.479   5.162   2.173  0.00  0.00    +0.000 A 
ATOM     14  C   UNL     1      -1.799   3.998   1.500  0.00  0.00    +0.007 A 
ENDBRANCH   2   9
BRANCH   2  15
ATOM     15  C   UNL     1      -1.099   2.407  -1.627  0.00  0.00    -0.007 A 
ATOM     16  C   UNL     1       0.117   2.157  -2.235  0.00  0.00    +0.007 A 
ATOM     17  C   UNL     1       0.262   2.352  -3.596  0.00  0.00    +0.000 A 
ATOM     18  C   UNL     1      -0.806   2.805  -4.347  0.00  0.00    +0.000 A 
ATOM     19  C   UNL     1      -2.021   3.060  -3.738  0.00  0.00    +0.000 A 
ATOM     20  C   UNL     1      -2.167   2.861  -2.378  0.00  0.00    +0.007 A 
ENDBRANCH   2  15
ENDBRANCH   1   2
BRANCH   1  21
ATOM     21  C   UNL     1      -3.016   0.585  -0.429  0.00  0.00    +0.196 C 
BRANCH  21  22
ATOM     22  C   UNL     1      -4.483   0.318  -0.084  0.00  0.00    +0.178 C 
ATOM     23  C   UNL     1      -4.957  -1.004  -0.739  0.00  0.00    +0.178 C 
ATOM     24  C   UNL     1      -6.126  -1.398   0.204  0.00  0.00    +0.195 C 
ATOM     25  C   UNL     1      -5.626  -0.892   1.574  0.00  0.00    +0.255 C 
ATOM     26  O   UNL     1      -4.633   0.111   1.329  0.00  0.00    -0.346 OA
BRANCH  25  27
ATOM     27  N   UNL     1      -6.742  -0.312   2.327  0.00  0.00    -0.271 N 
ATOM     28  C   UNL     1      -7.150  -0.900   3.493  0.00  0.00    +0.098 A 
ATOM     29  C   UNL     1      -8.178  -0.366   4.187  0.00  0.00    +0.088 A 
ATOM     30  C   UNL     1      -8.814   0.797   3.690  0.00  0.00    +0.254 A 
ATOM     31  O   UNL     1      -9.743   1.297   4.298  0.00  0.00    -0.268 OA
ATOM     32  N   UNL     1      -8.381   1.347   2.538  0.00  0.00    -0.275 N 
ATOM     33  H   UNL     1      -8.827   2.166   2.178  0.00  0.00    +0.173 HD
ATOM     34  C   UNL     1      -7.351   0.796   1.869  0.00  0.00    +0.331 A 
ATOM     35  O   UNL     1      -6.968   1.305   0.833  0.00  0.00    -0.246 OA
ENDBRANCH  25  27
BRANCH  24  36
ATOM     36  O   UNL     1      -7.332  -0.731  -0.175  0.00  0.00    -0.385 OA
ATOM     37  H   UNL     1      -7.686  -1.014  -1.029  0.00  0.00    +0.210 HD
ENDBRANCH  24  36
BRANCH  23  38
ATOM     38  O   UNL     1      -5.423  -0.780  -2.071  0.00  0.00    -0.386 OA
ATOM     39  H   UNL     1      -5.729  -1.580  -2.520  0.00  0.00    +0.210 HD
ENDBRANCH  23  38
ENDBRANCH  21  22
ENDBRANCH   1  21
TORSDOF 9
