REMARK  Name = ZINC47383584
REMARK  7 active torsions:
REMARK  status: ('A' for Active; 'I' for Inactive)
REMARK    1  A    between atoms: C_1  and  C_2
REMARK    2  A    between atoms: C_2  and  C_3
REMARK    3  A    between atoms: C_2  and  N_4
REMARK    4  A    between atoms: N_7  and  C_8
REMARK    5  A    between atoms: C_13  and  N_14
REMARK    6  A    between atoms: N_14  and  S_15
REMARK    7  A    between atoms: S_15  and  C_18
REMARK                            x       y       z     vdW  Elec       q    Type
REMARK                         _______ _______ _______ _____ _____    ______ ____
ROOT
ATOM      1  C   UNL     1      -3.270  -3.391  -1.154  0.00  0.00    +0.057 A 
ATOM      2  C   UNL     1      -2.290  -4.216  -1.684  0.00  0.00    +0.025 A 
ATOM      3  C   UNL     1      -2.629  -5.460  -2.183  0.00  0.00    +0.002 A 
ATOM      4  C   UNL     1      -3.944  -5.886  -2.156  0.00  0.00    +0.002 A 
ATOM      5  C   UNL     1      -4.928  -5.069  -1.630  0.00  0.00    +0.026 A 
ATOM      6  C   UNL     1      -4.596  -3.822  -1.121  0.00  0.00    +0.069 A 
ENDROOT
BRANCH   1  10
ATOM      7  N   UNL     1      -1.671  -0.168  -0.795  0.00  0.00    -0.297 N 
ATOM      8  C   UNL     1      -1.940  -1.417  -1.224  0.00  0.00    +0.304 C 
ATOM      9  O   UNL     1      -1.292  -1.901  -2.132  0.00  0.00    -0.253 OA
ATOM     10  N   UNL     1      -2.929  -2.129  -0.648  0.00  0.00    -0.268 N 
ATOM     11  H   UNL     1      -2.188   0.218  -0.071  0.00  0.00    +0.151 HD
ATOM     12  H   UNL     1      -3.403  -1.769   0.117  0.00  0.00    +0.156 HD
BRANCH   7  14
ATOM     13  C   UNL     1      -0.872   2.100  -1.239  0.00  0.00    +0.027 C 
ATOM     14  C   UNL     1      -0.597   0.606  -1.421  0.00  0.00    +0.068 C 
ATOM     15  C   UNL     1       0.739   0.250  -0.765  0.00  0.00    +0.027 C 
ENDBRANCH   7  14
ENDBRANCH   1  10
BRANCH   6  16
ATOM     16  N   UNL     1      -5.589  -2.997  -0.583  0.00  0.00    -0.214 N 
ATOM     17  H   UNL     1      -5.536  -2.035  -0.698  0.00  0.00    +0.174 HD
BRANCH  16  18
ATOM     18  S   UNL     1      -6.855  -3.662   0.253  0.00  0.00    +0.079 S 
ATOM     19  O   UNL     1      -7.607  -2.578   0.781  0.00  0.00    -0.149 OA
ATOM     20  O   UNL     1      -7.430  -4.645  -0.597  0.00  0.00    -0.149 OA
BRANCH  18  21
ATOM     21  C   UNL     1      -6.175  -4.522   1.631  0.00  0.00    +0.147 A 
ATOM     22  C   UNL     1      -5.926  -4.067   2.883  0.00  0.00    +0.038 A 
ATOM     23  C   UNL     1      -5.382  -4.931   3.816  0.00  0.00    +0.030 A 
ATOM     24  C   UNL     1      -5.114  -6.209   3.449  0.00  0.00    +0.080 A 
ATOM     25  S   UNL     1      -5.643  -6.223   1.744  0.00  0.00    -0.057 S 
ATOM     26 CL   UNL     1      -4.439  -7.499   4.395  0.00  0.00    -0.076 Cl
ENDBRANCH  18  21
ENDBRANCH  16  18
ENDBRANCH   6  16
TORSDOF 5
