REMARK  Name = ZINC39338917
REMARK  7 active torsions:
REMARK  status: ('A' for Active; 'I' for Inactive)
REMARK    1  A    between atoms: C_2  and  C_24
REMARK    2  A    between atoms: C_4  and  N_11
REMARK    3  A    between atoms: C_6  and  C_7
REMARK    4  A    between atoms: N_11  and  C_12
REMARK    5  A    between atoms: C_12  and  N_14
REMARK    6  A    between atoms: N_14  and  N_15
REMARK    7  A    between atoms: C_16  and  C_18
REMARK                            x       y       z     vdW  Elec       q    Type
REMARK                         _______ _______ _______ _____ _____    ______ ____
ROOT
ATOM      1  N   UNL     1       3.621  -0.650  -0.036  0.00  0.00    -0.296 N 
ATOM      2  H   UNL     1       4.451  -0.156  -0.123  0.00  0.00    +0.154 HD
ENDROOT
BRANCH   1   6
ATOM      3  C   UNL     1      -0.014   1.382   0.046  0.00  0.00    +0.024 A 
ATOM      4  C   UNL     1       0.205   0.326   0.911  0.00  0.00    +0.057 A 
ATOM      5  C   UNL     1       1.410  -0.350   0.886  0.00  0.00    +0.035 A 
ATOM      6  C   UNL     1       2.400   0.032  -0.009  0.00  0.00    +0.034 A 
ATOM      7  C   UNL     1       2.176   1.093  -0.877  0.00  0.00    +0.035 A 
ATOM      8  C   UNL     1       0.970   1.764  -0.847  0.00  0.00    +0.057 A 
BRANCH   8   9
ATOM      9  C   UNL     1       0.726   2.916  -1.788  0.00  0.00    +0.417 C 
ATOM     10  F   UNL     1       1.138   4.108  -1.183  0.00  0.00    -0.166 F 
ATOM     11  F   UNL     1       1.452   2.716  -2.967  0.00  0.00    -0.166 F 
ATOM     12  F   UNL     1      -0.638   2.992  -2.088  0.00  0.00    -0.166 F 
ENDBRANCH   8   9
BRANCH   4  13
ATOM     13  C   UNL     1      -0.870  -0.088   1.882  0.00  0.00    +0.417 C 
ATOM     14  F   UNL     1      -1.691  -1.052   1.287  0.00  0.00    -0.166 F 
ATOM     15  F   UNL     1      -0.279  -0.624   3.032  0.00  0.00    -0.166 F 
ATOM     16  F   UNL     1      -1.638   1.028   2.231  0.00  0.00    -0.166 F 
ENDBRANCH   4  13
ENDBRANCH   1   6
BRANCH   1  17
ATOM     17  C   UNL     1       3.644  -1.995   0.058  0.00  0.00    +0.151 C 
ATOM     18  S   UNL     1       2.178  -2.877   0.068  0.00  0.00    -0.017 S 
BRANCH  17  19
ATOM     19  N   UNL     1       4.822  -2.644   0.144  0.00  0.00    -0.246 N 
ATOM     20  H   UNL     1       4.839  -3.611   0.212  0.00  0.00    +0.172 HD
BRANCH  19  21
ATOM     21  N   UNL     1       6.023  -1.921   0.136  0.00  0.00    -0.233 N 
ATOM     22  C   UNL     1       7.201  -2.571   0.222  0.00  0.00    +0.257 C 
ATOM     23  O   UNL     1       7.221  -3.780   0.307  0.00  0.00    -0.272 OA
ATOM     24  H   UNL     1       6.006  -0.954   0.068  0.00  0.00    +0.173 HD
BRANCH  22  25
ATOM     25  C   UNL     1       8.492  -1.794   0.213  0.00  0.00    +0.215 C 
ATOM     26  C   UNL     1       8.878  -1.437  -1.205  0.00  0.00    +0.010 C 
ATOM     27  C   UNL     1      10.056  -2.021  -1.421  0.00  0.00    +0.018 C 
ATOM     28  C   UNL     1      10.469  -2.746  -0.219  0.00  0.00    +0.106 C 
ATOM     29  N   UNL     1       9.590  -2.626   0.722  0.00  0.00    -0.275 NA
ENDBRANCH  22  25
ENDBRANCH  19  21
ENDBRANCH  17  19
ENDBRANCH   1  17
TORSDOF 7
