REMARK  Name = ZINC29247089
REMARK  2 active torsions:
REMARK  status: ('A' for Active; 'I' for Inactive)
REMARK    1  A    between atoms: C_7  and  C_11
REMARK    2  A    between atoms: C_17  and  C_19
REMARK                            x       y       z     vdW  Elec       q    Type
REMARK                         _______ _______ _______ _____ _____    ______ ____
ROOT
ATOM      1  C   UNL     1       0.599   2.856   4.655  0.00  0.00    +0.144 C 
ATOM      2  C   UNL     1      -0.351   3.306   5.785  0.00  0.00    +0.032 C 
ATOM      3  C   UNL     1      -1.679   2.589   5.426  0.00  0.00    +0.021 C 
ATOM      4  C   UNL     1      -1.655   2.646   3.878  0.00  0.00    +0.108 C 
ATOM      5  N   UNL     1      -0.239   2.453   3.516  0.00  0.00    -0.291 N 
ATOM      6  C   UNL     1       0.213   1.980   2.338  0.00  0.00    +0.219 C 
ATOM      7  O   UNL     1       1.405   1.861   2.149  0.00  0.00    -0.275 OA
ENDROOT
BRANCH   1  14
ATOM      8  C   UNL     1       5.995   4.019   4.951  0.00  0.00    +0.002 C 
ATOM      9  C   UNL     1       5.602   4.798   3.700  0.00  0.00    +0.008 C 
ATOM     10  C   UNL     1       4.588   5.885   4.069  0.00  0.00    +0.076 C 
ATOM     11  C   UNL     1       3.198   5.307   3.995  0.00  0.00    +0.134 A 
ATOM     12  N   UNL     1       2.155   5.837   3.422  0.00  0.00    -0.134 NA
ATOM     13  N   UNL     1       1.138   5.062   3.578  0.00  0.00    -0.132 NA
ATOM     14  C   UNL     1       1.492   4.002   4.255  0.00  0.00    +0.154 A 
ATOM     15  N   UNL     1       2.809   4.127   4.532  0.00  0.00    -0.313 N 
ATOM     16  C   UNL     1       3.659   3.171   5.241  0.00  0.00    +0.125 C 
ATOM     17  C   UNL     1       4.812   3.921   5.914  0.00  0.00    +0.022 C 
ENDBRANCH   1  14
BRANCH   6  18
ATOM     18  C   UNL     1      -0.763   1.597   1.255  0.00  0.00    +0.075 C 
ATOM     19  C   UNL     1      -0.013   1.086   0.008  0.00  0.00    +0.013 C 
ATOM     20  C   UNL     1      -0.784   1.609  -1.216  0.00  0.00    +0.001 C 
ATOM     21  C   UNL     1      -1.978   2.421  -0.670  0.00  0.00    +0.001 C 
ATOM     22  C   UNL     1      -1.531   2.845   0.750  0.00  0.00    +0.013 C 
ENDBRANCH   6  18
TORSDOF 2
