REMARK  Name = ZINC67546714
REMARK  5 active torsions:
REMARK  status: ('A' for Active; 'I' for Inactive)
REMARK    1  A    between atoms: C_1  and  N_2
REMARK    2  A    between atoms: C_5  and  N_8
REMARK    3  A    between atoms: N_8  and  C_9
REMARK    4  A    between atoms: N_8  and  C_10
REMARK    5  A    between atoms: C_13  and  N_16
REMARK                            x       y       z     vdW  Elec       q    Type
REMARK                         _______ _______ _______ _____ _____    ______ ____
ROOT
ATOM      1  C   UNL     1       2.415  -4.810  -0.216  0.00  0.00    +0.030 A 
ATOM      2  C   UNL     1       3.669  -4.272  -0.475  0.00  0.00    +0.025 A 
ATOM      3  C   UNL     1       4.800  -5.048  -0.314  0.00  0.00    +0.025 A 
ATOM      4  C   UNL     1       4.684  -6.366   0.106  0.00  0.00    +0.035 A 
ATOM      5  C   UNL     1       3.430  -6.904   0.365  0.00  0.00    +0.025 A 
ATOM      6  C   UNL     1       2.300  -6.127   0.210  0.00  0.00    +0.025 A 
ENDROOT
BRANCH   4   7
ATOM      7  N   UNL     1       5.832  -7.154   0.268  0.00  0.00    -0.269 N 
ATOM      8  C   UNL     1       5.746  -8.496   0.180  0.00  0.00    +0.307 C 
ATOM      9  O   UNL     1       4.657  -9.033   0.120  0.00  0.00    -0.252 OA
ATOM     10  N   UNL     1       6.868  -9.243   0.158  0.00  0.00    -0.282 N 
ATOM     11  C   UNL     1       8.168  -8.604   0.372  0.00  0.00    +0.132 C 
ATOM     12  C   UNL     1       8.787  -9.130   1.671  0.00  0.00    +0.185 C 
ATOM     13  S   UNL     1       8.941 -10.937   1.560  0.00  0.00    -0.028 S 
ATOM     14  O   UNL     1       9.277 -11.442   2.844  0.00  0.00    -0.174 OA
ATOM     15  O   UNL     1       9.773 -11.251   0.452  0.00  0.00    -0.174 OA
ATOM     16  C   UNL     1       7.239 -11.440   1.168  0.00  0.00    +0.185 C 
ATOM     17  C   UNL     1       6.774 -10.685  -0.075  0.00  0.00    +0.132 C 
ATOM     18  H   UNL     1       6.688  -6.733   0.444  0.00  0.00    +0.156 HD
ENDBRANCH   4   7
BRANCH   1  19
ATOM     19  N   UNL     1       1.269  -4.024  -0.378  0.00  0.00    -0.330 N 
ATOM     20  C   UNL     1       1.368  -2.709  -1.015  0.00  0.00    +0.129 C 
BRANCH  19  25
ATOM     21  C   UNL     1      -4.214  -4.419   0.883  0.00  0.00    -0.096 C 
ATOM     22  N   UNL     1      -2.863  -4.037   0.453  0.00  0.00    +0.378 N 
ATOM     23  C   UNL     1      -1.957  -4.064   1.608  0.00  0.00    -0.077 C 
ATOM     24  C   UNL     1      -0.566  -3.589   1.182  0.00  0.00    +0.004 C 
ATOM     25  C   UNL     1      -0.029  -4.517   0.088  0.00  0.00    +0.070 C 
ATOM     26  C   UNL     1      -1.018  -4.539  -1.080  0.00  0.00    +0.004 C 
ATOM     27  C   UNL     1      -2.393  -4.979  -0.570  0.00  0.00    -0.077 C 
ATOM     28  H   UNL     1      -2.884  -3.105   0.067  0.00  0.00    -0.082 HD
ENDBRANCH  19  25
ENDBRANCH   1  19
TORSDOF 3
