REMARK  Name = ZINC34979479
REMARK  4 active torsions:
REMARK  status: ('A' for Active; 'I' for Inactive)
REMARK    1  A    between atoms: C_3  and  N_11
REMARK    2  A    between atoms: C_4  and  N_8
REMARK    3  A    between atoms: N_11  and  C_12
REMARK    4  A    between atoms: C_12  and  C_13
REMARK                            x       y       z     vdW  Elec       q    Type
REMARK                         _______ _______ _______ _____ _____    ______ ____
ROOT
ATOM      1  N   UNL     1       3.606   2.080  -0.127  0.00  0.00    -0.338 N 
ATOM      2  H   UNL     1       4.444   1.595  -0.065  0.00  0.00    +0.146 HD
ENDROOT
BRANCH   1   5
ATOM      3  C   UNL     1      -0.001   1.376  -0.215  0.00  0.00    +0.040 A 
ATOM      4  C   UNL     1       1.197   2.062  -0.276  0.00  0.00    +0.028 A 
ATOM      5  C   UNL     1       2.393   1.388  -0.066  0.00  0.00    +0.058 A 
ATOM      6  C   UNL     1       2.382   0.026   0.205  0.00  0.00    +0.150 A 
ATOM      7  C   UNL     1       1.182  -0.656   0.264  0.00  0.00    +0.073 A 
ATOM      8  C   UNL     1      -0.009   0.018   0.054  0.00  0.00    +0.126 A 
ATOM      9  F   UNL     1      -1.182  -0.651   0.114  0.00  0.00    -0.205 F 
BRANCH   6  10
ATOM     10  N   UNL     1       3.655  -0.695   0.428  0.00  0.00    +0.058 N 
ATOM     11  O   UNL     1       3.794  -1.821   0.010  0.00  0.00    -0.126 OA
ATOM     12  O   UNL     1       4.556  -0.158   1.029  0.00  0.00    -0.126 OA
ENDBRANCH   6  10
ENDBRANCH   1   5
BRANCH   1  13
ATOM     13  C   UNL     1       3.612   3.536  -0.284  0.00  0.00    +0.138 C 
BRANCH  13  14
ATOM     14  C   UNL     1       5.035   4.032  -0.322  0.00  0.00    -0.012 A 
ATOM     15  C   UNL     1       5.607   4.576   0.812  0.00  0.00    +0.008 A 
ATOM     16  C   UNL     1       6.912   5.031   0.779  0.00  0.00    +0.020 A 
ATOM     17  C   UNL     1       7.646   4.942  -0.391  0.00  0.00    +0.042 A 
ATOM     18  C   UNL     1       7.074   4.397  -1.526  0.00  0.00    +0.040 A 
ATOM     19  C   UNL     1       5.769   3.938  -1.491  0.00  0.00    +0.047 A 
ATOM     20 CL   UNL     1       5.052   3.248  -2.914  0.00  0.00    -0.083 Cl
ATOM     21 CL   UNL     1       9.284   5.513  -0.434  0.00  0.00    -0.083 Cl
ENDBRANCH  13  14
ENDBRANCH   1  13
TORSDOF 4
