REMARK  Name = ZINC63280740
REMARK  6 active torsions:
REMARK  status: ('A' for Active; 'I' for Inactive)
REMARK    1  A    between atoms: C_1  and  C_2
REMARK    2  A    between atoms: C_2  and  C_4
REMARK    3  A    between atoms: C_2  and  N_10
REMARK    4  A    between atoms: C_11  and  C_13
REMARK    5  A    between atoms: C_20  and  C_22
REMARK    6  A    between atoms: C_22  and  C_23
REMARK                            x       y       z     vdW  Elec       q    Type
REMARK                         _______ _______ _______ _____ _____    ______ ____
ROOT
ATOM      1  C   UNL     1       2.736  -1.073  -2.455  0.00  0.00    +0.092 C 
ATOM      2  C   UNL     1       4.246  -1.104  -2.205  0.00  0.00    +0.016 C 
ATOM      3  C   UNL     1       4.961  -1.629  -3.452  0.00  0.00    +0.020 C 
ATOM      4  C   UNL     1       4.685  -0.686  -4.628  0.00  0.00    +0.108 C 
ATOM      5  N   UNL     1       3.231  -0.537  -4.783  0.00  0.00    -0.300 N 
ATOM      6  C   UNL     1       2.434  -0.125  -3.620  0.00  0.00    +0.120 C 
ATOM      7  C   UNL     1       2.640  -0.773  -5.971  0.00  0.00    +0.220 C 
ATOM      8  O   UNL     1       1.439  -0.646  -6.086  0.00  0.00    -0.275 OA
ENDROOT
BRANCH   1  10
ATOM      9  N   UNL     1       0.688  -0.476  -1.203  0.00  0.00    -0.308 N 
ATOM     10  C   UNL     1       2.031  -0.587  -1.215  0.00  0.00    +0.218 C 
ATOM     11  O   UNL     1       2.672  -0.295  -0.228  0.00  0.00    -0.275 OA
ATOM     12  H   UNL     1       0.175  -0.710  -1.993  0.00  0.00    +0.149 HD
BRANCH   9  14
ATOM     13  C   UNL     1      -0.019   1.526   0.010  0.00  0.00    +0.033 C 
ATOM     14  C   UNL     1       0.002  -0.004   0.002  0.00  0.00    +0.100 C 
BRANCH  14  15
ATOM     15  C   UNL     1      -1.412  -0.526   0.013  0.00  0.00    -0.027 A 
ATOM     16  C   UNL     1      -2.141  -0.569  -1.161  0.00  0.00    +0.005 A 
ATOM     17  C   UNL     1      -3.438  -1.047  -1.151  0.00  0.00    +0.000 A 
ATOM     18  C   UNL     1      -4.005  -1.483   0.032  0.00  0.00    +0.000 A 
ATOM     19  C   UNL     1      -3.275  -1.441   1.205  0.00  0.00    +0.000 A 
ATOM     20  C   UNL     1      -1.977  -0.966   1.195  0.00  0.00    +0.005 A 
ENDBRANCH  14  15
ENDBRANCH   9  14
ENDBRANCH   1  10
BRANCH   7  21
ATOM     21  C   UNL     1       3.470  -1.195  -7.156  0.00  0.00    +0.129 C 
BRANCH  21  22
ATOM     22  C   UNL     1       2.575  -1.394  -8.351  0.00  0.00    -0.033 C 
ATOM     23  C   UNL     1       2.306  -0.494  -9.325  0.00  0.00    -0.001 A 
ATOM     24  C   UNL     1       2.749   0.887  -9.552  0.00  0.00    +0.010 A 
ATOM     25  C   UNL     1       2.298   1.549 -10.641  0.00  0.00    +0.001 A 
ATOM     26  C   UNL     1       1.420   0.952 -11.556  0.00  0.00    +0.002 A 
ATOM     27  C   UNL     1       0.969  -0.312 -11.415  0.00  0.00    +0.026 A 
ATOM     28  C   UNL     1       1.379  -1.102 -10.306  0.00  0.00    +0.043 A 
ATOM     29  N   UNL     1       1.086  -2.330  -9.953  0.00  0.00    -0.380 N 
ATOM     30  C   UNL     1       1.800  -2.643  -8.710  0.00  0.00    +0.145 C 
ATOM     31  H   UNL     1       0.499  -2.933 -10.435  0.00  0.00    +0.160 HD
ENDBRANCH  21  22
ENDBRANCH   7  21
TORSDOF 5
