REMARK  Name = ZINC05753651
REMARK  9 active torsions:
REMARK  status: ('A' for Active; 'I' for Inactive)
REMARK    1  A    between atoms: C_1  and  C_2
REMARK    2  A    between atoms: C_5  and  N_8
REMARK    3  A    between atoms: C_12  and  C_30
REMARK    4  A    between atoms: C_13  and  N_17
REMARK    5  A    between atoms: C_18  and  C_20
REMARK    6  A    between atoms: C_20  and  O_21
REMARK    7  A    between atoms: O_21  and  C_22
REMARK    8  A    between atoms: C_25  and  C_29
REMARK    9  A    between atoms: C_27  and  C_28
REMARK                            x       y       z     vdW  Elec       q    Type
REMARK                         _______ _______ _______ _____ _____    ______ ____
ROOT
ATOM      1  N   UNL     1      -5.040  -2.426  -0.288  0.00  0.00    -0.149 N 
ATOM      2  N   UNL     1      -5.647  -1.292  -0.330  0.00  0.00    -0.147 NA
ATOM      3  C   UNL     1      -4.748  -0.322  -0.259  0.00  0.00    +0.114 A 
ATOM      4  C   UNL     1      -4.766   1.084  -0.255  0.00  0.00    +0.037 A 
ATOM      5  C   UNL     1      -3.597   1.768  -0.164  0.00  0.00    -0.027 A 
ATOM      6  C   UNL     1      -2.364   1.110  -0.074  0.00  0.00    +0.039 A 
ATOM      7  C   UNL     1      -2.280  -0.252  -0.078  0.00  0.00    +0.055 A 
ATOM      8  C   UNL     1      -3.455  -1.017  -0.164  0.00  0.00    +0.115 A 
ATOM      9  N   UNL     1      -3.761  -2.305  -0.191  0.00  0.00    -0.147 NA
ATOM     10  C   UNL     1      -3.627   3.275  -0.161  0.00  0.00    +0.046 C 
ENDROOT
BRANCH   1  15
ATOM     11  C   UNL     1      -7.711  -7.428  -0.504  0.00  0.00    +0.044 C 
ATOM     12  C   UNL     1      -7.001  -6.100  -0.447  0.00  0.00    -0.050 A 
ATOM     13  C   UNL     1      -5.623  -6.058  -0.343  0.00  0.00    +0.005 A 
ATOM     14  C   UNL     1      -4.970  -4.842  -0.290  0.00  0.00    +0.030 A 
ATOM     15  C   UNL     1      -5.699  -3.661  -0.341  0.00  0.00    +0.086 A 
ATOM     16  C   UNL     1      -7.083  -3.707  -0.439  0.00  0.00    +0.030 A 
ATOM     17  C   UNL     1      -7.730  -4.926  -0.497  0.00  0.00    +0.005 A 
ENDBRANCH   1  15
BRANCH   6  18
ATOM     18  N   UNL     1      -1.191   1.867   0.018  0.00  0.00    -0.282 N 
ATOM     19  C   UNL     1      -0.091   1.338   0.590  0.00  0.00    +0.255 C 
ATOM     20  O   UNL     1      -0.145   0.246   1.115  0.00  0.00    -0.272 OA
ATOM     21  H   UNL     1      -1.169   2.772  -0.331  0.00  0.00    +0.155 HD
BRANCH  19  22
ATOM     22  C   UNL     1       1.209   2.101   0.572  0.00  0.00    +0.324 C 
BRANCH  22  23
ATOM     23  O   UNL     1       2.220   1.335   1.230  0.00  0.00    -0.483 OA
BRANCH  23  24
ATOM     24  C   UNL     1       3.461   1.885   1.301  0.00  0.00    +0.124 A 
ATOM     25  C   UNL     1       3.701   3.135   0.749  0.00  0.00    +0.046 A 
ATOM     26  C   UNL     1       4.963   3.690   0.823  0.00  0.00    +0.007 A 
ATOM     27  C   UNL     1       5.987   3.002   1.447  0.00  0.00    -0.050 A 
ATOM     28  C   UNL     1       5.751   1.757   1.998  0.00  0.00    +0.010 A 
ATOM     29  C   UNL     1       4.489   1.199   1.931  0.00  0.00    -0.009 A 
ATOM     30  C   UNL     1       4.231  -0.157   2.538  0.00  0.00    +0.047 C 
ATOM     31  C   UNL     1       7.364   3.611   1.526  0.00  0.00    +0.044 C 
ENDBRANCH  23  24
ENDBRANCH  22  23
ENDBRANCH  19  22
ENDBRANCH   6  18
TORSDOF 5
