REMARK  Name = ZINC20228044
REMARK  11 active torsions:
REMARK  status: ('A' for Active; 'I' for Inactive)
REMARK    1  A    between atoms: C_1  and  O_2
REMARK    2  A    between atoms: O_2  and  C_3
REMARK    3  A    between atoms: C_5  and  C_13
REMARK    4  A    between atoms: C_6  and  O_11
REMARK    5  A    between atoms: C_8  and  O_9
REMARK    6  A    between atoms: O_9  and  C_10
REMARK    7  A    between atoms: O_11  and  C_12
REMARK    8  A    between atoms: C_13  and  N_14
REMARK    9  A    between atoms: N_17  and  C_20
REMARK   10  A    between atoms: C_26  and  O_28
REMARK   11  A    between atoms: O_28  and  C_29
REMARK                            x       y       z     vdW  Elec       q    Type
REMARK                         _______ _______ _______ _____ _____    ______ ____
ROOT
ATOM      1  N   UNL     1      -2.773   3.345  -4.938  0.00  0.00    -0.302 NA
ATOM      2  C   UNL     1      -1.438   3.950  -4.837  0.00  0.00    +0.066 C 
ATOM      3  C   UNL     1      -0.702   3.360  -3.632  0.00  0.00    -0.063 C 
ATOM      4  N   UNL     1      -1.484   3.609  -2.413  0.00  0.00    +0.385 N 
ATOM      5  C   UNL     1      -2.819   3.003  -2.514  0.00  0.00    -0.063 C 
ATOM      6  C   UNL     1      -3.555   3.594  -3.719  0.00  0.00    +0.066 C 
ATOM      7  H   UNL     1      -1.611   4.697  -2.308  0.00  0.00    -0.081 HD
ENDROOT
BRANCH   4   8
ATOM      8  C   UNL     1      -0.773   3.123  -1.223  0.00  0.00    -0.039 C 
ATOM      9  C   UNL     1      -1.612   3.409   0.024  0.00  0.00    -0.013 C 
ATOM     10  C   UNL     1      -0.872   2.902   1.264  0.00  0.00    -0.001 C 
ATOM     11  C   UNL     1       0.476   3.616   1.380  0.00  0.00    +0.002 C 
ATOM     12  C   UNL     1       1.315   3.329   0.133  0.00  0.00    +0.030 C 
ATOM     13  C   UNL     1       0.575   3.836  -1.107  0.00  0.00    +0.104 C 
BRANCH  13  14
ATOM     14  O   UNL     1       0.360   5.244  -0.991  0.00  0.00    -0.381 OA
ATOM     15  C   UNL     1       1.415   6.040  -1.534  0.00  0.00    +0.194 C 
ENDBRANCH  13  14
ENDBRANCH   4   8
BRANCH   1  16
ATOM     16  C   UNL     1      -3.483   3.831  -6.128  0.00  0.00    +0.123 C 
BRANCH  16  19
ATOM     17  C   UNL     1      -6.658   1.879  -6.749  0.00  0.00    +0.162 A 
ATOM     18  C   UNL     1      -5.336   2.291  -6.804  0.00  0.00    +0.058 A 
ATOM     19  C   UNL     1      -4.922   3.387  -6.071  0.00  0.00    +0.012 A 
ATOM     20  C   UNL     1      -5.831   4.082  -5.286  0.00  0.00    +0.128 A 
ATOM     21  C   UNL     1      -7.155   3.675  -5.232  0.00  0.00    +0.095 A 
ATOM     22  C   UNL     1      -7.571   2.574  -5.962  0.00  0.00    +0.165 A 
BRANCH  17  24
ATOM     23  C   UNL     1      -6.073   0.131  -8.253  0.00  0.00    +0.277 C 
ATOM     24  O   UNL     1      -7.063   0.796  -7.467  0.00  0.00    -0.491 OA
ENDBRANCH  17  24
BRANCH  22  25
ATOM     25  O   UNL     1      -8.869   2.173  -5.910  0.00  0.00    -0.491 OA
ATOM     26  C   UNL     1      -9.750   2.934  -5.082  0.00  0.00    +0.277 C 
ENDBRANCH  22  25
BRANCH  20  27
ATOM     27  O   UNL     1      -5.422   5.163  -4.569  0.00  0.00    -0.495 OA
ATOM     28  C   UNL     1      -6.410   5.832  -3.783  0.00  0.00    +0.277 C 
ENDBRANCH  20  27
ENDBRANCH  16  19
ENDBRANCH   1  16
TORSDOF 7
