REMARK  Name = ZINC06867852
REMARK  7 active torsions:
REMARK  status: ('A' for Active; 'I' for Inactive)
REMARK    1  A    between atoms: C_1  and  C_2
REMARK    2  A    between atoms: C_5  and  C_8
REMARK    3  A    between atoms: C_8  and  N_9
REMARK    4  A    between atoms: C_10  and  C_12
REMARK    5  A    between atoms: C_12  and  C_13
REMARK    6  A    between atoms: C_13  and  C_14
REMARK    7  A    between atoms: C_26  and  C_29
REMARK                            x       y       z     vdW  Elec       q    Type
REMARK                         _______ _______ _______ _____ _____    ______ ____
ROOT
ATOM      1  C   UNL     1       3.368   2.280  -0.018  0.00  0.00    +0.156 A 
ATOM      2  N   UNL     1       2.803   3.463  -0.007  0.00  0.00    -0.132 NA
ATOM      3  N   UNL     1       1.521   3.342   0.005  0.00  0.00    -0.128 NA
ATOM      4  C   UNL     1       1.204   2.057   0.002  0.00  0.00    +0.178 A 
ATOM      5  N   UNL     1       2.384   1.356  -0.013  0.00  0.00    -0.195 N 
ATOM      6  N   UNL     1       2.369  -0.040  -0.021  0.00  0.00    -0.148 NA
ATOM      7  C   UNL     1       1.230  -0.694  -0.014  0.00  0.00    +0.142 A 
ATOM      8  C   UNL     1       0.002  -0.004   0.002  0.00  0.00    +0.049 A 
ATOM      9  C   UNL     1      -0.016   1.355   0.009  0.00  0.00    +0.053 A 
ATOM     10  N   UNL     1       1.237  -2.085  -0.022  0.00  0.00    -0.314 N 
ATOM     11  C   UNL     1       0.458  -2.608  -1.152  0.00  0.00    +0.107 C 
ATOM     12  C   UNL     1       0.365  -4.132  -1.047  0.00  0.00    +0.022 C 
ATOM     13  C   UNL     1       1.776  -4.726  -1.058  0.00  0.00    -0.011 C 
ATOM     14  C   UNL     1       2.582  -4.128   0.099  0.00  0.00    +0.022 C 
ATOM     15  C   UNL     1       2.610  -2.604  -0.039  0.00  0.00    +0.107 C 
ATOM     16  C   UNL     1       1.693  -6.245  -0.892  0.00  0.00    +0.007 C 
ENDROOT
BRANCH   1  17
ATOM     17  C   UNL     1       4.849   2.003  -0.034  0.00  0.00    +0.087 C 
BRANCH  17  18
ATOM     18  C   UNL     1       5.336   1.917  -1.482  0.00  0.00    +0.103 C 
BRANCH  18  20
ATOM     19  N   UNL     1       7.467   1.522  -2.673  0.00  0.00    -0.311 N 
ATOM     20  C   UNL     1       6.817   1.639  -1.499  0.00  0.00    +0.214 C 
ATOM     21  O   UNL     1       7.423   1.522  -0.455  0.00  0.00    -0.276 OA
ATOM     22  H   UNL     1       6.982   1.617  -3.508  0.00  0.00    +0.149 HD
BRANCH  19  23
ATOM     23  C   UNL     1       8.907   1.252  -2.689  0.00  0.00    +0.139 C 
BRANCH  23  28
ATOM     24  C   UNL     1      10.747   0.930  -8.158  0.00  0.00    +0.044 C 
ATOM     25  C   UNL     1      10.267   1.014  -6.731  0.00  0.00    -0.050 A 
ATOM     26  C   UNL     1      10.267   2.229  -6.073  0.00  0.00    +0.003 A 
ATOM     27  C   UNL     1       9.827   2.306  -4.765  0.00  0.00    +0.005 A 
ATOM     28  C   UNL     1       9.387   1.168  -4.115  0.00  0.00    -0.030 A 
ATOM     29  C   UNL     1       9.391  -0.048  -4.772  0.00  0.00    +0.005 A 
ATOM     30  C   UNL     1       9.827  -0.124  -6.082  0.00  0.00    +0.003 A 
ENDBRANCH  23  28
ENDBRANCH  19  23
ENDBRANCH  18  20
ENDBRANCH  17  18
ENDBRANCH   1  17
TORSDOF 5
