REMARK  Name = ZINC26440801
REMARK  6 active torsions:
REMARK  status: ('A' for Active; 'I' for Inactive)
REMARK    1  A    between atoms: C_1  and  C_2
REMARK    2  A    between atoms: C_5  and  C_20
REMARK    3  A    between atoms: N_11  and  C_13
REMARK    4  A    between atoms: C_20  and  N_21
REMARK    5  A    between atoms: N_21  and  C_22
REMARK    6  A    between atoms: C_22  and  C_23
REMARK                            x       y       z     vdW  Elec       q    Type
REMARK                         _______ _______ _______ _____ _____    ______ ____
ROOT
ATOM      1  C   UNL     1      -0.013   1.086   0.008  0.00  0.00    +0.068 C 
ATOM      2  C   UNL     1      -0.718   1.572   1.248  0.00  0.00    +0.070 A 
ATOM      3  C   UNL     1      -2.103   1.834   1.364  0.00  0.00    +0.040 A 
ATOM      4  C   UNL     1      -3.190   1.730   0.466  0.00  0.00    +0.020 A 
ATOM      5  C   UNL     1      -4.437   2.058   0.895  0.00  0.00    +0.001 A 
ATOM      6  C   UNL     1      -4.635   2.489   2.219  0.00  0.00    +0.252 A 
ATOM      7  O   UNL     1      -5.757   2.781   2.597  0.00  0.00    -0.268 OA
ATOM      8  N   UNL     1      -3.600   2.583   3.076  0.00  0.00    -0.307 N 
ATOM      9  H   UNL     1      -3.770   2.922   4.109  0.00  0.00    +0.170 HD
ATOM     10  C   UNL     1      -2.332   2.260   2.675  0.00  0.00    +0.145 A 
ATOM     11  N   UNL     1      -1.129   2.258   3.305  0.00  0.00    -0.216 N 
ATOM     12  N   UNL     1      -0.156   1.828   2.395  0.00  0.00    -0.169 NA
ENDROOT
BRANCH  11  13
ATOM     13  C   UNL     1      -0.901   2.623   4.639  0.00  0.00    +0.068 A 
ATOM     14  C   UNL     1      -1.639   3.648   5.215  0.00  0.00    +0.029 A 
ATOM     15  C   UNL     1      -1.416   4.003   6.531  0.00  0.00    +0.022 A 
ATOM     16  C   UNL     1      -0.449   3.345   7.272  0.00  0.00    +0.041 A 
ATOM     17  C   UNL     1       0.292   2.327   6.698  0.00  0.00    +0.022 A 
ATOM     18  C   UNL     1       0.068   1.965   5.384  0.00  0.00    +0.029 A 
ATOM     19 CL   UNL     1      -0.166   3.799   8.924  0.00  0.00    -0.084 Cl
ENDBRANCH  11  13
BRANCH   5  20
ATOM     20  C   UNL     1      -5.608   1.961  -0.048  0.00  0.00    -0.041 C 
BRANCH  20  21
ATOM     21  N   UNL     1      -6.271   0.662   0.127  0.00  0.00    +0.385 N 
ATOM     22  H   UNL     1      -5.557  -0.146  -0.091  0.00  0.00    -0.085 HD
ATOM     23  H   UNL     1      -6.626   0.568   1.163  0.00  0.00    -0.085 HD
BRANCH  21  24
ATOM     24  C   UNL     1      -7.420   0.531  -0.779  0.00  0.00    -0.045 C 
BRANCH  24  25
ATOM     25  C   UNL     1      -8.073  -0.811  -0.571  0.00  0.00    -0.046 A 
ATOM     26  C   UNL     1      -7.670  -1.911  -1.313  0.00  0.00    +0.005 A 
ATOM     27  C   UNL     1      -8.295  -3.127  -1.085  0.00  0.00    +0.020 A 
ATOM     28  C   UNL     1      -9.301  -3.200  -0.139  0.00  0.00    +0.111 A 
ATOM     29  N   UNL     1      -9.662  -2.132   0.545  0.00  0.00    -0.263 NA
ATOM     30  C   UNL     1      -9.086  -0.961   0.357  0.00  0.00    +0.112 A 
ENDBRANCH  24  25
ENDBRANCH  21  24
ENDBRANCH  20  21
ENDBRANCH   5  20
TORSDOF 5
