REMARK  Name = ZINC28727324
REMARK  8 active torsions:
REMARK  status: ('A' for Active; 'I' for Inactive)
REMARK    1  A    between atoms: C_1  and  C_2
REMARK    2  A    between atoms: C_2  and  C_4
REMARK    3  A    between atoms: C_2  and  N_14
REMARK    4  A    between atoms: C_7  and  S_10
REMARK    5  A    between atoms: S_10  and  N_13
REMARK    6  A    between atoms: N_14  and  C_15
REMARK    7  A    between atoms: N_14  and  C_16
REMARK    8  A    between atoms: C_16  and  C_17
REMARK                            x       y       z     vdW  Elec       q    Type
REMARK                         _______ _______ _______ _____ _____    ______ ____
ROOT
ATOM      1  N   UNL     1       0.690  -0.478  -1.207  0.00  0.00    +0.385 N 
ATOM      2  C   UNL     1       2.068   0.031  -1.217  0.00  0.00    -0.095 C 
ATOM      3  H   UNL     1       0.202  -0.144  -2.024  0.00  0.00    -0.081 HD
ENDROOT
BRANCH   1   5
ATOM      4  C   UNL     1      -0.019   1.526   0.010  0.00  0.00    -0.008 C 
ATOM      5  C   UNL     1       0.002  -0.004   0.002  0.00  0.00    -0.041 C 
BRANCH   5   6
ATOM      6  C   UNL     1      -1.412  -0.526   0.013  0.00  0.00    -0.061 A 
ATOM      7  C   UNL     1      -2.141  -0.569  -1.161  0.00  0.00    +0.004 A 
ATOM      8  C   UNL     1      -3.438  -1.047  -1.151  0.00  0.00    +0.029 A 
ATOM      9  C   UNL     1      -4.005  -1.483   0.032  0.00  0.00    +0.105 A 
ATOM     10  C   UNL     1      -3.275  -1.441   1.205  0.00  0.00    +0.029 A 
ATOM     11  C   UNL     1      -1.977  -0.966   1.195  0.00  0.00    +0.004 A 
BRANCH   9  12
ATOM     12  S   UNL     1      -5.659  -2.092   0.045  0.00  0.00    +0.056 S 
ATOM     13  O   UNL     1      -6.142  -1.928   1.371  0.00  0.00    -0.153 OA
ATOM     14  O   UNL     1      -6.311  -1.518  -1.080  0.00  0.00    -0.153 OA
BRANCH  12  15
ATOM     15  N   UNL     1      -5.582  -3.723  -0.233  0.00  0.00    -0.204 NA
ATOM     16  H   UNL     1      -4.723  -4.152  -0.364  0.00  0.00    +0.144 HD
ATOM     17  H   UNL     1      -6.397  -4.248  -0.264  0.00  0.00    +0.144 HD
ENDBRANCH  12  15
ENDBRANCH   9  12
ENDBRANCH   5   6
ENDBRANCH   1   5
BRANCH   1  18
ATOM     18  C   UNL     1       0.710  -1.947  -1.215  0.00  0.00    -0.039 C 
BRANCH  18  19
ATOM     19  C   UNL     1       1.304  -2.434  -2.511  0.00  0.00    -0.020 A 
ATOM     20  C   UNL     1       0.478  -2.860  -3.533  0.00  0.00    +0.025 A 
ATOM     21  C   UNL     1       1.024  -3.309  -4.722  0.00  0.00    +0.042 A 
ATOM     22  C   UNL     1       2.397  -3.332  -4.889  0.00  0.00    +0.029 A 
ATOM     23  C   UNL     1       3.227  -2.906  -3.869  0.00  0.00    +0.022 A 
ATOM     24  C   UNL     1       2.682  -2.449  -2.680  0.00  0.00    +0.130 A 
ATOM     25  O   UNL     1       3.487  -2.014  -1.673  0.00  0.00    -0.466 OA
ATOM     26  C   UNL     1       4.868  -2.379  -1.746  0.00  0.00    +0.394 C 
ATOM     27  O   UNL     1       5.343  -2.109  -3.071  0.00  0.00    -0.339 OA
ATOM     28  C   UNL     1       4.722  -2.939  -4.062  0.00  0.00    +0.202 C 
ATOM     29 CL   UNL     1      -0.015  -3.844  -6.006  0.00  0.00    -0.084 Cl
ENDBRANCH  18  19
ENDBRANCH   1  18
TORSDOF 6
