REMARK  Name = ZINC04513656
REMARK  9 active torsions:
REMARK  status: ('A' for Active; 'I' for Inactive)
REMARK    1  A    between atoms: C_1  and  C_2
REMARK    2  A    between atoms: C_5  and  C_9
REMARK    3  A    between atoms: C_6  and  C_8
REMARK    4  A    between atoms: N_14  and  C_17
REMARK    5  A    between atoms: C_17  and  C_19
REMARK    6  A    between atoms: C_17  and  C_20
REMARK    7  A    between atoms: C_20  and  C_21
REMARK    8  A    between atoms: C_20  and  C_22
REMARK    9  A    between atoms: N_23  and  C_27
REMARK                            x       y       z     vdW  Elec       q    Type
REMARK                         _______ _______ _______ _____ _____    ______ ____
ROOT
ATOM      1  C   UNL     1      -1.658   7.256  -0.149  0.00  0.00    +0.142 C 
ATOM      2  C   UNL     1      -1.213   6.149  -1.083  0.00  0.00    +0.058 C 
ATOM      3  C   UNL     1      -0.712   6.506  -2.283  0.00  0.00    +0.042 C 
ATOM      4  C   UNL     1      -0.355   5.220  -2.994  0.00  0.00    +0.159 C 
ATOM      5  N   UNL     1      -0.718   4.152  -2.050  0.00  0.00    -0.289 N 
ATOM      6  C   UNL     1      -1.220   4.746  -0.952  0.00  0.00    +0.247 C 
ATOM      7  O   UNL     1      -1.624   4.148   0.029  0.00  0.00    -0.270 OA
ATOM      8  N   UNL     1      -0.608   7.819  -2.645  0.00  0.00    -0.260 N 
ATOM      9  C   UNL     1      -0.985   8.836  -1.860  0.00  0.00    +0.307 C 
ATOM     10  O   UNL     1      -0.855   9.973  -2.268  0.00  0.00    -0.252 OA
ATOM     11  N   UNL     1      -1.505   8.639  -0.632  0.00  0.00    -0.288 N 
ATOM     12  C   UNL     1      -0.053   8.131  -3.965  0.00  0.00    +0.139 C 
ATOM     13  H   UNL     1      -1.772   9.390  -0.080  0.00  0.00    +0.151 HD
ENDROOT
BRANCH   1  18
ATOM     14  C   UNL     1      -7.239   6.410   1.086  0.00  0.00    +0.044 C 
ATOM     15  C   UNL     1      -5.783   6.630   0.765  0.00  0.00    -0.050 A 
ATOM     16  C   UNL     1      -5.215   6.004  -0.329  0.00  0.00    +0.004 A 
ATOM     17  C   UNL     1      -3.881   6.210  -0.627  0.00  0.00    +0.006 A 
ATOM     18  C   UNL     1      -3.113   7.035   0.174  0.00  0.00    -0.020 A 
ATOM     19  C   UNL     1      -3.682   7.661   1.267  0.00  0.00    -0.045 A 
ATOM     20  C   UNL     1      -5.017   7.459   1.562  0.00  0.00    +0.007 A 
ATOM     21  C   UNL     1      -2.846   8.565   2.136  0.00  0.00    +0.044 C 
ENDBRANCH   1  18
BRANCH   5  22
ATOM     22  C   UNL     1      -0.567   2.712  -2.267  0.00  0.00    +0.076 C 
ATOM     23  C   UNL     1      -1.937   2.037  -2.182  0.00  0.00    +0.028 C 
BRANCH  22  24
ATOM     24  C   UNL     1       0.357   2.128  -1.196  0.00  0.00    +0.003 C 
ATOM     25  C   UNL     1       0.514   0.623  -1.423  0.00  0.00    +0.009 C 
ATOM     26  C   UNL     1       1.727   2.803  -1.282  0.00  0.00    +0.009 C 
ENDBRANCH  22  24
ENDBRANCH   5  22
TORSDOF 3
