REMARK  Name = ZINC39932097
REMARK  9 active torsions:
REMARK  status: ('A' for Active; 'I' for Inactive)
REMARK    1  A    between atoms: C_1  and  C_2
REMARK    2  A    between atoms: C_2  and  C_4
REMARK    3  A    between atoms: C_2  and  N_11
REMARK    4  A    between atoms: C_4  and  C_5
REMARK    5  A    between atoms: C_5  and  C_6
REMARK    6  A    between atoms: C_12  and  C_14
REMARK    7  A    between atoms: C_17  and  N_20
REMARK    8  A    between atoms: N_20  and  S_21
REMARK    9  A    between atoms: S_21  and  C_24
REMARK                            x       y       z     vdW  Elec       q    Type
REMARK                         _______ _______ _______ _____ _____    ______ ____
ROOT
ATOM      1  C   UNL     1       0.657  -1.014  -3.627  0.00  0.00    +0.037 A 
ATOM      2  C   UNL     1       2.028  -1.282  -3.570  0.00  0.00    +0.015 A 
ATOM      3  C   UNL     1       2.683  -1.749  -4.686  0.00  0.00    +0.025 A 
ATOM      4  C   UNL     1       1.983  -1.955  -5.871  0.00  0.00    +0.048 A 
ATOM      5  C   UNL     1       0.617  -1.689  -5.931  0.00  0.00    +0.025 A 
ATOM      6  C   UNL     1      -0.045  -1.227  -4.817  0.00  0.00    +0.015 A 
ENDROOT
BRANCH   1   8
ATOM      7  N   UNL     1       0.629  -0.308  -1.286  0.00  0.00    -0.309 N 
ATOM      8  C   UNL     1      -0.049  -0.513  -2.432  0.00  0.00    +0.244 C 
ATOM      9  O   UNL     1      -1.242  -0.285  -2.482  0.00  0.00    -0.270 OA
ATOM     10  H   UNL     1       1.581  -0.489  -1.246  0.00  0.00    +0.149 HD
BRANCH   7  12
ATOM     11  C   UNL     1      -0.149   1.717  -0.155  0.00  0.00    +0.028 C 
ATOM     12  C   UNL     1      -0.072   0.190  -0.099  0.00  0.00    +0.071 C 
BRANCH  12  13
ATOM     13  C   UNL     1       0.688  -0.237   1.158  0.00  0.00    +0.030 C 
BRANCH  13  14
ATOM     14  C   UNL     1       0.658  -1.762   1.280  0.00  0.00    +0.076 C 
BRANCH  14  15
ATOM     15  C   UNL     1       1.407  -2.182   2.518  0.00  0.00    +0.105 A 
ATOM     16  C   UNL     1       0.874  -2.342   3.743  0.00  0.00    +0.044 A 
ATOM     17  C   UNL     1       1.927  -2.739   4.599  0.00  0.00    +0.041 A 
ATOM     18  C   UNL     1       3.040  -2.799   3.846  0.00  0.00    +0.195 A 
ATOM     19  O   UNL     1       2.718  -2.466   2.586  0.00  0.00    -0.468 OA
ENDBRANCH  14  15
ENDBRANCH  13  14
ENDBRANCH  12  13
ENDBRANCH   7  12
ENDBRANCH   1   8
BRANCH   4  20
ATOM     20  N   UNL     1       2.648  -2.428  -6.997  0.00  0.00    -0.216 N 
ATOM     21  H   UNL     1       3.496  -2.036  -7.259  0.00  0.00    +0.174 HD
BRANCH  20  22
ATOM     22  S   UNL     1       1.992  -3.658  -7.891  0.00  0.00    +0.072 S 
ATOM     23  O   UNL     1       0.660  -3.271  -8.198  0.00  0.00    -0.150 OA
ATOM     24  O   UNL     1       2.943  -3.981  -8.896  0.00  0.00    -0.150 OA
BRANCH  22  25
ATOM     25  C   UNL     1       1.878  -5.064  -6.835  0.00  0.00    +0.110 A 
ATOM     26  C   UNL     1       3.043  -5.927  -6.678  0.00  0.00    +0.031 A 
ATOM     27  C   UNL     1       3.022  -7.019  -5.884  0.00  0.00    +0.027 A 
ATOM     28  C   UNL     1       1.801  -7.359  -5.156  0.00  0.00    +0.056 A 
ATOM     29  N   UNL     1       1.453  -8.315  -4.332  0.00  0.00    -0.268 N 
ATOM     30  C   UNL     1       0.145  -8.112  -3.960  0.00  0.00    +0.308 C 
ATOM     31  O   UNL     1      -0.482  -8.821  -3.202  0.00  0.00    -0.252 OA
ATOM     32  N   UNL     1      -0.345  -6.984  -4.576  0.00  0.00    -0.267 N 
ATOM     33  C   UNL     1       0.604  -6.473  -5.318  0.00  0.00    +0.058 A 
ATOM     34  C   UNL     1       0.715  -5.308  -6.193  0.00  0.00    +0.054 A 
ATOM     35  H   UNL     1      -1.242  -6.628  -4.476  0.00  0.00    +0.156 HD
ATOM     36  H   UNL     1       2.021  -9.043  -4.035  0.00  0.00    +0.156 HD
ENDBRANCH  22  25
ENDBRANCH  20  22
ENDBRANCH   4  20
TORSDOF 8
