REMARK  Name = ZINC20320912
REMARK  6 active torsions:
REMARK  status: ('A' for Active; 'I' for Inactive)
REMARK    1  A    between atoms: C_1  and  C_2
REMARK    2  A    between atoms: C_5  and  C_8
REMARK    3  A    between atoms: C_11  and  C_13
REMARK    4  A    between atoms: N_16  and  S_19
REMARK    5  A    between atoms: S_19  and  C_22
REMARK    6  A    between atoms: C_25  and  N_28
REMARK                            x       y       z     vdW  Elec       q    Type
REMARK                         _______ _______ _______ _____ _____    ______ ____
ROOT
ATOM      1  C   UNL     1       5.865  -1.976  -3.832  0.00  0.00    +0.079 C 
ATOM      2  C   UNL     1       6.344  -0.798  -2.981  0.00  0.00    +0.030 C 
ATOM      3  C   UNL     1       5.133  -0.092  -2.364  0.00  0.00    +0.110 C 
ATOM      4  N   UNL     1       4.333  -1.082  -1.628  0.00  0.00    -0.177 NA
ATOM      5  C   UNL     1       3.901  -2.300  -2.326  0.00  0.00    +0.110 C 
ATOM      6  C   UNL     1       5.122  -2.978  -2.945  0.00  0.00    +0.030 C 
ENDROOT
BRANCH   1  10
ATOM      7  C   UNL     1       8.441  -3.454  -5.907  0.00  0.00    +0.248 A 
ATOM      8  N   UNL     1       8.886  -3.683  -4.694  0.00  0.00    -0.107 NA
ATOM      9  N   UNL     1       8.056  -3.197  -3.839  0.00  0.00    -0.112 NA
ATOM     10  C   UNL     1       7.052  -2.652  -4.468  0.00  0.00    +0.221 A 
ATOM     11  O   UNL     1       7.270  -2.797  -5.786  0.00  0.00    -0.420 OA
BRANCH   7  16
ATOM     12  C   UNL     1      11.009  -4.974 -10.827  0.00  0.00    +0.044 C 
ATOM     13  C   UNL     1      10.337  -4.576  -9.539  0.00  0.00    -0.050 A 
ATOM     14  C   UNL     1      10.929  -4.888  -8.328  0.00  0.00    +0.004 A 
ATOM     15  C   UNL     1      10.318  -4.527  -7.145  0.00  0.00    +0.013 A 
ATOM     16  C   UNL     1       9.101  -3.845  -7.171  0.00  0.00    +0.038 A 
ATOM     17  C   UNL     1       8.506  -3.538  -8.396  0.00  0.00    +0.013 A 
ATOM     18  C   UNL     1       9.130  -3.900  -9.572  0.00  0.00    +0.004 A 
ENDBRANCH   7  16
ENDBRANCH   1  10
BRANCH   4  19
ATOM     19  S   UNL     1       3.933  -0.831  -0.041  0.00  0.00    +0.061 S 
ATOM     20  O   UNL     1       4.905   0.060   0.488  0.00  0.00    -0.153 OA
ATOM     21  O   UNL     1       3.687  -2.112   0.523  0.00  0.00    -0.153 OA
BRANCH  19  22
ATOM     22  C   UNL     1       2.396   0.031  -0.021  0.00  0.00    +0.106 A 
ATOM     23  C   UNL     1       1.208  -0.677   0.004  0.00  0.00    +0.030 A 
ATOM     24  C   UNL     1       0.002  -0.004   0.019  0.00  0.00    +0.025 A 
ATOM     25  C   UNL     1      -0.017   1.385   0.010  0.00  0.00    +0.036 A 
ATOM     26  C   UNL     1       1.178   2.092  -0.015  0.00  0.00    +0.025 A 
ATOM     27  C   UNL     1       2.381   1.413  -0.030  0.00  0.00    +0.030 A 
BRANCH  25  28
ATOM     28  N   UNL     1      -1.237   2.069   0.019  0.00  0.00    -0.271 N 
ATOM     29  C   UNL     1      -2.550   1.422  -0.084  0.00  0.00    +0.114 C 
ATOM     30  C   UNL     1      -3.536   2.548  -0.467  0.00  0.00    +0.029 C 
ATOM     31  C   UNL     1      -2.817   3.799   0.090  0.00  0.00    +0.098 C 
ATOM     32  C   UNL     1      -1.357   3.403   0.130  0.00  0.00    +0.220 C 
ATOM     33  O   UNL     1      -0.430   4.178   0.241  0.00  0.00    -0.275 OA
ENDBRANCH  25  28
ENDBRANCH  19  22
ENDBRANCH   4  19
TORSDOF 5
