REMARK  Name = ZINC38732519
REMARK  6 active torsions:
REMARK  status: ('A' for Active; 'I' for Inactive)
REMARK    1  A    between atoms: C_1  and  C_2
REMARK    2  A    between atoms: C_9  and  C_10
REMARK    3  A    between atoms: C_9  and  C_11
REMARK    4  A    between atoms: C_13  and  N_15
REMARK    5  A    between atoms: C_16  and  C_18
REMARK    6  A    between atoms: C_24  and  C_26
REMARK                            x       y       z     vdW  Elec       q    Type
REMARK                         _______ _______ _______ _____ _____    ______ ____
ROOT
ATOM      1  C   UNL     1       3.013  -1.156   0.598  0.00  0.00    +0.087 C 
ATOM      2  C   UNL     1       2.947  -2.546  -0.038  0.00  0.00    +0.013 C 
ATOM      3  C   UNL     1       2.574  -3.577   1.030  0.00  0.00    +0.001 C 
ATOM      4  C   UNL     1       3.632  -3.572   2.135  0.00  0.00    +0.001 C 
ATOM      5  C   UNL     1       3.698  -2.182   2.771  0.00  0.00    +0.013 C 
ATOM      6  C   UNL     1       4.071  -1.151   1.704  0.00  0.00    +0.087 C 
ENDROOT
BRANCH   6   7
ATOM      7  C   UNL     1       4.136   0.219   2.329  0.00  0.00    +0.219 C 
ATOM      8  O   UNL     1       3.538   0.444   3.360  0.00  0.00    -0.275 OA
ATOM      9  N   UNL     1       4.859   1.194   1.743  0.00  0.00    -0.298 N 
ATOM     10  C   UNL     1       5.495   0.971   0.437  0.00  0.00    +0.126 C 
ATOM     11  C   UNL     1       5.028   2.067  -0.529  0.00  0.00    +0.125 C 
ATOM     12  N   UNL     1       5.193   3.372   0.126  0.00  0.00    -0.314 N 
ATOM     13  C   UNL     1       4.557   3.595   1.432  0.00  0.00    +0.125 C 
ATOM     14  C   UNL     1       5.019   2.501   2.396  0.00  0.00    +0.126 C 
ATOM     15  C   UNL     1       5.938   4.378  -0.478  0.00  0.00    +0.099 A 
ATOM     16  C   UNL     1       6.645   4.106  -1.646  0.00  0.00    +0.042 A 
ATOM     17  C   UNL     1       7.382   5.115  -2.237  0.00  0.00    +0.005 A 
ATOM     18  C   UNL     1       7.389   6.369  -1.638  0.00  0.00    +0.018 A 
ATOM     19  C   UNL     1       6.665   6.569  -0.480  0.00  0.00    +0.084 A 
ATOM     20  N   UNL     1       5.965   5.588   0.059  0.00  0.00    -0.350 N 
ATOM     21  H   UNL     1       5.462   5.756   0.871  0.00  0.00    +0.166 HD
ENDBRANCH   6   7
BRANCH   1  23
ATOM     22  N   UNL     1       0.582  -0.752   0.393  0.00  0.00    -0.312 N 
ATOM     23  C   UNL     1       1.670  -0.808   1.185  0.00  0.00    +0.217 C 
ATOM     24  O   UNL     1       1.568  -0.578   2.372  0.00  0.00    -0.275 OA
ATOM     25  H   UNL     1       0.663  -0.936  -0.556  0.00  0.00    +0.149 HD
BRANCH  22  35
ATOM     26  C   UNL     1      -1.462   1.706  -0.174  0.00  0.00    +0.009 C 
ATOM     27  C   UNL     1      -1.610   0.182  -0.128  0.00  0.00    +0.010 C 
ATOM     28  C   UNL     1      -3.077  -0.216   0.023  0.00  0.00    -0.000 C 
ATOM     29  C   UNL     1      -3.207  -1.754  -0.116  0.00  0.00    +0.008 C 
ATOM     30  C   UNL     1      -2.845  -1.764   1.385  0.00  0.00    -0.003 C 
ATOM     31  C   UNL     1      -3.572  -0.414   1.457  0.00  0.00    -0.029 C 
ATOM     32  C   UNL     1      -3.051   0.556   2.513  0.00  0.00    +0.011 C 
ATOM     33  C   UNL     1      -5.104  -0.561   1.556  0.00  0.00    +0.011 C 
ATOM     34  C   UNL     1      -1.335  -1.664   1.593  0.00  0.00    +0.026 C 
ATOM     35  C   UNL     1      -0.734  -0.410   0.968  0.00  0.00    +0.076 C 
ENDBRANCH  22  35
ENDBRANCH   1  23
TORSDOF 3
