REMARK  Name = ZINC67648712
REMARK  8 active torsions:
REMARK  status: ('A' for Active; 'I' for Inactive)
REMARK    1  A    between atoms: C_1  and  C_2
REMARK    2  A    between atoms: C_3  and  N_11
REMARK    3  A    between atoms: C_7  and  N_8
REMARK    4  A    between atoms: C_12  and  C_14
REMARK    5  A    between atoms: C_14  and  C_16
REMARK    6  A    between atoms: C_14  and  N_17
REMARK    7  A    between atoms: N_20  and  C_23
REMARK    8  A    between atoms: C_23  and  C_24
REMARK                            x       y       z     vdW  Elec       q    Type
REMARK                         _______ _______ _______ _____ _____    ______ ____
ROOT
ATOM      1  C   UNL     1       0.751  -0.156  -4.624  0.00  0.00    +0.140 C 
ATOM      2  C   UNL     1      -0.412   0.797  -4.906  0.00  0.00    +0.034 C 
ENDROOT
BRANCH   1   3
ATOM      3  N   UNL     1       0.790  -1.200  -5.657  0.00  0.00    -0.295 NA
ATOM      4  C   UNL     1      -0.276  -2.189  -5.446  0.00  0.00    +0.066 C 
ATOM      5  C   UNL     1      -0.164  -3.289  -6.505  0.00  0.00    -0.063 C 
ATOM      6  N   UNL     1      -0.281  -2.694  -7.843  0.00  0.00    +0.382 N 
ATOM      7  C   UNL     1       0.805  -1.727  -8.047  0.00  0.00    -0.063 C 
ATOM      8  C   UNL     1       0.701  -0.614  -7.002  0.00  0.00    +0.066 C 
ATOM      9  H   UNL     1      -1.170  -2.224  -7.925  0.00  0.00    -0.082 HD
BRANCH   6  10
ATOM     10  C   UNL     1      -0.192  -3.752  -8.858  0.00  0.00    -0.075 C 
BRANCH  10  11
ATOM     11  C   UNL     1      -0.437  -3.152 -10.244  0.00  0.00    -0.028 C 
ATOM     12  C   UNL     1      -1.874  -2.632 -10.327  0.00  0.00    +0.002 C 
ATOM     13  C   UNL     1      -2.119  -2.031 -11.712  0.00  0.00    +0.000 C 
ATOM     14  C   UNL     1      -1.904  -3.106 -12.780  0.00  0.00    +0.000 C 
ATOM     15  C   UNL     1      -0.467  -3.626 -12.696  0.00  0.00    +0.000 C 
ATOM     16  C   UNL     1      -0.222  -4.227 -11.311  0.00  0.00    +0.002 C 
ENDBRANCH  10  11
ENDBRANCH   6  10
ENDBRANCH   1   3
BRANCH   1  18
ATOM     17  N   UNL     1       2.269   1.577  -3.723  0.00  0.00    -0.284 N 
ATOM     18  C   UNL     1       2.046   0.614  -4.639  0.00  0.00    +0.234 C 
ATOM     19  O   UNL     1       2.889   0.367  -5.476  0.00  0.00    -0.274 OA
ATOM     20  H   UNL     1       1.567   1.826  -3.101  0.00  0.00    +0.155 HD
BRANCH  17  23
ATOM     21  C   UNL     1       3.248   2.395  -1.179  0.00  0.00    +0.048 C 
ATOM     22  C   UNL     1       4.027   2.633  -2.447  0.00  0.00    +0.001 A 
ATOM     23  C   UNL     1       3.511   2.217  -3.668  0.00  0.00    +0.039 A 
ATOM     24  C   UNL     1       4.232   2.439  -4.834  0.00  0.00    +0.024 A 
ATOM     25  C   UNL     1       5.459   3.071  -4.777  0.00  0.00    +0.004 A 
ATOM     26  C   UNL     1       5.970   3.483  -3.560  0.00  0.00    +0.033 A 
ATOM     27  C   UNL     1       5.252   3.269  -2.397  0.00  0.00    +0.131 A 
BRANCH  27  28
ATOM     28  N   UNL     1       5.799   3.717  -1.097  0.00  0.00    +0.057 N 
ATOM     29  O   UNL     1       5.050   4.008  -0.194  0.00  0.00    -0.126 OA
ATOM     30  O   UNL     1       6.996   3.793  -0.939  0.00  0.00    -0.126 OA
ENDBRANCH  27  28
ENDBRANCH  17  23
ENDBRANCH   1  18
TORSDOF 6
