REMARK  Name = ZINC15672076
REMARK  7 active torsions:
REMARK  status: ('A' for Active; 'I' for Inactive)
REMARK    1  A    between atoms: C_2  and  C_3
REMARK    2  A    between atoms: C_3  and  O_4
REMARK    3  A    between atoms: O_4  and  C_5
REMARK    4  A    between atoms: C_8  and  C_11
REMARK    5  A    between atoms: N_13  and  C_14
REMARK    6  A    between atoms: C_21  and  O_23
REMARK    7  A    between atoms: N_26  and  C_27
REMARK                            x       y       z     vdW  Elec       q    Type
REMARK                         _______ _______ _______ _____ _____    ______ ____
ROOT
ATOM      1  C   UNL     1       6.128  -0.718  -0.060  0.00  0.00    +0.119 C 
ATOM      2  C   UNL     1       6.518  -1.088   1.383  0.00  0.00    +0.134 C 
ATOM      3  N   UNL     1       7.957  -1.389   1.510  0.00  0.00    -0.284 N 
ATOM      4  C   UNL     1       8.680  -2.176   0.535  0.00  0.00    +0.109 C 
ATOM      5  C   UNL     1       9.275  -1.243  -0.548  0.00  0.00    +0.022 C 
ATOM      6  C   UNL     1       8.206  -0.710  -1.406  0.00  0.00    +0.035 C 
ATOM      7  C   UNL     1       7.188   0.161  -0.675  0.00  0.00    +0.136 C 
ATOM      8  C   UNL     1       8.626  -0.911   2.578  0.00  0.00    +0.307 C 
ATOM      9  O   UNL     1       8.043  -0.247   3.413  0.00  0.00    -0.252 OA
ATOM     10  N   UNL     1       9.941  -1.170   2.721  0.00  0.00    -0.269 N 
ATOM     11  H   UNL     1      10.391  -1.755   2.091  0.00  0.00    +0.156 HD
ENDROOT
BRANCH  10  12
ATOM     12  C   UNL     1      10.657  -0.595   3.778  0.00  0.00    +0.035 A 
ATOM     13  C   UNL     1      11.982  -0.221   3.599  0.00  0.00    +0.026 A 
ATOM     14  C   UNL     1      12.684   0.350   4.641  0.00  0.00    +0.040 A 
ATOM     15  C   UNL     1      12.071   0.541   5.868  0.00  0.00    +0.124 A 
ATOM     16  C   UNL     1      10.752   0.165   6.051  0.00  0.00    +0.040 A 
ATOM     17  C   UNL     1      10.044  -0.403   5.009  0.00  0.00    +0.026 A 
ATOM     18  F   UNL     1      12.762   1.096   6.888  0.00  0.00    -0.205 F 
ENDBRANCH  10  12
BRANCH   1  21
ATOM     19  C   UNL     1       3.691  -0.692  -0.035  0.00  0.00    +0.244 C 
ATOM     20  O   UNL     1       3.707  -1.907  -0.032  0.00  0.00    -0.270 OA
ATOM     21  N   UNL     1       4.849  -0.002  -0.049  0.00  0.00    -0.305 N 
ATOM     22  H   UNL     1       4.837   0.968  -0.052  0.00  0.00    +0.149 HD
BRANCH  19  26
ATOM     23  C   UNL     1      -0.014   1.383  -0.003  0.00  0.00    +0.122 A 
ATOM     24  C   UNL     1       1.179   2.096  -0.017  0.00  0.00    +0.046 A 
ATOM     25  C   UNL     1       2.383   1.427  -0.028  0.00  0.00    +0.016 A 
ATOM     26  C   UNL     1       2.404   0.030  -0.025  0.00  0.00    +0.037 A 
ATOM     27  C   UNL     1       1.202  -0.683  -0.010  0.00  0.00    +0.016 A 
ATOM     28  C   UNL     1       0.002  -0.006   0.000  0.00  0.00    +0.046 A 
BRANCH  23  29
ATOM     29  O   UNL     1      -1.198   2.046   0.002  0.00  0.00    -0.480 OA
BRANCH  29  30
ATOM     30  C   UNL     1      -1.142   3.474  -0.002  0.00  0.00    +0.317 C 
BRANCH  30  32
ATOM     31  C   UNL     1      -3.600   4.454   0.009  0.00  0.00    +0.007 C 
ATOM     32  C   UNL     1      -2.509   4.019   0.004  0.00  0.00    -0.065 C 
ENDBRANCH  30  32
ENDBRANCH  29  30
ENDBRANCH  23  29
ENDBRANCH  19  26
ENDBRANCH   1  21
BRANCH   7  33
ATOM     33  O   UNL     1       6.581   1.064  -1.601  0.00  0.00    -0.390 OA
ATOM     34  H   UNL     1       7.205   1.662  -2.035  0.00  0.00    +0.210 HD
ENDBRANCH   7  33
TORSDOF 7
