REMARK  Name = ZINC32986301
REMARK  7 active torsions:
REMARK  status: ('A' for Active; 'I' for Inactive)
REMARK    1  A    between atoms: C_1  and  C_2
REMARK    2  A    between atoms: C_2  and  C_4
REMARK    3  A    between atoms: C_2  and  O_17
REMARK    4  A    between atoms: C_4  and  C_6
REMARK    5  A    between atoms: O_17  and  C_18
REMARK    6  A    between atoms: C_18  and  C_20
REMARK    7  A    between atoms: C_29  and  O_32
REMARK                            x       y       z     vdW  Elec       q    Type
REMARK                         _______ _______ _______ _____ _____    ______ ____
ROOT
ATOM      1  C   UNL     1      -0.019   1.526   0.010  0.00  0.00    +0.061 C 
ATOM      2  C   UNL     1       0.002  -0.004   0.002  0.00  0.00    +0.244 C 
ENDROOT
BRANCH   2   3
ATOM      3  C   UNL     1      -1.412  -0.526   0.013  0.00  0.00    +0.203 C 
ATOM      4  O   UNL     1      -1.908  -0.912   1.050  0.00  0.00    -0.288 OA
BRANCH   3   5
ATOM      5  C   UNL     1      -2.189  -0.566  -1.233  0.00  0.00    +0.023 A 
ATOM      6  C   UNL     1      -1.616  -0.126  -2.432  0.00  0.00    +0.015 A 
ATOM      7  C   UNL     1      -2.345  -0.163  -3.600  0.00  0.00    +0.048 A 
ATOM      8  C   UNL     1      -3.649  -0.638  -3.592  0.00  0.00    +0.142 A 
ATOM      9  C   UNL     1      -4.228  -1.080  -2.399  0.00  0.00    +0.076 A 
ATOM     10  C   UNL     1      -3.503  -1.050  -1.225  0.00  0.00    +0.038 A 
ATOM     11  N   UNL     1      -5.547  -1.556  -2.412  0.00  0.00    -0.280 N 
ATOM     12  C   UNL     1      -6.115  -1.875  -3.596  0.00  0.00    +0.255 C 
ATOM     13  O   UNL     1      -7.265  -2.260  -3.635  0.00  0.00    -0.272 OA
ATOM     14  C   UNL     1      -5.315  -1.750  -4.867  0.00  0.00    +0.325 C 
ATOM     15  O   UNL     1      -4.374  -0.680  -4.739  0.00  0.00    -0.481 OA
ATOM     16  H   UNL     1      -6.044  -1.655  -1.585  0.00  0.00    +0.155 HD
ENDBRANCH   3   5
ENDBRANCH   2   3
BRANCH   2  17
ATOM     17  O   UNL     1       0.693  -0.477   1.160  0.00  0.00    -0.453 OA
BRANCH  17  18
ATOM     18  C   UNL     1       2.018  -0.662   1.046  0.00  0.00    +0.314 C 
ATOM     19  O   UNL     1       2.572  -0.429  -0.002  0.00  0.00    -0.250 OA
BRANCH  18  20
ATOM     20  C   UNL     1       2.814  -1.159   2.225  0.00  0.00    +0.071 C 
ATOM     21  C   UNL     1       2.677  -0.172   3.385  0.00  0.00    +0.021 C 
ATOM     22  C   UNL     1       3.485  -0.677   4.583  0.00  0.00    -0.007 C 
ATOM     23  C   UNL     1       2.956  -2.047   5.013  0.00  0.00    +0.007 C 
ATOM     24  C   UNL     1       3.093  -3.034   3.853  0.00  0.00    -0.007 C 
ATOM     25  C   UNL     1       2.285  -2.529   2.655  0.00  0.00    +0.021 C 
ATOM     26  C   UNL     1       4.566  -3.157   3.458  0.00  0.00    +0.038 C 
ATOM     27  C   UNL     1       5.095  -1.787   3.028  0.00  0.00    +0.068 C 
ATOM     28  C   UNL     1       4.958  -0.799   4.189  0.00  0.00    +0.038 C 
ATOM     29  C   UNL     1       4.287  -1.282   1.831  0.00  0.00    +0.052 C 
BRANCH  27  30
ATOM     30  O   UNL     1       6.471  -1.901   2.660  0.00  0.00    -0.389 OA
ATOM     31  H   UNL     1       7.044  -2.217   3.372  0.00  0.00    +0.210 HD
ENDBRANCH  27  30
ENDBRANCH  18  20
ENDBRANCH  17  18
ENDBRANCH   2  17
TORSDOF 6
