REMARK  Name = ZINC12420618
REMARK  3 active torsions:
REMARK  status: ('A' for Active; 'I' for Inactive)
REMARK    1  A    between atoms: C_9  and  S_12
REMARK    2  A    between atoms: S_12  and  N_15
REMARK    3  A    between atoms: N_15  and  C_16
REMARK                            x       y       z     vdW  Elec       q    Type
REMARK                         _______ _______ _______ _____ _____    ______ ____
ROOT
ATOM      1  C   UNL     1       2.382   4.634   0.005  0.00  0.00    +0.018 A 
ATOM      2  C   UNL     1       2.291   5.988   0.013  0.00  0.00    +0.092 A 
ATOM      3  C   UNL     1       1.022   6.606   0.029  0.00  0.00    +0.337 A 
ATOM      4  O   UNL     1       0.954   7.822   0.037  0.00  0.00    -0.245 OA
ATOM      5  O   UNL     1      -0.112   5.888   0.035  0.00  0.00    -0.422 OA
ATOM      6  C   UNL     1      -0.091   4.537   0.027  0.00  0.00    +0.139 A 
ATOM      7  C   UNL     1       1.139   3.857   0.012  0.00  0.00    +0.019 A 
ATOM      8  C   UNL     1       1.163   2.459   0.004  0.00  0.00    +0.040 A 
ATOM      9  C   UNL     1      -0.022   1.758   0.012  0.00  0.00    +0.106 A 
ATOM     10  C   UNL     1      -1.235   2.431   0.021  0.00  0.00    +0.032 A 
ATOM     11  C   UNL     1      -1.274   3.810   0.034  0.00  0.00    +0.049 A 
ENDROOT
BRANCH   9  12
ATOM     12  S   UNL     1       0.002  -0.004   0.002  0.00  0.00    +0.059 S 
ATOM     13  O   UNL     1      -1.243  -0.424  -0.539  0.00  0.00    -0.153 OA
ATOM     14  O   UNL     1       1.248  -0.390  -0.563  0.00  0.00    -0.153 OA
BRANCH  12  15
ATOM     15  N   UNL     1       0.024  -0.502   1.581  0.00  0.00    -0.187 NA
ATOM     16  H   UNL     1       0.795  -0.976   1.930  0.00  0.00    +0.148 HD
BRANCH  15  17
ATOM     17  C   UNL     1      -1.122  -0.227   2.452  0.00  0.00    +0.077 C 
ATOM     18  C   UNL     1      -0.868   1.062   3.236  0.00  0.00    +0.020 C 
ATOM     19  C   UNL     1      -2.064   1.349   4.146  0.00  0.00    +0.002 C 
ATOM     20  C   UNL     1      -2.254   0.187   5.122  0.00  0.00    +0.000 C 
ATOM     21  C   UNL     1      -2.507  -1.102   4.338  0.00  0.00    +0.002 C 
ATOM     22  C   UNL     1      -1.311  -1.389   3.428  0.00  0.00    +0.020 C 
ENDBRANCH  15  17
ENDBRANCH  12  15
ENDBRANCH   9  12
TORSDOF 3
