REMARK  Name = ZINC63796127
REMARK  3 active torsions:
REMARK  status: ('A' for Active; 'I' for Inactive)
REMARK    1  A    between atoms: C_1  and  C_2
REMARK    2  A    between atoms: C_4  and  C_8
REMARK    3  A    between atoms: C_12  and  C_17
REMARK                            x       y       z     vdW  Elec       q    Type
REMARK                         _______ _______ _______ _____ _____    ______ ____
ROOT
ATOM      1  C   UNL     1      -0.964  -2.951   1.248  0.00  0.00    +0.182 C 
ATOM      2  N   UNL     1      -0.339  -4.299   1.313  0.00  0.00    -0.265 N 
ATOM      3  N   UNL     1       0.849  -4.351   1.980  0.00  0.00    -0.220 N 
ATOM      4  C   UNL     1       1.953  -5.196   2.037  0.00  0.00    +0.183 A 
ATOM      5  N   UNL     1       2.779  -4.714   2.932  0.00  0.00    -0.127 NA
ATOM      6  N   UNL     1       2.299  -3.631   3.433  0.00  0.00    -0.120 NA
ATOM      7  C   UNL     1       1.155  -3.363   2.881  0.00  0.00    +0.211 A 
ATOM      8  S   UNL     1      -0.215  -2.228   2.772  0.00  0.00    -0.058 S 
ATOM      9  H   UNL     1      -0.988  -4.981   1.677  0.00  0.00    +0.168 HD
ENDROOT
BRANCH   4  10
ATOM     10  C   UNL     1       2.157  -6.419   1.231  0.00  0.00    +0.040 A 
ATOM     11  C   UNL     1       1.192  -6.817   0.304  0.00  0.00    +0.033 A 
ATOM     12  C   UNL     1       1.389  -7.960  -0.445  0.00  0.00    +0.042 A 
ATOM     13  C   UNL     1       2.541  -8.711  -0.278  0.00  0.00    +0.021 A 
ATOM     14  C   UNL     1       3.500  -8.322   0.639  0.00  0.00    +0.022 A 
ATOM     15  C   UNL     1       3.318  -7.178   1.391  0.00  0.00    +0.052 A 
ATOM     16 CL   UNL     1       4.528  -6.688   2.536  0.00  0.00    -0.083 Cl
ATOM     17 CL   UNL     1       0.191  -8.456  -1.598  0.00  0.00    -0.084 Cl
ENDBRANCH   4  10
BRANCH   1  21
ATOM     18  C   UNL     1      -0.018   1.503   0.010  0.00  0.00    +0.067 C 
ATOM     19  C   UNL     1       0.002  -0.004   0.002  0.00  0.00    +0.058 C 
ATOM     20  C   UNL     1      -1.086  -0.777   0.003  0.00  0.00    +0.029 C 
ATOM     21  C   UNL     1      -0.531  -2.190  -0.007  0.00  0.00    +0.185 C 
ATOM     22  N   UNL     1       0.926  -1.973  -0.013  0.00  0.00    -0.177 NA
ATOM     23  N   UNL     1       1.125  -0.756  -0.013  0.00  0.00    -0.159 NA
ENDBRANCH   1  21
TORSDOF 2
