REMARK  Name = ZINC63529120
REMARK  4 active torsions:
REMARK  status: ('A' for Active; 'I' for Inactive)
REMARK    1  A    between atoms: C_1  and  C_2
REMARK    2  A    between atoms: C_5  and  N_9
REMARK    3  A    between atoms: C_10  and  C_12
REMARK    4  A    between atoms: C_14  and  C_27
REMARK                            x       y       z     vdW  Elec       q    Type
REMARK                         _______ _______ _______ _____ _____    ______ ____
ROOT
ATOM      1  C   UNL     1      -0.136  -6.343  -1.191  0.00  0.00    +0.265 C 
ATOM      2  C   UNL     1       1.193  -6.983  -0.720  0.00  0.00    +0.067 C 
ATOM      3  C   UNL     1       1.281  -8.192  -1.624  0.00  0.00    +0.005 C 
ATOM      4  C   UNL     1       0.416  -8.044  -2.617  0.00  0.00    +0.101 C 
ATOM      5  O   UNL     1      -0.243  -6.852  -2.531  0.00  0.00    -0.483 OA
ATOM      6  C   UNL     1       0.127  -9.044  -3.718  0.00  0.00    +0.078 C 
ATOM      7  C   UNL     1       1.193 -10.148  -3.776  0.00  0.00    +0.042 C 
ATOM      8  C   UNL     1       1.584 -10.450  -2.358  0.00  0.00    -0.019 C 
ATOM      9  C   UNL     1       1.512 -11.506  -1.586  0.00  0.00    +0.136 C 
ATOM     10  N   UNL     1       1.830 -11.177  -0.307  0.00  0.00    -0.162 NA
ATOM     11  N   UNL     1       2.180  -9.997  -0.153  0.00  0.00    -0.175 NA
ATOM     12  C   UNL     1       2.201  -9.368  -1.468  0.00  0.00    +0.185 C 
ATOM     13  C   UNL     1       2.371  -6.035  -0.953  0.00  0.00    +0.016 C 
ENDROOT
BRANCH   1  15
ATOM     14  N   UNL     1       0.057  -4.171  -0.023  0.00  0.00    -0.281 N 
ATOM     15  C   UNL     1      -0.042  -4.839  -1.190  0.00  0.00    +0.259 C 
ATOM     16  O   UNL     1      -0.055  -4.230  -2.238  0.00  0.00    -0.271 OA
ATOM     17  H   UNL     1       0.133  -4.660   0.811  0.00  0.00    +0.155 HD
BRANCH  14  22
ATOM     18  C   UNL     1       0.027   1.503   0.005  0.00  0.00    +0.044 C 
ATOM     19  C   UNL     1       0.035  -0.004  -0.002  0.00  0.00    -0.049 A 
ATOM     20  C   UNL     1       0.632  -0.686  -1.046  0.00  0.00    +0.005 A 
ATOM     21  C   UNL     1       0.641  -2.067  -1.056  0.00  0.00    +0.025 A 
ATOM     22  C   UNL     1       0.050  -2.771  -0.016  0.00  0.00    +0.052 A 
ATOM     23  C   UNL     1      -0.548  -2.084   1.033  0.00  0.00    +0.062 A 
ATOM     24  C   UNL     1      -0.549  -0.701   1.039  0.00  0.00    +0.025 A 
ATOM     25 CL   UNL     1      -1.289  -2.959   2.336  0.00  0.00    -0.082 Cl
ENDBRANCH  14  22
ENDBRANCH   1  15
TORSDOF 2
