REMARK  Name = ZINC35178007
REMARK  4 active torsions:
REMARK  status: ('A' for Active; 'I' for Inactive)
REMARK    1  A    between atoms: C_1  and  O_2
REMARK    2  A    between atoms: O_2  and  C_3
REMARK    3  A    between atoms: C_3  and  C_5
REMARK    4  A    between atoms: C_11  and  C_13
REMARK                            x       y       z     vdW  Elec       q    Type
REMARK                         _______ _______ _______ _____ _____    ______ ____
ROOT
ATOM      1  C   UNL     1       0.672  -2.092   1.100  0.00  0.00    +0.185 C 
ATOM      2  C   UNL     1      -0.758  -2.667   1.180  0.00  0.00    +0.035 C 
ATOM      3  C   UNL     1      -0.597  -3.867   2.150  0.00  0.00    +0.021 C 
ATOM      4  C   UNL     1       0.466  -3.326   3.140  0.00  0.00    +0.109 C 
ATOM      5  N   UNL     1       1.390  -2.531   2.305  0.00  0.00    -0.284 N 
ATOM      6  C   UNL     1       2.676  -2.254   2.597  0.00  0.00    +0.247 C 
ATOM      7  O   UNL     1       3.374  -1.679   1.785  0.00  0.00    -0.270 OA
ENDROOT
BRANCH   6   8
ATOM      8  C   UNL     1       3.238  -2.650   3.904  0.00  0.00    +0.042 A 
ATOM      9  C   UNL     1       4.615  -2.843   4.045  0.00  0.00    +0.062 A 
ATOM     10  C   UNL     1       5.137  -3.214   5.268  0.00  0.00    +0.168 A 
ATOM     11  C   UNL     1       4.290  -3.395   6.362  0.00  0.00    +0.184 A 
ATOM     12  C   UNL     1       2.922  -3.203   6.222  0.00  0.00    +0.087 A 
ATOM     13  C   UNL     1       2.396  -2.827   5.003  0.00  0.00    +0.037 A 
ATOM     14 CL   UNL     1       1.871  -3.429   7.585  0.00  0.00    -0.080 Cl
ATOM     15  O   UNL     1       5.043  -3.755   7.441  0.00  0.00    -0.451 OA
ATOM     16  C   UNL     1       6.305  -4.191   6.902  0.00  0.00    +0.466 C 
ATOM     17  O   UNL     1       6.420  -3.461   5.665  0.00  0.00    -0.453 OA
ENDBRANCH   6   8
BRANCH   1  18
ATOM     18  C   UNL     1       0.617  -0.586   1.056  0.00  0.00    +0.328 C 
ATOM     19  O   UNL     1       1.130   0.063   1.937  0.00  0.00    -0.249 OA
BRANCH  18  21
ATOM     20  C   UNL     1      -0.015   1.462   0.062  0.00  0.00    +0.280 C 
ATOM     21  O   UNL     1      -0.002   0.033   0.039  0.00  0.00    -0.467 OA
ENDBRANCH  18  21
ENDBRANCH   1  18
TORSDOF 3
