REMARK  Name = ZINC35498040
REMARK  7 active torsions:
REMARK  status: ('A' for Active; 'I' for Inactive)
REMARK    1  A    between atoms: C_1  and  N_2
REMARK    2  A    between atoms: N_2  and  C_3
REMARK    3  A    between atoms: N_2  and  C_4
REMARK    4  A    between atoms: C_4  and  C_5
REMARK    5  A    between atoms: C_5  and  N_6
REMARK    6  A    between atoms: C_20  and  C_22
REMARK    7  A    between atoms: C_25  and  C_28
REMARK                            x       y       z     vdW  Elec       q    Type
REMARK                         _______ _______ _______ _____ _____    ______ ____
ROOT
ATOM      1  N   UNL     1      -2.669  -1.843  -0.303  0.00  0.00    -0.301 N 
ATOM      2  C   UNL     1      -3.225  -2.033   0.922  0.00  0.00    +0.203 A 
ATOM      3  N   UNL     1      -4.439  -2.496   1.048  0.00  0.00    -0.230 NA
ATOM      4  C   UNL     1      -5.171  -2.797  -0.021  0.00  0.00    +0.116 A 
ATOM      5  C   UNL     1      -4.682  -2.635  -1.327  0.00  0.00    +0.076 A 
ATOM      6  C   UNL     1      -3.348  -2.120  -1.431  0.00  0.00    +0.262 A 
ATOM      7  O   UNL     1      -2.837  -1.940  -2.523  0.00  0.00    -0.267 OA
ATOM      8  C   UNL     1      -5.597  -3.008  -2.406  0.00  0.00    -0.020 A 
ATOM      9  C   UNL     1      -6.812  -3.469  -2.042  0.00  0.00    +0.013 A 
ATOM     10  S   UNL     1      -6.810  -3.430  -0.270  0.00  0.00    -0.072 S 
ATOM     11  C   UNL     1      -7.917  -3.920  -2.951  0.00  0.00    +0.150 C 
ATOM     12  N   UNL     1      -7.527  -3.552  -4.326  0.00  0.00    -0.292 N 
ATOM     13  C   UNL     1      -6.127  -3.776  -4.716  0.00  0.00    +0.113 C 
ATOM     14  C   UNL     1      -5.213  -2.881  -3.877  0.00  0.00    +0.056 C 
ATOM     15  C   UNL     1      -8.420  -3.031  -5.191  0.00  0.00    +0.247 C 
ATOM     16  O   UNL     1      -8.051  -2.632  -6.279  0.00  0.00    -0.270 OA
ENDROOT
BRANCH  15  17
ATOM     17  C   UNL     1      -9.848  -2.944  -4.817  0.00  0.00    +0.037 A 
ATOM     18  C   UNL     1     -10.641  -1.909  -5.314  0.00  0.00    +0.013 A 
ATOM     19  C   UNL     1     -11.973  -1.834  -4.962  0.00  0.00    +0.013 A 
ATOM     20  C   UNL     1     -12.522  -2.782  -4.117  0.00  0.00    +0.055 A 
ATOM     21  C   UNL     1     -11.741  -3.810  -3.620  0.00  0.00    +0.013 A 
ATOM     22  C   UNL     1     -10.410  -3.900  -3.970  0.00  0.00    +0.013 A 
BRANCH  20  23
ATOM     23  C   UNL     1     -13.977  -2.693  -3.736  0.00  0.00    +0.417 C 
ATOM     24  F   UNL     1     -14.746  -3.410  -4.659  0.00  0.00    -0.166 F 
ATOM     25  F   UNL     1     -14.159  -3.235  -2.458  0.00  0.00    -0.166 F 
ATOM     26  F   UNL     1     -14.379  -1.353  -3.736  0.00  0.00    -0.166 F 
ENDBRANCH  20  23
ENDBRANCH  15  17
BRANCH   1  27
ATOM     27  C   UNL     1      -1.303  -1.321  -0.397  0.00  0.00    +0.108 C 
BRANCH  27  28
ATOM     28  C   UNL     1      -1.344   0.207  -0.450  0.00  0.00    -0.058 C 
BRANCH  28  30
ATOM     29  C   UNL     1      -0.019   2.189  -0.715  0.00  0.00    -0.097 C 
ATOM     30  N   UNL     1       0.025   0.731  -0.545  0.00  0.00    +0.377 N 
ATOM     31  C   UNL     1       0.761   0.404   0.684  0.00  0.00    -0.097 C 
ATOM     32  H   UNL     1       0.491   0.313  -1.337  0.00  0.00    -0.083 HD
ENDBRANCH  28  30
ENDBRANCH  27  28
ENDBRANCH   1  27
TORSDOF 5
