REMARK  Name = ZINC09633846
REMARK  6 active torsions:
REMARK  status: ('A' for Active; 'I' for Inactive)
REMARK    1  A    between atoms: C_4  and  N_20
REMARK    2  A    between atoms: C_5  and  C_7
REMARK    3  A    between atoms: N_9  and  N_10
REMARK    4  A    between atoms: C_11  and  C_13
REMARK    5  A    between atoms: N_20  and  S_21
REMARK    6  A    between atoms: S_21  and  C_24
REMARK                            x       y       z     vdW  Elec       q    Type
REMARK                         _______ _______ _______ _____ _____    ______ ____
ROOT
ATOM      1  C   UNL     1       4.490   3.824   0.492  0.00  0.00    +0.001 A 
ATOM      2  C   UNL     1       5.748   3.252   0.379  0.00  0.00    +0.002 A 
ATOM      3  C   UNL     1       5.884   1.891   0.202  0.00  0.00    +0.025 A 
ATOM      4  C   UNL     1       4.757   1.081   0.139  0.00  0.00    +0.060 A 
ATOM      5  C   UNL     1       3.481   1.657   0.248  0.00  0.00    +0.060 A 
ATOM      6  C   UNL     1       3.361   3.038   0.428  0.00  0.00    +0.015 A 
ENDROOT
BRANCH   5   7
ATOM      7  C   UNL     1       2.277   0.810   0.179  0.00  0.00    +0.262 C 
ATOM      8  O   UNL     1       2.386  -0.391   0.022  0.00  0.00    -0.269 OA
ATOM      9  N   UNL     1       1.054   1.367   0.289  0.00  0.00    -0.230 N 
ATOM     10  H   UNL     1       0.967   2.325   0.414  0.00  0.00    +0.173 HD
BRANCH   9  11
ATOM     11  N   UNL     1      -0.091   0.562   0.223  0.00  0.00    -0.230 N 
ATOM     12  C   UNL     1      -1.313   1.119   0.328  0.00  0.00    +0.260 C 
ATOM     13  O   UNL     1      -1.423   2.320   0.485  0.00  0.00    -0.269 OA
ATOM     14  H   UNL     1      -0.003  -0.396   0.098  0.00  0.00    +0.173 HD
BRANCH  12  15
ATOM     15  C   UNL     1      -2.521   0.271   0.253  0.00  0.00    +0.038 A 
ATOM     16  C   UNL     1      -2.398  -1.107   0.067  0.00  0.00    +0.016 A 
ATOM     17  C   UNL     1      -3.528  -1.895   0.003  0.00  0.00    +0.039 A 
ATOM     18  C   UNL     1      -4.784  -1.319   0.111  0.00  0.00    +0.123 A 
ATOM     19  C   UNL     1      -4.912   0.051   0.290  0.00  0.00    +0.039 A 
ATOM     20  C   UNL     1      -3.788   0.846   0.361  0.00  0.00    +0.016 A 
ATOM     21  F   UNL     1      -5.888  -2.094   0.042  0.00  0.00    -0.205 F 
ENDBRANCH  12  15
ENDBRANCH   9  11
ENDBRANCH   5   7
BRANCH   4  22
ATOM     22  N   UNL     1       4.891  -0.290  -0.035  0.00  0.00    -0.215 N 
ATOM     23  H   UNL     1       4.243  -0.777  -0.568  0.00  0.00    +0.174 HD
BRANCH  22  24
ATOM     24  S   UNL     1       6.157  -1.094   0.667  0.00  0.00    +0.079 S 
ATOM     25  O   UNL     1       5.945  -2.477   0.424  0.00  0.00    -0.149 OA
ATOM     26  O   UNL     1       7.341  -0.421   0.259  0.00  0.00    -0.149 OA
BRANCH  24  27
ATOM     27  C   UNL     1       6.021  -0.861   2.408  0.00  0.00    +0.146 A 
ATOM     28  C   UNL     1       5.364  -1.618   3.321  0.00  0.00    +0.036 A 
ATOM     29  C   UNL     1       5.394  -1.240   4.651  0.00  0.00    +0.010 A 
ATOM     30  C   UNL     1       6.079  -0.124   5.002  0.00  0.00    +0.047 A 
ATOM     31  S   UNL     1       6.717   0.427   3.429  0.00  0.00    -0.077 S 
ENDBRANCH  24  27
ENDBRANCH  22  24
ENDBRANCH   4  22
TORSDOF 6
