REMARK  Name = ZINC02484139
REMARK  8 active torsions:
REMARK  status: ('A' for Active; 'I' for Inactive)
REMARK    1  A    between atoms: C_1  and  O_2
REMARK    2  A    between atoms: O_2  and  C_3
REMARK    3  A    between atoms: C_6  and  C_11
REMARK    4  A    between atoms: C_8  and  O_9
REMARK    5  A    between atoms: O_9  and  C_10
REMARK    6  A    between atoms: C_18  and  N_32
REMARK    7  A    between atoms: C_19  and  C_30
REMARK    8  A    between atoms: C_20  and  C_22
REMARK                            x       y       z     vdW  Elec       q    Type
REMARK                         _______ _______ _______ _____ _____    ______ ____
ROOT
ATOM      1  C   UNL     1      -5.424  -2.742  -0.128  0.00  0.00    +0.100 A 
ATOM      2  C   UNL     1      -6.370  -2.241   0.771  0.00  0.00    +0.054 A 
ATOM      3  C   UNL     1      -7.486  -3.024   0.690  0.00  0.00    +0.223 A 
ATOM      4  N   UNL     1      -7.249  -3.983  -0.229  0.00  0.00    -0.246 N 
ATOM      5  H   UNL     1      -7.866  -4.681  -0.496  0.00  0.00    +0.192 HD
ATOM      6  N   UNL     1      -5.954  -3.787  -0.735  0.00  0.00    -0.171 NA
ATOM      7  O   UNL     1      -8.592  -2.802   1.443  0.00  0.00    -0.423 OA
ATOM      8  C   UNL     1      -8.480  -1.951   2.483  0.00  0.00    +0.200 C 
ATOM      9  C   UNL     1      -7.430  -1.118   2.663  0.00  0.00    +0.098 C 
ATOM     10  C   UNL     1      -6.271  -1.059   1.700  0.00  0.00    +0.106 C 
ENDROOT
BRANCH  10  11
ATOM     11  C   UNL     1      -6.334   0.220   0.905  0.00  0.00    +0.019 A 
ATOM     12  C   UNL     1      -7.391   0.445   0.040  0.00  0.00    +0.129 A 
ATOM     13  C   UNL     1      -7.449   1.620  -0.690  0.00  0.00    +0.039 A 
ATOM     14  C   UNL     1      -6.451   2.567  -0.555  0.00  0.00    +0.004 A 
ATOM     15  C   UNL     1      -5.396   2.342   0.309  0.00  0.00    +0.020 A 
ATOM     16  C   UNL     1      -5.340   1.171   1.044  0.00  0.00    +0.048 A 
ATOM     17 CL   UNL     1      -4.019   0.892   2.135  0.00  0.00    -0.083 Cl
ATOM     18  F   UNL     1      -8.366  -0.481  -0.093  0.00  0.00    -0.205 F 
ENDBRANCH  10  11
BRANCH   1  22
ATOM     19  C   UNL     1      -1.527  -1.164  -0.796  0.00  0.00    +0.162 A 
ATOM     20  C   UNL     1      -2.016  -1.280   0.496  0.00  0.00    +0.050 A 
ATOM     21  C   UNL     1      -3.279  -1.792   0.715  0.00  0.00    +0.014 A 
ATOM     22  C   UNL     1      -4.066  -2.192  -0.363  0.00  0.00    +0.006 A 
ATOM     23  C   UNL     1      -3.575  -2.076  -1.662  0.00  0.00    +0.059 A 
ATOM     24  C   UNL     1      -2.311  -1.557  -1.877  0.00  0.00    +0.162 A 
BRANCH  19  26
ATOM     25  C   UNL     1       0.468  -0.276   0.147  0.00  0.00    +0.277 C 
ATOM     26  O   UNL     1      -0.282  -0.660  -1.008  0.00  0.00    -0.491 OA
ENDBRANCH  19  26
BRANCH  24  27
ATOM     27  O   UNL     1      -1.832  -1.437  -3.144  0.00  0.00    -0.491 OA
ATOM     28  C   UNL     1      -2.690  -1.860  -4.205  0.00  0.00    +0.277 C 
ENDBRANCH  24  27
ENDBRANCH   1  22
BRANCH   8  29
ATOM     29  N   UNL     1      -9.490  -1.928   3.412  0.00  0.00    -0.328 N 
ATOM     30  H   UNL     1     -10.256  -2.514   3.310  0.00  0.00    +0.145 HD
ATOM     31  H   UNL     1      -9.437  -1.326   4.171  0.00  0.00    +0.145 HD
ENDBRANCH   8  29
BRANCH   9  32
ATOM     32  C   UNL     1      -7.419  -0.260   3.810  0.00  0.00    +0.101 C 
ATOM     33  N   UNL     1      -7.410   0.420   4.720  0.00  0.00    -0.191 NA
ENDBRANCH   9  32
TORSDOF 6
