REMARK  Name = ZINC46427793
REMARK  8 active torsions:
REMARK  status: ('A' for Active; 'I' for Inactive)
REMARK    1  A    between atoms: C_1  and  C_2
REMARK    2  A    between atoms: C_5  and  C_27
REMARK    3  A    between atoms: N_8  and  C_10
REMARK    4  A    between atoms: C_10  and  C_11
REMARK    5  A    between atoms: C_11  and  C_12
REMARK    6  A    between atoms: C_12  and  N_13
REMARK    7  A    between atoms: N_16  and  N_17
REMARK    8  A    between atoms: C_18  and  C_20
REMARK                            x       y       z     vdW  Elec       q    Type
REMARK                         _______ _______ _______ _____ _____    ______ ____
ROOT
ATOM      1  N   UNL     1       2.207   0.402   6.106  0.00  0.00    -0.298 N 
ATOM      2  C   UNL     1       2.669   0.154   7.348  0.00  0.00    +0.316 C 
ATOM      3  O   UNL     1       3.621  -0.587   7.506  0.00  0.00    -0.251 OA
ATOM      4  N   UNL     1       2.078   0.728   8.414  0.00  0.00    -0.218 N 
ATOM      5  H   UNL     1       1.448   0.993   5.981  0.00  0.00    +0.150 HD
ATOM      6  H   UNL     1       2.411   0.550   9.308  0.00  0.00    +0.174 HD
ENDROOT
BRANCH   4   7
ATOM      7  N   UNL     1       0.982   1.582   8.232  0.00  0.00    -0.229 N 
ATOM      8  C   UNL     1       0.390   2.156   9.299  0.00  0.00    +0.260 C 
ATOM      9  O   UNL     1       0.808   1.933  10.418  0.00  0.00    -0.269 OA
ATOM     10  H   UNL     1       0.649   1.760   7.339  0.00  0.00    +0.173 HD
BRANCH   8  11
ATOM     11  C   UNL     1      -0.766   3.056   9.107  0.00  0.00    +0.038 A 
ATOM     12  C   UNL     1      -1.251   3.309   7.822  0.00  0.00    +0.014 A 
ATOM     13  C   UNL     1      -2.330   4.151   7.650  0.00  0.00    +0.021 A 
ATOM     14  C   UNL     1      -2.932   4.744   8.747  0.00  0.00    +0.041 A 
ATOM     15  C   UNL     1      -2.455   4.496  10.024  0.00  0.00    +0.021 A 
ATOM     16  C   UNL     1      -1.381   3.652  10.210  0.00  0.00    +0.014 A 
ATOM     17 CL   UNL     1      -4.289   5.802   8.521  0.00  0.00    -0.084 Cl
ENDBRANCH   8  11
ENDBRANCH   4   7
BRANCH   1  18
ATOM     18  C   UNL     1       2.850  -0.222   4.947  0.00  0.00    +0.104 C 
BRANCH  18  19
ATOM     19  C   UNL     1       2.136   0.221   3.668  0.00  0.00    +0.000 C 
BRANCH  19  20
ATOM     20  C   UNL     1       2.808  -0.431   2.458  0.00  0.00    -0.077 C 
BRANCH  20  26
ATOM     21  C   UNL     1      -0.019   1.526   0.010  0.00  0.00    +0.005 C 
ATOM     22  C   UNL     1       0.002  -0.004   0.002  0.00  0.00    -0.031 C 
ATOM     23  C   UNL     1       0.721  -0.499  -1.257  0.00  0.00    +0.003 C 
ATOM     24  C   UNL     1       2.177  -0.027  -1.220  0.00  0.00    -0.031 C 
ATOM     25  C   UNL     1       2.839  -0.534   0.063  0.00  0.00    -0.076 C 
ATOM     26  N   UNL     1       2.123  -0.005   1.230  0.00  0.00    +0.380 N 
ATOM     27  C   UNL     1       0.744  -0.512   1.240  0.00  0.00    -0.076 C 
ATOM     28  C   UNL     1       2.924  -0.581  -2.434  0.00  0.00    +0.005 C 
ATOM     29  H   UNL     1       2.109   1.003   1.187  0.00  0.00    -0.082 HD
ENDBRANCH  20  26
ENDBRANCH  19  20
ENDBRANCH  18  19
ENDBRANCH   1  18
TORSDOF 6
