REMARK  Name = ZINC29776224
REMARK  8 active torsions:
REMARK  status: ('A' for Active; 'I' for Inactive)
REMARK    1  A    between atoms: C_1  and  C_2
REMARK    2  A    between atoms: C_2  and  C_3
REMARK    3  A    between atoms: C_2  and  C_4
REMARK    4  A    between atoms: C_10  and  C_12
REMARK    5  A    between atoms: N_17  and  S_19
REMARK    6  A    between atoms: S_19  and  C_22
REMARK    7  A    between atoms: C_25  and  O_28
REMARK    8  A    between atoms: O_28  and  C_29
REMARK                            x       y       z     vdW  Elec       q    Type
REMARK                         _______ _______ _______ _____ _____    ______ ____
ROOT
ATOM      1  C   UNL     1      -1.192  -2.156   2.901  0.00  0.00    +0.091 C 
ATOM      2  C   UNL     1       0.069  -2.312   3.755  0.00  0.00    +0.015 C 
ATOM      3  C   UNL     1       1.308  -2.123   2.877  0.00  0.00    +0.018 C 
ATOM      4  C   UNL     1       1.298  -0.716   2.281  0.00  0.00    +0.109 C 
ATOM      5  N   UNL     1       0.024  -0.502   1.581  0.00  0.00    -0.176 NA
ATOM      6  C   UNL     1      -1.230  -0.745   2.307  0.00  0.00    +0.122 C 
ENDROOT
BRANCH   1  13
ATOM      7  C   UNL     1      -5.176  -4.850   6.574  0.00  0.00    +0.053 A 
ATOM      8  C   UNL     1      -5.962  -3.745   6.582  0.00  0.00    +0.072 A 
ATOM      9  S   UNL     1      -5.021  -2.661   5.518  0.00  0.00    -0.060 S 
ATOM     10  C   UNL     1      -3.715  -3.755   5.179  0.00  0.00    +0.165 A 
ATOM     11  N   UNL     1      -4.066  -4.827   5.862  0.00  0.00    -0.229 NA
ATOM     12  N   UNL     1      -2.590  -3.553   4.388  0.00  0.00    -0.264 N 
ATOM     13  C   UNL     1      -2.411  -2.374   3.759  0.00  0.00    +0.223 C 
ATOM     14  O   UNL     1      -3.231  -1.489   3.885  0.00  0.00    -0.275 OA
ATOM     15  H   UNL     1      -1.847  -4.356   4.274  0.00  0.00    +0.157 HD
BRANCH   7  17
ATOM     16  C   UNL     1      -5.086  -5.935   8.802  0.00  0.00    +0.014 C 
ATOM     17  C   UNL     1      -5.565  -6.078   7.356  0.00  0.00    +0.032 C 
ATOM     18  C   UNL     1      -7.087  -6.235   7.335  0.00  0.00    +0.014 C 
ENDBRANCH   7  17
ENDBRANCH   1  13
BRANCH   5  19
ATOM     19  S   UNL     1       0.002  -0.004   0.002  0.00  0.00    +0.061 S 
ATOM     20  O   UNL     1      -1.243  -0.424  -0.539  0.00  0.00    -0.153 OA
ATOM     21  O   UNL     1       1.248  -0.390  -0.563  0.00  0.00    -0.153 OA
BRANCH  19  22
ATOM     22  C   UNL     1      -0.022   1.758   0.012  0.00  0.00    +0.106 A 
ATOM     23  C   UNL     1      -1.229   2.432   0.021  0.00  0.00    +0.032 A 
ATOM     24  C   UNL     1      -1.250   3.813   0.035  0.00  0.00    +0.047 A 
ATOM     25  C   UNL     1      -0.059   4.524   0.026  0.00  0.00    +0.120 A 
ATOM     26  C   UNL     1       1.151   3.845   0.011  0.00  0.00    +0.047 A 
ATOM     27  C   UNL     1       1.167   2.464   0.004  0.00  0.00    +0.032 A 
BRANCH  25  28
ATOM     28  O   UNL     1      -0.078   5.883   0.033  0.00  0.00    -0.495 OA
ATOM     29  C   UNL     1      -1.360   6.514   0.049  0.00  0.00    +0.277 C 
ENDBRANCH  25  28
ENDBRANCH  19  22
ENDBRANCH   5  19
TORSDOF 5
