REMARK  Name = ZINC29501059
REMARK  3 active torsions:
REMARK  status: ('A' for Active; 'I' for Inactive)
REMARK    1  A    between atoms: C_1  and  C_2
REMARK    2  A    between atoms: N_5  and  C_9
REMARK    3  A    between atoms: C_9  and  N_10
REMARK                            x       y       z     vdW  Elec       q    Type
REMARK                         _______ _______ _______ _____ _____    ______ ____
ROOT
ATOM      1  N   UNL     1      -2.949   3.479  -2.233  0.00  0.00    -0.261 N 
ATOM      2  C   UNL     1      -3.800   4.436  -1.679  0.00  0.00    +0.092 A 
ATOM      3  C   UNL     1      -3.592   5.693  -1.133  0.00  0.00    +0.031 A 
ATOM      4  C   UNL     1      -4.664   6.420  -0.654  0.00  0.00    +0.017 A 
ATOM      5  C   UNL     1      -5.944   5.897  -0.718  0.00  0.00    +0.021 A 
ATOM      6  C   UNL     1      -6.159   4.645  -1.261  0.00  0.00    +0.063 A 
ATOM      7  C   UNL     1      -5.089   3.908  -1.745  0.00  0.00    +0.158 A 
ATOM      8  O   UNL     1      -4.994   2.683  -2.318  0.00  0.00    -0.407 OA
ATOM      9  C   UNL     1      -3.708   2.433  -2.614  0.00  0.00    +0.422 A 
ATOM     10  O   UNL     1      -3.293   1.419  -3.140  0.00  0.00    -0.223 OA
ATOM     11 BR   UNL     1      -7.405   6.901  -0.060  0.00  0.00    -0.050 Br
ENDROOT
BRANCH   1  12
ATOM     12  C   UNL     1      -1.496   3.594  -2.379  0.00  0.00    +0.216 C 
BRANCH  12  16
ATOM     13  C   UNL     1      -1.546   3.357   2.537  0.00  0.00    +0.039 C 
ATOM     14  C   UNL     1      -0.784   2.972   1.267  0.00  0.00    +0.129 C 
ATOM     15  C   UNL     1      -1.534   3.499   0.041  0.00  0.00    +0.117 C 
ATOM     16  N   UNL     1      -0.839   3.061  -1.178  0.00  0.00    -0.280 NA
ATOM     17  C   UNL     1      -0.755   1.594  -1.231  0.00  0.00    +0.114 C 
ATOM     18  C   UNL     1      -0.013   1.086   0.008  0.00  0.00    +0.175 C 
ATOM     19  O   UNL     1      -0.684   1.548   1.183  0.00  0.00    -0.374 OA
ENDBRANCH  12  16
ENDBRANCH   1  12
TORSDOF 2
