REMARK  Name = ZINC34785590
REMARK  6 active torsions:
REMARK  status: ('A' for Active; 'I' for Inactive)
REMARK    1  A    between atoms: C_4  and  C_7
REMARK    2  A    between atoms: C_7  and  N_8
REMARK    3  A    between atoms: C_9  and  C_11
REMARK    4  A    between atoms: C_11  and  N_12
REMARK    5  A    between atoms: N_20  and  C_21
REMARK    6  A    between atoms: C_22  and  C_29
REMARK                            x       y       z     vdW  Elec       q    Type
REMARK                         _______ _______ _______ _____ _____    ______ ____
ROOT
ATOM      1  N   UNL     1       7.047  -2.571   2.962  0.00  0.00    -0.291 NA
ATOM      2  C   UNL     1       6.893  -3.915   2.391  0.00  0.00    +0.104 C 
ATOM      3  C   UNL     1       8.274  -4.558   2.227  0.00  0.00    +0.124 C 
ATOM      4  N   UNL     1       8.969  -4.509   3.522  0.00  0.00    -0.283 N 
ATOM      5  C   UNL     1       9.044  -3.218   4.223  0.00  0.00    +0.124 C 
ATOM      6  C   UNL     1       7.632  -2.628   4.309  0.00  0.00    +0.104 C 
ATOM      7  C   UNL     1       9.524  -5.617   4.053  0.00  0.00    +0.307 C 
ATOM      8  O   UNL     1       9.372  -6.693   3.508  0.00  0.00    -0.252 OA
ATOM      9  N   UNL     1      10.246  -5.532   5.187  0.00  0.00    -0.263 N 
ATOM     10  H   UNL     1      10.306  -4.688   5.662  0.00  0.00    +0.157 HD
ENDROOT
BRANCH   9  11
ATOM     11  C   UNL     1      10.903  -6.652   5.677  0.00  0.00    +0.091 A 
ATOM     12  C   UNL     1      11.677  -6.753   6.817  0.00  0.00    +0.084 A 
ATOM     13  C   UNL     1      12.266  -8.057   7.115  0.00  0.00    -0.018 A 
ATOM     14  C   UNL     1      11.968  -9.012   6.215  0.00  0.00    -0.004 A 
ATOM     15  S   UNL     1      10.934  -8.197   5.025  0.00  0.00    -0.077 S 
ATOM     16  C   UNL     1      12.601 -10.331   6.567  0.00  0.00    +0.043 C 
ATOM     17  C   UNL     1      13.698  -9.976   7.594  0.00  0.00    +0.010 C 
ATOM     18  C   UNL     1      13.152  -8.667   8.199  0.00  0.00    +0.037 C 
BRANCH  12  19
ATOM     19  C   UNL     1      11.895  -5.624   7.671  0.00  0.00    +0.102 C 
ATOM     20  N   UNL     1      12.068  -4.729   8.349  0.00  0.00    -0.191 NA
ENDBRANCH  12  19
ENDBRANCH   9  11
BRANCH   1  21
ATOM     21  C   UNL     1       5.764  -1.855   2.976  0.00  0.00    +0.180 C 
BRANCH  21  23
ATOM     22  N   UNL     1       4.156  -0.954   1.326  0.00  0.00    -0.310 N 
ATOM     23  C   UNL     1       5.315  -1.601   1.560  0.00  0.00    +0.227 C 
ATOM     24  O   UNL     1       5.997  -1.980   0.631  0.00  0.00    -0.274 OA
ATOM     25  H   UNL     1       3.611  -0.651   2.069  0.00  0.00    +0.149 HD
BRANCH  22  26
ATOM     26  C   UNL     1       3.720  -0.708  -0.050  0.00  0.00    +0.139 C 
BRANCH  26  30
ATOM     27  C   UNL     1      -0.010   1.374  -0.013  0.00  0.00    +0.000 A 
ATOM     28  C   UNL     1       1.177   2.083  -0.015  0.00  0.00    +0.000 A 
ATOM     29  C   UNL     1       2.384   1.409  -0.028  0.00  0.00    +0.005 A 
ATOM     30  C   UNL     1       2.404   0.027  -0.036  0.00  0.00    -0.030 A 
ATOM     31  C   UNL     1       1.217  -0.682  -0.032  0.00  0.00    +0.005 A 
ATOM     32  C   UNL     1       0.010  -0.008  -0.022  0.00  0.00    +0.000 A 
ENDBRANCH  26  30
ENDBRANCH  22  26
ENDBRANCH  21  23
ENDBRANCH   1  21
TORSDOF 6
