REMARK  Name = ZINC09198365
REMARK  9 active torsions:
REMARK  status: ('A' for Active; 'I' for Inactive)
REMARK    1  A    between atoms: C_1  and  C_2
REMARK    2  A    between atoms: C_2  and  N_3
REMARK    3  A    between atoms: C_7  and  S_28
REMARK    4  A    between atoms: C_11  and  C_12
REMARK    5  A    between atoms: C_12  and  N_61
REMARK    6  A    between atoms: C_20  and  C_22
REMARK    7  A    between atoms: S_28  and  N_31
REMARK    8  A    between atoms: N_31  and  C_32
REMARK    9  A    between atoms: N_31  and  C_33
REMARK                            x       y       z     vdW  Elec       q    Type
REMARK                         _______ _______ _______ _____ _____    ______ ____
ROOT
ATOM      1  N   UNL     1      -2.933   0.580  -1.211  0.00  0.00    -0.329 N 
ATOM      2  C   UNL     1      -4.242   0.714  -0.796  0.00  0.00    +0.069 A 
ATOM      3  C   UNL     1      -5.370  -0.091  -0.878  0.00  0.00    +0.030 A 
ATOM      4  C   UNL     1      -6.566   0.351  -0.354  0.00  0.00    +0.030 A 
ATOM      5  C   UNL     1      -6.648   1.596   0.255  0.00  0.00    +0.108 A 
ATOM      6  C   UNL     1      -5.549   2.402   0.345  0.00  0.00    +0.058 A 
ATOM      7  C   UNL     1      -4.327   1.974  -0.179  0.00  0.00    +0.091 A 
ATOM      8  N   UNL     1      -3.089   2.529  -0.243  0.00  0.00    -0.234 NA
ATOM      9  C   UNL     1      -2.274   1.712  -0.844  0.00  0.00    +0.094 A 
ENDROOT
BRANCH   5  10
ATOM     10  S   UNL     1      -8.187   2.141   0.919  0.00  0.00    +0.060 S 
ATOM     11  O   UNL     1      -8.135   3.561   0.949  0.00  0.00    -0.153 OA
ATOM     12  O   UNL     1      -9.203   1.430   0.225  0.00  0.00    -0.153 OA
BRANCH  10  13
ATOM     13  N   UNL     1      -8.247   1.636   2.495  0.00  0.00    -0.183 NA
ATOM     14  C   UNL     1      -7.730   2.498   3.560  0.00  0.00    +0.131 C 
ATOM     15  C   UNL     1      -8.817   0.327   2.823  0.00  0.00    +0.131 C 
ENDBRANCH  10  13
ENDBRANCH   5  10
BRANCH   1  17
ATOM     16  C   UNL     1      -1.932  -1.629  -0.896  0.00  0.00    +0.027 C 
ATOM     17  C   UNL     1      -2.358  -0.570  -1.914  0.00  0.00    +0.120 C 
ENDBRANCH   1  17
BRANCH   9  18
ATOM     18  C   UNL     1      -0.814   1.984  -1.101  0.00  0.00    -0.002 C 
BRANCH  18  27
ATOM     19  C   UNL     1      -1.282   4.093  -2.196  0.00  0.00    -0.072 C 
ATOM     20  C   UNL     1      -1.478   4.701  -3.595  0.00  0.00    +0.024 C 
ATOM     21  C   UNL     1      -0.209   4.505  -4.358  0.00  0.00    -0.010 A 
ATOM     22  C   UNL     1       0.824   3.682  -4.022  0.00  0.00    -0.047 A 
ATOM     23  C   UNL     1       1.913   3.664  -4.890  0.00  0.00    +0.010 A 
ATOM     24  C   UNL     1       1.907   4.439  -6.000  0.00  0.00    +0.045 A 
ATOM     25  S   UNL     1       0.321   5.253  -5.873  0.00  0.00    -0.101 S 
ATOM     26  C   UNL     1       0.736   2.844  -2.750  0.00  0.00    -0.005 C 
ATOM     27  N   UNL     1      -0.691   2.743  -2.361  0.00  0.00    +0.392 N 
ATOM     28  H   UNL     1      -1.201   2.247  -3.100  0.00  0.00    -0.080 HD
BRANCH  26  29
ATOM     29  C   UNL     1       1.264   1.458  -3.020  0.00  0.00    -0.057 A 
ATOM     30  C   UNL     1       0.467   0.527  -3.659  0.00  0.00    +0.002 A 
ATOM     31  C   UNL     1       0.953  -0.742  -3.910  0.00  0.00    +0.000 A 
ATOM     32  C   UNL     1       2.232  -1.084  -3.514  0.00  0.00    +0.000 A 
ATOM     33  C   UNL     1       3.027  -0.154  -2.870  0.00  0.00    +0.000 A 
ATOM     34  C   UNL     1       2.543   1.117  -2.623  0.00  0.00    +0.002 A 
ENDBRANCH  26  29
ENDBRANCH  18  27
ENDBRANCH   9  18
TORSDOF 6
