REMARK  Name = ZINC06999232
REMARK  8 active torsions:
REMARK  status: ('A' for Active; 'I' for Inactive)
REMARK    1  A    between atoms: C_1  and  C_2
REMARK    2  A    between atoms: C_2  and  O_3
REMARK    3  A    between atoms: O_3  and  C_4
REMARK    4  A    between atoms: C_4  and  C_6
REMARK    5  A    between atoms: C_12  and  N_13
REMARK    6  A    between atoms: C_12  and  N_49
REMARK    7  A    between atoms: N_16  and  C_26
REMARK    8  A    between atoms: C_17  and  C_19
REMARK                            x       y       z     vdW  Elec       q    Type
REMARK                         _______ _______ _______ _____ _____    ______ ____
ROOT
ATOM      1  N   UNL     1      -3.417   2.609   0.278  0.00  0.00    -0.257 N 
ATOM      2  C   UNL     1      -2.751   3.772   0.131  0.00  0.00    +0.176 A 
ATOM      3  S   UNL     1      -3.412   5.343   0.295  0.00  0.00    -0.011 S 
ATOM      4  N   UNL     1      -1.469   3.475  -0.161  0.00  0.00    -0.306 N 
ATOM      5  C   UNL     1      -1.342   2.101  -0.206  0.00  0.00    +0.163 A 
ATOM      6  N   UNL     1      -2.503   1.569   0.059  0.00  0.00    -0.152 NA
ATOM      7  C   UNL     1      -0.395   4.444  -0.396  0.00  0.00    +0.153 C 
ENDROOT
BRANCH   5   8
ATOM      8  C   UNL     1      -0.097   1.357  -0.499  0.00  0.00    +0.019 A 
ATOM      9  C   UNL     1       0.956   1.988  -1.160  0.00  0.00    +0.013 A 
ATOM     10  C   UNL     1       2.113   1.288  -1.436  0.00  0.00    +0.021 A 
ATOM     11  C   UNL     1       2.228  -0.039  -1.058  0.00  0.00    +0.041 A 
ATOM     12  C   UNL     1       1.186  -0.670  -0.401  0.00  0.00    +0.021 A 
ATOM     13  C   UNL     1       0.025   0.020  -0.120  0.00  0.00    +0.013 A 
ATOM     14 CL   UNL     1       3.687  -0.913  -1.408  0.00  0.00    -0.084 Cl
ENDBRANCH   5   8
BRANCH   1  15
ATOM     15  C   UNL     1      -4.837   2.459   0.605  0.00  0.00    +0.072 C 
BRANCH  15  21
ATOM     16  C   UNL     1      -6.560   2.278   3.948  0.00  0.00    +0.081 C 
ATOM     17  C   UNL     1      -5.750   3.346   4.686  0.00  0.00    +0.011 C 
ATOM     18  C   UNL     1      -4.287   3.264   4.242  0.00  0.00    -0.018 C 
ATOM     19  C   UNL     1      -4.210   3.446   2.724  0.00  0.00    -0.076 C 
ATOM     20  C   UNL     1      -6.417   2.488   2.439  0.00  0.00    -0.062 C 
ATOM     21  N   UNL     1      -4.989   2.373   2.072  0.00  0.00    +0.393 N 
ATOM     22  H   UNL     1      -4.636   1.463   2.391  0.00  0.00    -0.079 HD
BRANCH  16  23
ATOM     23  C   UNL     1      -8.012   2.389   4.335  0.00  0.00    +0.308 C 
ATOM     24  O   UNL     1      -8.848   2.613   3.492  0.00  0.00    -0.251 OA
BRANCH  23  25
ATOM     25  O   UNL     1      -8.378   2.238   5.618  0.00  0.00    -0.465 OA
BRANCH  25  27
ATOM     26  C   UNL     1     -10.015   2.158   7.419  0.00  0.00    +0.048 C 
ATOM     27  C   UNL     1      -9.794   2.358   5.919  0.00  0.00    +0.229 C 
ENDBRANCH  25  27
ENDBRANCH  23  25
ENDBRANCH  16  23
ENDBRANCH  15  21
ENDBRANCH   1  15
TORSDOF 6
