REMARK  Name = ZINC05445441
REMARK  2 active torsions:
REMARK  status: ('A' for Active; 'I' for Inactive)
REMARK    1  A    between atoms: N_10  and  N_11
REMARK    2  A    between atoms: C_12  and  C_13
REMARK                            x       y       z     vdW  Elec       q    Type
REMARK                         _______ _______ _______ _____ _____    ______ ____
ROOT
ATOM      1  N   UNL     1       0.002  -0.004   0.002  0.00  0.00    -0.187 NA
ATOM      2  C   UNL     1       1.138  -0.640  -0.012  0.00  0.00    +0.159 C 
ENDROOT
BRANCH   1  12
ATOM      3  C   UNL     1      -4.378   5.619   0.052  0.00  0.00    +0.002 A 
ATOM      4  C   UNL     1      -5.392   4.672   0.052  0.00  0.00    +0.001 A 
ATOM      5  C   UNL     1      -5.063   3.329   0.044  0.00  0.00    +0.017 A 
ATOM      6  C   UNL     1      -3.743   2.954   0.036  0.00  0.00    +0.041 A 
ATOM      7  C   UNL     1      -2.684   3.890   0.036  0.00  0.00    +0.080 A 
ATOM      8  C   UNL     1      -3.057   5.254   0.045  0.00  0.00    +0.029 A 
ATOM      9  N   UNL     1      -1.440   3.366   0.027  0.00  0.00    -0.224 NA
ATOM     10  C   UNL     1      -1.220   2.070   0.019  0.00  0.00    +0.179 A 
ATOM     11  S   UNL     1      -2.878   1.402   0.015  0.00  0.00    -0.051 S 
ATOM     12  N   UNL     1      -0.017   1.397   0.010  0.00  0.00    -0.215 N 
ATOM     13  H   UNL     1       0.816   1.893   0.004  0.00  0.00    +0.176 HD
ENDBRANCH   1  12
BRANCH   2  14
ATOM     14  C   UNL     1       1.158  -2.104  -0.020  0.00  0.00    +0.104 A 
ATOM     15  C   UNL     1       0.061  -2.946  -0.008  0.00  0.00    +0.157 A 
ATOM     16  N   UNL     1       0.500  -4.201  -0.024  0.00  0.00    -0.216 NA
ATOM     17  C   UNL     1       1.829  -4.210  -0.037  0.00  0.00    +0.140 A 
ATOM     18  N   UNL     1       2.275  -2.914  -0.035  0.00  0.00    -0.297 N 
ATOM     19  C   UNL     1       3.610  -2.640  -0.047  0.00  0.00    +0.093 A 
ATOM     20  C   UNL     1       4.517  -3.641  -0.061  0.00  0.00    +0.018 A 
ATOM     21  C   UNL     1       4.093  -4.979  -0.063  0.00  0.00    +0.005 A 
ATOM     22  C   UNL     1       2.762  -5.265  -0.052  0.00  0.00    +0.047 A 
ATOM     23 CL   UNL     1      -1.602  -2.450   0.019  0.00  0.00    -0.060 Cl
ENDBRANCH   2  14
TORSDOF 2
