REMARK  Name = ZINC31158464
REMARK  6 active torsions:
REMARK  status: ('A' for Active; 'I' for Inactive)
REMARK    1  A    between atoms: C_1  and  C_2
REMARK    2  A    between atoms: C_4  and  O_18
REMARK    3  A    between atoms: C_9  and  C_13
REMARK    4  A    between atoms: C_13  and  C_14
REMARK    5  A    between atoms: C_14  and  C_16
REMARK    6  A    between atoms: C_14  and  O_17
REMARK                            x       y       z     vdW  Elec       q    Type
REMARK                         _______ _______ _______ _____ _____    ______ ____
ROOT
ATOM      1  C   UNL     1      -0.018   1.503   0.010  0.00  0.00    +0.044 C 
ATOM      2  C   UNL     1       0.002  -0.004   0.002  0.00  0.00    -0.039 A 
ATOM      3  C   UNL     1       0.006  -0.692  -1.192  0.00  0.00    +0.049 A 
ATOM      4  C   UNL     1       0.025  -2.085  -1.213  0.00  0.00    +0.118 A 
ATOM      5  C   UNL     1       0.042  -2.808  -0.032  0.00  0.00    +0.061 A 
ATOM      6  C   UNL     1       0.040  -2.129   1.179  0.00  0.00    +0.070 A 
ATOM      7  C   UNL     1       0.023  -0.712   1.200  0.00  0.00    -0.005 A 
ATOM      8  C   UNL     1       0.019  -0.056   2.512  0.00  0.00    +0.051 A 
ATOM      9  C   UNL     1       0.287  -0.789   3.605  0.00  0.00    +0.112 A 
ATOM     10  O   UNL     1       0.574  -2.105   3.525  0.00  0.00    -0.427 OA
ATOM     11  C   UNL     1       0.062  -2.811   2.483  0.00  0.00    +0.345 A 
ATOM     12  O   UNL     1      -0.343  -3.951   2.615  0.00  0.00    -0.245 OA
ENDROOT
BRANCH   4  13
ATOM     13  O   UNL     1       0.026  -2.740  -2.404  0.00  0.00    -0.507 OA
ATOM     14  H   UNL     1       0.909  -2.918  -2.754  0.00  0.00    +0.292 HD
ENDBRANCH   4  13
BRANCH   9  15
ATOM     15  C   UNL     1       0.268  -0.124   4.957  0.00  0.00    +0.105 C 
BRANCH  15  16
ATOM     16  C   UNL     1      -1.106  -0.320   5.602  0.00  0.00    +0.119 C 
ATOM     17  C   UNL     1      -1.087   0.245   7.024  0.00  0.00    +0.038 C 
BRANCH  16  18
ATOM     18  O   UNL     1      -2.096   0.362   4.831  0.00  0.00    -0.392 OA
ATOM     19  H   UNL     1      -2.994   0.281   5.182  0.00  0.00    +0.210 HD
ENDBRANCH  16  18
ENDBRANCH  15  16
ENDBRANCH   9  15
TORSDOF 4
