REMARK  Name = ZINC15827726
REMARK  4 active torsions:
REMARK  status: ('A' for Active; 'I' for Inactive)
REMARK    1  A    between atoms: C_1  and  C_2
REMARK    2  A    between atoms: N_5  and  S_13
REMARK    3  A    between atoms: S_13  and  C_16
REMARK    4  A    between atoms: C_19  and  C_21
REMARK                            x       y       z     vdW  Elec       q    Type
REMARK                         _______ _______ _______ _____ _____    ______ ____
ROOT
ATOM      1  S   UNL     1       1.297   6.121  -0.323  0.00  0.00    +0.081 S 
ATOM      2  O   UNL     1       2.183   5.242  -1.002  0.00  0.00    -0.149 OA
ATOM      3  O   UNL     1       0.857   7.347  -0.890  0.00  0.00    -0.149 OA
ENDROOT
BRANCH   1   7
ATOM      4  C   UNL     1      -3.795   5.564  -0.512  0.00  0.00    +0.053 C 
ATOM      5  C   UNL     1      -2.392   4.961  -0.602  0.00  0.00    +0.189 C 
ATOM      6  C   UNL     1      -1.387   5.889   0.095  0.00  0.00    +0.176 C 
ATOM      7  N   UNL     1      -0.064   5.245   0.025  0.00  0.00    -0.195 N 
ATOM      8  C   UNL     1       0.002   3.863   0.263  0.00  0.00    +0.093 A 
ATOM      9  C   UNL     1       1.227   3.256   0.490  0.00  0.00    +0.028 A 
ATOM     10  C   UNL     1       1.288   1.893   0.720  0.00  0.00    +0.002 A 
ATOM     11  C   UNL     1       0.130   1.139   0.723  0.00  0.00    +0.004 A 
ATOM     12  C   UNL     1      -1.094   1.739   0.492  0.00  0.00    +0.047 A 
ATOM     13  C   UNL     1      -1.166   3.106   0.268  0.00  0.00    +0.143 A 
ATOM     14  O   UNL     1      -2.374   3.689   0.051  0.00  0.00    -0.486 OA
ENDBRANCH   1   7
BRANCH   1  15
ATOM     15  C   UNL     1       2.064   6.523   1.212  0.00  0.00    +0.147 A 
ATOM     16  C   UNL     1       2.994   5.822   1.911  0.00  0.00    +0.037 A 
ATOM     17  C   UNL     1       3.465   6.333   3.100  0.00  0.00    +0.020 A 
ATOM     18  C   UNL     1       2.968   7.529   3.546  0.00  0.00    +0.041 A 
ATOM     19  S   UNL     1       1.813   7.952   2.251  0.00  0.00    -0.067 S 
BRANCH  18  20
ATOM     20  C   UNL     1       3.302   8.275   4.776  0.00  0.00    +0.098 A 
ATOM     21  C   UNL     1       2.663   9.510   5.048  0.00  0.00    +0.036 A 
ATOM     22  C   UNL     1       2.996  10.170   6.194  0.00  0.00    +0.073 A 
ATOM     23  C   UNL     1       3.961   9.580   7.041  0.00  0.00    +0.265 A 
ATOM     24  O   UNL     1       4.290  10.135   8.076  0.00  0.00    -0.266 OA
ATOM     25  N   UNL     1       4.514   8.402   6.697  0.00  0.00    -0.243 N 
ATOM     26  H   UNL     1       5.176   8.003   7.284  0.00  0.00    +0.192 HD
ATOM     27  N   UNL     1       4.186   7.789   5.618  0.00  0.00    -0.170 NA
ENDBRANCH  18  20
ENDBRANCH   1  15
TORSDOF 3
