REMARK  Name = ZINC00871807
REMARK  4 active torsions:
REMARK  status: ('A' for Active; 'I' for Inactive)
REMARK    1  A    between atoms: C_1  and  O_2
REMARK    2  A    between atoms: O_2  and  C_3
REMARK    3  A    between atoms: C_10  and  C_19
REMARK    4  A    between atoms: C_21  and  N_26
REMARK                            x       y       z     vdW  Elec       q    Type
REMARK                         _______ _______ _______ _____ _____    ______ ____
ROOT
ATOM      1  C   UNL     1      -5.750   2.151  -1.527  0.00  0.00    +0.141 A 
ATOM      2  C   UNL     1      -6.984   1.528  -1.562  0.00  0.00    +0.047 A 
ATOM      3  C   UNL     1      -7.293   0.564  -0.620  0.00  0.00    +0.004 A 
ATOM      4  C   UNL     1      -6.372   0.225   0.349  0.00  0.00    +0.006 A 
ATOM      5  C   UNL     1      -5.128   0.843   0.394  0.00  0.00    -0.016 A 
ATOM      6  C   UNL     1      -4.816   1.807  -0.544  0.00  0.00    +0.074 A 
ATOM      7  N   UNL     1      -3.584   2.467  -0.551  0.00  0.00    -0.334 N 
ATOM      8  C   UNL     1      -2.524   1.637   0.023  0.00  0.00    +0.106 C 
ATOM      9  C   UNL     1      -2.880   1.252   1.450  0.00  0.00    +0.029 C 
ATOM     10  C   UNL     1      -4.176   0.417   1.480  0.00  0.00    +0.049 C 
ATOM     11  C   UNL     1      -4.795   0.784   2.819  0.00  0.00    -0.023 C 
ATOM     12  C   UNL     1      -4.328   1.931   3.242  0.00  0.00    -0.030 C 
ATOM     13  C   UNL     1      -3.332   2.499   2.248  0.00  0.00    +0.033 C 
ATOM     14  H   UNL     1      -3.341   2.770  -1.483  0.00  0.00    +0.147 HD
ENDROOT
BRANCH   8  15
ATOM     15  C   UNL     1      -1.228   2.407   0.021  0.00  0.00    -0.007 A 
ATOM     16  C   UNL     1      -1.247   3.789   0.034  0.00  0.00    +0.039 A 
ATOM     17  C   UNL     1      -0.059   4.497   0.026  0.00  0.00    +0.127 A 
ATOM     18  C   UNL     1       1.148   3.822   0.012  0.00  0.00    +0.034 A 
ATOM     19  C   UNL     1       1.167   2.440   0.004  0.00  0.00    +0.022 A 
ATOM     20  C   UNL     1      -0.021   1.732   0.012  0.00  0.00    +0.046 A 
ATOM     21 CL   UNL     1       0.002  -0.004   0.002  0.00  0.00    -0.083 Cl
BRANCH  17  22
ATOM     22  N   UNL     1      -0.079   5.976   0.034  0.00  0.00    +0.056 N 
ATOM     23  O   UNL     1       0.967   6.600   0.028  0.00  0.00    -0.126 OA
ATOM     24  O   UNL     1      -1.142   6.571   0.047  0.00  0.00    -0.126 OA
ENDBRANCH  17  22
ENDBRANCH   8  15
BRANCH   1  26
ATOM     25  C   UNL     1      -6.442   3.403  -3.427  0.00  0.00    +0.277 C 
ATOM     26  O   UNL     1      -5.443   3.100  -2.451  0.00  0.00    -0.493 OA
ENDBRANCH   1  26
TORSDOF 3
