REMARK  Name = ZINC48802650
REMARK  7 active torsions:
REMARK  status: ('A' for Active; 'I' for Inactive)
REMARK    1  A    between atoms: C_1  and  C_2
REMARK    2  A    between atoms: C_3  and  N_11
REMARK    3  A    between atoms: C_7  and  N_8
REMARK    4  A    between atoms: C_12  and  C_14
REMARK    5  A    between atoms: N_16  and  C_17
REMARK    6  A    between atoms: C_17  and  C_19
REMARK    7  A    between atoms: C_17  and  C_20
REMARK                            x       y       z     vdW  Elec       q    Type
REMARK                         _______ _______ _______ _____ _____    ______ ____
ROOT
ATOM      1  N   UNL     1      -0.405   0.187  -2.480  0.00  0.00    -0.277 N 
ATOM      2  C   UNL     1      -0.688  -0.495  -3.607  0.00  0.00    +0.303 C 
ATOM      3  O   UNL     1      -0.657  -1.709  -3.605  0.00  0.00    -0.265 OA
ATOM      4  H   UNL     1      -0.377   1.157  -2.494  0.00  0.00    +0.155 HD
ENDROOT
BRANCH   1   7
ATOM      5  C   UNL     1      -1.254   1.372  -0.036  0.00  0.00    +0.048 C 
ATOM      6  C   UNL     1      -0.550   0.041  -0.074  0.00  0.00    +0.001 A 
ATOM      7  C   UNL     1      -0.152  -0.501  -1.290  0.00  0.00    +0.039 A 
ATOM      8  C   UNL     1       0.496  -1.729  -1.321  0.00  0.00    +0.024 A 
ATOM      9  C   UNL     1       0.744  -2.407  -0.144  0.00  0.00    +0.004 A 
ATOM     10  C   UNL     1       0.347  -1.865   1.065  0.00  0.00    +0.033 A 
ATOM     11  C   UNL     1      -0.294  -0.640   1.099  0.00  0.00    +0.131 A 
BRANCH  11  12
ATOM     12  N   UNL     1      -0.711  -0.061   2.396  0.00  0.00    +0.057 N 
ATOM     13  O   UNL     1      -0.807   1.138   2.520  0.00  0.00    -0.126 OA
ATOM     14  O   UNL     1      -0.957  -0.786   3.332  0.00  0.00    -0.126 OA
ENDBRANCH  11  12
ENDBRANCH   1   7
BRANCH   2  15
ATOM     15  C   UNL     1      -1.038   0.241  -4.858  0.00  0.00    +0.300 C 
ATOM     16  O   UNL     1      -1.069   1.454  -4.860  0.00  0.00    -0.265 OA
ATOM     17  N   UNL     1      -1.321  -0.442  -5.985  0.00  0.00    -0.301 N 
ATOM     18  H   UNL     1      -1.296  -1.412  -5.984  0.00  0.00    +0.150 HD
BRANCH  17  19
ATOM     19  C   UNL     1      -1.664   0.280  -7.213  0.00  0.00    +0.101 C 
ATOM     20  C   UNL     1      -3.159   0.606  -7.210  0.00  0.00    +0.033 C 
BRANCH  19  21
ATOM     21  C   UNL     1      -1.339  -0.578  -8.408  0.00  0.00    -0.026 A 
ATOM     22  C   UNL     1      -1.606  -1.934  -8.378  0.00  0.00    +0.007 A 
ATOM     23  C   UNL     1      -1.308  -2.722  -9.474  0.00  0.00    +0.022 A 
ATOM     24  C   UNL     1      -0.742  -2.154 -10.601  0.00  0.00    +0.059 A 
ATOM     25  C   UNL     1      -0.476  -0.796 -10.631  0.00  0.00    +0.060 A 
ATOM     26  C   UNL     1      -0.780  -0.007  -9.536  0.00  0.00    +0.027 A 
ATOM     27 CL   UNL     1       0.234  -0.081 -12.045  0.00  0.00    -0.082 Cl
ATOM     28 CL   UNL     1      -0.367  -3.143 -11.977  0.00  0.00    -0.082 Cl
ENDBRANCH  19  21
ENDBRANCH  17  19
ENDBRANCH   2  15
TORSDOF 5
