REMARK  Name = ZINC64790501
REMARK  6 active torsions:
REMARK  status: ('A' for Active; 'I' for Inactive)
REMARK    1  A    between atoms: C_1  and  C_2
REMARK    2  A    between atoms: C_5  and  C_8
REMARK    3  A    between atoms: C_10  and  C_24
REMARK    4  A    between atoms: C_18  and  C_20
REMARK    5  A    between atoms: C_20  and  C_21
REMARK    6  A    between atoms: C_20  and  C_22
REMARK                            x       y       z     vdW  Elec       q    Type
REMARK                         _______ _______ _______ _____ _____    ______ ____
ROOT
ATOM      1  C   UNL     1       0.058  -4.245  -0.021  0.00  0.00    +0.055 C 
ATOM      2  C   UNL     1       0.068  -4.973   1.293  0.00  0.00    +0.087 C 
ATOM      3  C   UNL     1      -0.703  -6.295   1.201  0.00  0.00    +0.147 C 
ATOM      4  N   UNL     1      -0.355  -6.935  -0.068  0.00  0.00    -0.220 N 
ATOM      5  C   UNL     1      -0.005  -6.223  -1.181  0.00  0.00    +0.251 A 
ATOM      6  N   UNL     1       0.229  -7.082  -2.144  0.00  0.00    -0.176 NA
ATOM      7  C   UNL     1       0.051  -8.326  -1.688  0.00  0.00    +0.242 A 
ATOM      8  N   UNL     1      -0.305  -8.280  -0.420  0.00  0.00    -0.131 NA
ATOM      9  N   UNL     1       0.215  -9.494  -2.439  0.00  0.00    -0.253 N 
ATOM     10  C   UNL     1       0.583  -9.417  -3.733  0.00  0.00    +0.222 C 
ATOM     11  O   UNL     1       0.771  -8.334  -4.246  0.00  0.00    -0.275 OA
ATOM     12  N   UNL     1       0.060  -4.865  -1.170  0.00  0.00    -0.215 NA
ATOM     13  H   UNL     1       0.065 -10.360  -2.028  0.00  0.00    +0.158 HD
ENDROOT
BRANCH   1  18
ATOM     14  C   UNL     1      -0.018   1.503   0.010  0.00  0.00    +0.044 C 
ATOM     15  C   UNL     1       0.002  -0.004   0.002  0.00  0.00    -0.050 A 
ATOM     16  C   UNL     1       0.006  -0.686  -1.202  0.00  0.00    +0.004 A 
ATOM     17  C   UNL     1       0.024  -2.064  -1.218  0.00  0.00    +0.010 A 
ATOM     18  C   UNL     1       0.039  -2.774  -0.013  0.00  0.00    -0.004 A 
ATOM     19  C   UNL     1       0.036  -2.078   1.200  0.00  0.00    +0.010 A 
ATOM     20  C   UNL     1       0.023  -0.699   1.199  0.00  0.00    +0.004 A 
ENDBRANCH   1  18
BRANCH   3  21
ATOM     21  C   UNL     1      -2.185  -6.024   1.246  0.00  0.00    -0.023 A 
ATOM     22  C   UNL     1      -2.773  -5.235   0.275  0.00  0.00    +0.007 A 
ATOM     23  C   UNL     1      -4.132  -4.987   0.316  0.00  0.00    +0.020 A 
ATOM     24  C   UNL     1      -4.904  -5.527   1.329  0.00  0.00    +0.041 A 
ATOM     25  C   UNL     1      -4.314  -6.316   2.301  0.00  0.00    +0.020 A 
ATOM     26  C   UNL     1      -2.956  -6.569   2.256  0.00  0.00    +0.007 A 
ATOM     27 CL   UNL     1      -6.610  -5.214   1.381  0.00  0.00    -0.084 Cl
ENDBRANCH   3  21
BRANCH  10  28
ATOM     28  C   UNL     1       0.761 -10.675  -4.543  0.00  0.00    +0.069 C 
ATOM     29  C   UNL     1      -0.559 -11.449  -4.579  0.00  0.00    +0.017 C 
ATOM     30  C   UNL     1       1.177 -10.310  -5.969  0.00  0.00    +0.017 C 
ENDBRANCH  10  28
TORSDOF 3
