REMARK  Name = ZINC25501715
REMARK  4 active torsions:
REMARK  status: ('A' for Active; 'I' for Inactive)
REMARK    1  A    between atoms: C_1  and  O_2
REMARK    2  A    between atoms: O_2  and  C_3
REMARK    3  A    between atoms: C_4  and  O_14
REMARK    4  A    between atoms: C_8  and  N_9
REMARK                            x       y       z     vdW  Elec       q    Type
REMARK                         _______ _______ _______ _____ _____    ______ ____
ROOT
ATOM      1  C   UNL     1       0.023  -0.708   1.203  0.00  0.00    +0.193 A 
ATOM      2  C   UNL     1       0.002  -0.004   0.002  0.00  0.00    +0.162 A 
ATOM      3  C   UNL     1      -0.006  -0.691  -1.200  0.00  0.00    +0.065 A 
ATOM      4  C   UNL     1       0.019  -2.075  -1.207  0.00  0.00    +0.038 A 
ATOM      5  C   UNL     1       0.040  -2.774  -0.013  0.00  0.00    +0.066 A 
ATOM      6  C   UNL     1       0.042  -2.093   1.191  0.00  0.00    +0.186 A 
ATOM      7 BR   UNL     1       0.065  -4.665  -0.027  0.00  0.00    -0.047 Br
ATOM      8 BR   UNL     1       0.017  -3.011  -2.849  0.00  0.00    -0.049 Br
ENDROOT
BRANCH   6   9
ATOM      9  N   UNL     1       0.065  -2.843   2.466  0.00  0.00    +0.061 N 
ATOM     10  O   UNL     1      -0.981  -3.167   3.002  0.00  0.00    -0.126 OA
ATOM     11  O   UNL     1       1.129  -3.138   2.981  0.00  0.00    -0.126 OA
ENDBRANCH   6   9
BRANCH   1  13
ATOM     12  C   UNL     1      -1.248   0.266   2.962  0.00  0.00    +0.277 C 
ATOM     13  O   UNL     1       0.025  -0.036   2.386  0.00  0.00    -0.489 OA
ENDBRANCH   1  13
BRANCH   2  14
ATOM     14  O   UNL     1      -0.016   1.356   0.009  0.00  0.00    -0.503 OA
ATOM     15  H   UNL     1      -0.033   1.911  -0.940  0.00  0.00    +0.292 HD
ENDBRANCH   2  14
TORSDOF 3
