REMARK  Name = ZINC03527389
REMARK  2 active torsions:
REMARK  status: ('A' for Active; 'I' for Inactive)
REMARK    1  A    between atoms: C_4  and  C_8
REMARK    2  A    between atoms: N_9  and  N_10
REMARK                            x       y       z     vdW  Elec       q    Type
REMARK                         _______ _______ _______ _____ _____    ______ ____
ROOT
ATOM      1  N   UNL     1      -2.532   4.098   0.142  0.00  0.00    -0.109 N 
ATOM      2  C   UNL     1      -2.649   5.442   0.159  0.00  0.00    +0.266 C 
ATOM      3  O   UNL     1      -1.755   6.257   0.080  0.00  0.00    -0.271 OA
ATOM      4  C   UNL     1      -4.129   5.717   0.296  0.00  0.00    +0.114 C 
ATOM      5  C   UNL     1      -4.640   6.492  -0.913  0.00  0.00    +0.035 C 
ATOM      6  C   UNL     1      -6.144   6.735  -0.768  0.00  0.00    +0.003 C 
ATOM      7  C   UNL     1      -6.411   7.526   0.515  0.00  0.00    +0.000 C 
ATOM      8  C   UNL     1      -5.915   6.725   1.720  0.00  0.00    +0.003 C 
ATOM      9  C   UNL     1      -4.410   6.481   1.586  0.00  0.00    +0.035 C 
ATOM     10  N   UNL     1      -4.737   4.381   0.347  0.00  0.00    -0.283 N 
ATOM     11  C   UNL     1      -3.725   3.498   0.244  0.00  0.00    +0.330 C 
ATOM     12  O   UNL     1      -3.877   2.292   0.246  0.00  0.00    -0.250 OA
ATOM     13  H   UNL     1      -5.681   4.175   0.433  0.00  0.00    +0.151 HD
ENDROOT
BRANCH   1  15
ATOM     14  C   UNL     1      -0.197   4.074   0.034  0.00  0.00    +0.143 C 
ATOM     15  N   UNL     1      -1.315   3.415   0.027  0.00  0.00    -0.176 NA
BRANCH  14  19
ATOM     16  C   UNL     1       3.501   1.988   0.020  0.00  0.00    +0.004 A 
ATOM     17  C   UNL     1       2.312   1.280   0.012  0.00  0.00    +0.039 A 
ATOM     18  C   UNL     1       1.105   1.951   0.015  0.00  0.00    +0.133 A 
ATOM     19  C   UNL     1       1.086   3.350   0.025  0.00  0.00    +0.048 A 
ATOM     20  C   UNL     1       2.292   4.057   0.032  0.00  0.00    +0.052 A 
ATOM     21  C   UNL     1       3.491   3.372   0.029  0.00  0.00    +0.021 A 
ATOM     22 CL   UNL     1       2.283   5.793   0.043  0.00  0.00    -0.083 Cl
ATOM     23  F   UNL     1      -0.055   1.258   0.009  0.00  0.00    -0.205 F 
ENDBRANCH  14  19
ENDBRANCH   1  15
TORSDOF 2
