REMARK  Name = ZINC40617349
REMARK  4 active torsions:
REMARK  status: ('A' for Active; 'I' for Inactive)
REMARK    1  A    between atoms: C_1  and  C_2
REMARK    2  A    between atoms: C_5  and  N_15
REMARK    3  A    between atoms: C_7  and  N_8
REMARK    4  A    between atoms: N_18  and  C_19
REMARK                            x       y       z     vdW  Elec       q    Type
REMARK                         _______ _______ _______ _____ _____    ______ ____
ROOT
ATOM      1  C   UNL     1       0.719   1.483   0.412  0.00  0.00    +0.046 C 
ATOM      2  C   UNL     1       0.579  -0.015   0.320  0.00  0.00    -0.028 A 
ATOM      3  C   UNL     1       0.254  -0.604  -0.887  0.00  0.00    +0.007 A 
ATOM      4  C   UNL     1       0.125  -1.977  -0.976  0.00  0.00    +0.024 A 
ATOM      5  C   UNL     1       0.321  -2.769   0.149  0.00  0.00    +0.037 A 
ATOM      6  C   UNL     1       0.648  -2.180   1.362  0.00  0.00    +0.048 A 
ATOM      7  C   UNL     1       0.782  -0.801   1.447  0.00  0.00    +0.056 A 
ENDROOT
BRANCH   7   8
ATOM      8  N   UNL     1       1.116  -0.205   2.665  0.00  0.00    -0.207 N 
ATOM      9  C   UNL     1       2.469  -0.003   3.214  0.00  0.00    +0.133 C 
ATOM     10  C   UNL     1       2.511   1.241   4.122  0.00  0.00    +0.045 C 
ATOM     11  C   UNL     1       1.246   1.126   5.024  0.00  0.00    +0.190 C 
ATOM     12  S   UNL     1       0.060   0.433   3.800  0.00  0.00    +0.046 S 
ATOM     13  O   UNL     1      -0.637   1.473   3.127  0.00  0.00    -0.155 OA
ATOM     14  O   UNL     1      -0.630  -0.683   4.347  0.00  0.00    -0.155 OA
ENDBRANCH   7   8
BRANCH   5  15
ATOM     15  N   UNL     1       0.189  -4.159   0.058  0.00  0.00    -0.269 N 
ATOM     16  C   UNL     1      -0.283  -4.861   1.107  0.00  0.00    +0.308 C 
ATOM     17  O   UNL     1      -0.682  -4.280   2.098  0.00  0.00    -0.252 OA
ATOM     18  N   UNL     1      -0.313  -6.208   1.058  0.00  0.00    -0.269 N 
ATOM     19  H   UNL     1       0.437  -4.617  -0.760  0.00  0.00    +0.156 HD
ATOM     20  H   UNL     1       0.074  -6.674   0.301  0.00  0.00    +0.156 HD
BRANCH  18  21
ATOM     21  C   UNL     1      -0.902  -6.933   2.101  0.00  0.00    +0.035 A 
ATOM     22  C   UNL     1      -1.992  -6.410   2.783  0.00  0.00    +0.025 A 
ATOM     23  C   UNL     1      -2.572  -7.127   3.811  0.00  0.00    +0.022 A 
ATOM     24  C   UNL     1      -2.067  -8.367   4.161  0.00  0.00    +0.041 A 
ATOM     25  C   UNL     1      -0.980  -8.891   3.483  0.00  0.00    +0.022 A 
ATOM     26  C   UNL     1      -0.400  -8.180   2.451  0.00  0.00    +0.025 A 
ATOM     27 CL   UNL     1      -2.797  -9.266   5.454  0.00  0.00    -0.084 Cl
ENDBRANCH  18  21
ENDBRANCH   5  15
TORSDOF 3
