REMARK  Name = ZINC38732514
REMARK  5 active torsions:
REMARK  status: ('A' for Active; 'I' for Inactive)
REMARK    1  A    between atoms: C_1  and  C_2
REMARK    2  A    between atoms: C_2  and  C_4
REMARK    3  A    between atoms: C_2  and  N_14
REMARK    4  A    between atoms: C_15  and  C_17
REMARK    5  A    between atoms: C_23  and  C_25
REMARK                            x       y       z     vdW  Elec       q    Type
REMARK                         _______ _______ _______ _____ _____    ______ ____
ROOT
ATOM      1  C   UNL     1       0.301  -1.889  -3.232  0.00  0.00    +0.087 C 
ATOM      2  C   UNL     1       0.298  -3.419  -3.229  0.00  0.00    +0.013 C 
ATOM      3  C   UNL     1       1.119  -3.932  -4.414  0.00  0.00    +0.001 C 
ATOM      4  C   UNL     1       0.503  -3.423  -5.719  0.00  0.00    +0.001 C 
ATOM      5  C   UNL     1       0.506  -1.893  -5.722  0.00  0.00    +0.013 C 
ATOM      6  C   UNL     1      -0.314  -1.380  -4.537  0.00  0.00    +0.087 C 
ENDROOT
BRANCH   6   7
ATOM      7  C   UNL     1      -1.731  -1.880  -4.653  0.00  0.00    +0.219 C 
ATOM      8  O   UNL     1      -2.109  -2.799  -3.957  0.00  0.00    -0.275 OA
ATOM      9  N   UNL     1      -2.579  -1.306  -5.529  0.00  0.00    -0.298 N 
ATOM     10  C   UNL     1      -2.162  -0.137  -6.317  0.00  0.00    +0.126 C 
ATOM     11  C   UNL     1      -2.367  -0.451  -7.804  0.00  0.00    +0.125 C 
ATOM     12  N   UNL     1      -3.724  -0.982  -7.990  0.00  0.00    -0.314 N 
ATOM     13  C   UNL     1      -4.141  -2.151  -7.202  0.00  0.00    +0.125 C 
ATOM     14  C   UNL     1      -3.935  -1.840  -5.719  0.00  0.00    +0.126 C 
ATOM     15  C   UNL     1      -4.598  -0.390  -8.894  0.00  0.00    +0.099 A 
ATOM     16  C   UNL     1      -4.143   0.625  -9.729  0.00  0.00    +0.042 A 
ATOM     17  C   UNL     1      -5.024   1.206 -10.624  0.00  0.00    +0.005 A 
ATOM     18  C   UNL     1      -6.335   0.750 -10.653  0.00  0.00    +0.018 A 
ATOM     19  C   UNL     1      -6.719  -0.261  -9.796  0.00  0.00    +0.084 A 
ATOM     20  N   UNL     1      -5.856  -0.801  -8.956  0.00  0.00    -0.350 N 
ATOM     21  H   UNL     1      -6.150  -1.512  -8.367  0.00  0.00    +0.166 HD
ENDBRANCH   6   7
BRANCH   1  23
ATOM     22  N   UNL     1      -0.149  -1.708  -0.806  0.00  0.00    -0.308 N 
ATOM     23  C   UNL     1      -0.507  -1.383  -2.064  0.00  0.00    +0.217 C 
ATOM     24  O   UNL     1      -1.480  -0.684  -2.257  0.00  0.00    -0.275 OA
ATOM     25  H   UNL     1       0.628  -2.266  -0.652  0.00  0.00    +0.149 HD
BRANCH  22  27
ATOM     26  C   UNL     1      -0.478   0.198   0.691  0.00  0.00    +0.033 C 
ATOM     27  C   UNL     1      -0.935  -1.216   0.329  0.00  0.00    +0.101 C 
BRANCH  27  28
ATOM     28  C   UNL     1      -0.734  -2.128   1.511  0.00  0.00    -0.020 A 
ATOM     29  C   UNL     1       0.434  -2.812   1.657  0.00  0.00    +0.006 A 
ATOM     30  C   UNL     1       0.638  -3.660   2.744  0.00  0.00    +0.001 A 
ATOM     31  C   UNL     1      -0.324  -3.828   3.692  0.00  0.00    +0.008 A 
ATOM     32  C   UNL     1      -1.543  -3.138   3.576  0.00  0.00    -0.018 A 
ATOM     33  C   UNL     1      -1.748  -2.271   2.473  0.00  0.00    -0.013 A 
ATOM     34  C   UNL     1      -2.965  -1.576   2.360  0.00  0.00    +0.009 A 
ATOM     35  C   UNL     1      -3.924  -1.740   3.311  0.00  0.00    +0.001 A 
ATOM     36  C   UNL     1      -3.720  -2.588   4.399  0.00  0.00    +0.001 A 
ATOM     37  C   UNL     1      -2.560  -3.287   4.534  0.00  0.00    +0.008 A 
ENDBRANCH  27  28
ENDBRANCH  22  27
ENDBRANCH   1  23
TORSDOF 4
