REMARK  Name = ZINC67041914
REMARK  8 active torsions:
REMARK  status: ('A' for Active; 'I' for Inactive)
REMARK    1  A    between atoms: C_1  and  C_2
REMARK    2  A    between atoms: C_6  and  C_7
REMARK    3  A    between atoms: N_9  and  N_10
REMARK    4  A    between atoms: N_13  and  C_14
REMARK    5  A    between atoms: C_14  and  C_16
REMARK    6  A    between atoms: C_14  and  C_17
REMARK    7  A    between atoms: C_23  and  O_26
REMARK    8  A    between atoms: O_26  and  C_27
REMARK                            x       y       z     vdW  Elec       q    Type
REMARK                         _______ _______ _______ _____ _____    ______ ____
ROOT
ATOM      1  N   UNL     1       0.058  -0.732   4.900  0.00  0.00    -0.218 N 
ATOM      2  C   UNL     1       0.080  -1.625   5.909  0.00  0.00    +0.317 C 
ATOM      3  O   UNL     1       0.086  -1.239   7.062  0.00  0.00    -0.251 OA
ATOM      4  N   UNL     1       0.096  -2.945   5.640  0.00  0.00    -0.289 N 
ATOM      5  H   UNL     1       0.047   0.219   5.094  0.00  0.00    +0.174 HD
ATOM      6  H   UNL     1       0.091  -3.253   4.720  0.00  0.00    +0.151 HD
ENDROOT
BRANCH   1   9
ATOM      7  C   UNL     1       0.030  -0.283   2.562  0.00  0.00    +0.267 C 
ATOM      8  O   UNL     1       0.016   0.910   2.805  0.00  0.00    -0.268 OA
ATOM      9  N   UNL     1       0.052  -1.176   3.571  0.00  0.00    -0.229 N 
ATOM     10  H   UNL     1       0.063  -2.126   3.378  0.00  0.00    +0.173 HD
BRANCH   7  16
ATOM     11  C   UNL     1      -0.018   1.503   0.010  0.00  0.00    +0.045 C 
ATOM     12  C   UNL     1       0.002  -0.004   0.002  0.00  0.00    -0.031 A 
ATOM     13  C   UNL     1       0.007  -0.729  -1.166  0.00  0.00    +0.011 A 
ATOM     14  C   UNL     1       0.026  -2.083  -1.101  0.00  0.00    +0.046 A 
ATOM     15  S   UNL     1       0.038  -2.416   0.545  0.00  0.00    -0.092 S 
ATOM     16  C   UNL     1       0.023  -0.748   1.172  0.00  0.00    +0.078 A 
ENDBRANCH   7  16
ENDBRANCH   1   9
BRANCH   4  17
ATOM     17  C   UNL     1       0.119  -3.916   6.737  0.00  0.00    +0.137 C 
ATOM     18  C   UNL     1      -1.310  -4.179   7.216  0.00  0.00    +0.036 C 
BRANCH  17  19
ATOM     19  C   UNL     1       0.733  -5.205   6.254  0.00  0.00    +0.126 A 
ATOM     20  C   UNL     1       1.573  -5.969   6.965  0.00  0.00    +0.055 A 
ATOM     21  C   UNL     1       1.912  -7.112   6.109  0.00  0.00    +0.024 A 
ATOM     22  C   UNL     1       2.723  -8.237   6.261  0.00  0.00    +0.012 A 
ATOM     23  C   UNL     1       2.828  -9.142   5.241  0.00  0.00    +0.004 A 
ATOM     24  C   UNL     1       2.135  -8.948   4.055  0.00  0.00    +0.049 A 
ATOM     25  C   UNL     1       1.327  -7.839   3.884  0.00  0.00    +0.163 A 
ATOM     26  C   UNL     1       1.207  -6.907   4.913  0.00  0.00    +0.177 A 
ATOM     27  O   UNL     1       0.512  -5.759   5.049  0.00  0.00    -0.454 OA
BRANCH  25  28
ATOM     28  O   UNL     1       0.653  -7.659   2.717  0.00  0.00    -0.491 OA
ATOM     29  C   UNL     1       0.824  -8.656   1.708  0.00  0.00    +0.277 C 
ENDBRANCH  25  28
ENDBRANCH  17  19
ENDBRANCH   4  17
TORSDOF 5
