REMARK  Name = ZINC03072357
REMARK  3 active torsions:
REMARK  status: ('A' for Active; 'I' for Inactive)
REMARK    1  A    between atoms: C_4  and  N_7
REMARK    2  A    between atoms: C_11  and  C_12
REMARK    3  A    between atoms: N_24  and  C_27
REMARK                            x       y       z     vdW  Elec       q    Type
REMARK                         _______ _______ _______ _____ _____    ______ ____
ROOT
ATOM      1  N   UNL     1       3.613  -0.496   0.803  0.00  0.00    -0.189 N 
ATOM      2  C   UNL     1       4.660   0.077   0.174  0.00  0.00    +0.264 C 
ATOM      3  O   UNL     1       4.609   1.236  -0.193  0.00  0.00    -0.269 OA
ATOM      4  C   UNL     1       5.867  -0.739  -0.056  0.00  0.00    +0.101 C 
ATOM      5  C   UNL     1       6.980  -0.220  -0.694  0.00  0.00    +0.026 C 
ATOM      6  C   UNL     1       5.836  -2.134   0.425  0.00  0.00    +0.264 C 
ATOM      7  O   UNL     1       6.793  -2.869   0.273  0.00  0.00    -0.269 OA
ATOM      8  N   UNL     1       4.717  -2.571   1.038  0.00  0.00    -0.189 N 
ATOM      9  C   UNL     1       3.657  -1.770   1.218  0.00  0.00    +0.327 C 
ATOM     10  O   UNL     1       2.682  -2.225   1.783  0.00  0.00    -0.251 OA
ENDROOT
BRANCH   5  11
ATOM     11  C   UNL     1       8.040  -1.077  -1.080  0.00  0.00    -0.016 A 
ATOM     12  C   UNL     1       7.782  -2.266  -1.766  0.00  0.00    +0.008 A 
ATOM     13  C   UNL     1       8.822  -3.100  -2.142  0.00  0.00    +0.001 A 
ATOM     14  C   UNL     1      10.122  -2.801  -1.863  0.00  0.00    +0.008 A 
ATOM     15  C   UNL     1      10.457  -1.622  -1.176  0.00  0.00    -0.017 A 
ATOM     16  C   UNL     1       9.431  -0.733  -0.775  0.00  0.00    -0.011 A 
ATOM     17  C   UNL     1       9.760   0.443  -0.096  0.00  0.00    +0.009 A 
ATOM     18  C   UNL     1      11.068   0.725   0.170  0.00  0.00    +0.001 A 
ATOM     19  C   UNL     1      12.082  -0.143  -0.228  0.00  0.00    +0.001 A 
ATOM     20  C   UNL     1      11.794  -1.304  -0.881  0.00  0.00    +0.008 A 
ENDBRANCH   5  11
BRANCH   1  24
ATOM     21  C   UNL     1       0.170   1.750   1.488  0.00  0.00    +0.000 A 
ATOM     22  C   UNL     1       0.959   1.355   2.553  0.00  0.00    +0.002 A 
ATOM     23  C   UNL     1       2.101   0.611   2.329  0.00  0.00    +0.024 A 
ATOM     24  C   UNL     1       2.456   0.259   1.034  0.00  0.00    +0.046 A 
ATOM     25  C   UNL     1       1.661   0.657  -0.033  0.00  0.00    +0.024 A 
ATOM     26  C   UNL     1       0.521   1.402   0.197  0.00  0.00    +0.002 A 
ENDBRANCH   1  24
BRANCH   8  27
ATOM     27  C   UNL     1       4.663  -3.892   1.504  0.00  0.00    +0.046 A 
ATOM     28  C   UNL     1       3.836  -4.816   0.879  0.00  0.00    +0.024 A 
ATOM     29  C   UNL     1       3.785  -6.117   1.340  0.00  0.00    +0.002 A 
ATOM     30  C   UNL     1       4.556  -6.499   2.423  0.00  0.00    +0.000 A 
ATOM     31  C   UNL     1       5.380  -5.581   3.047  0.00  0.00    +0.002 A 
ATOM     32  C   UNL     1       5.440  -4.280   2.587  0.00  0.00    +0.024 A 
ENDBRANCH   8  27
TORSDOF 3
