REMARK  Name = ZINC02529331
REMARK  4 active torsions:
REMARK  status: ('A' for Active; 'I' for Inactive)
REMARK    1  A    between atoms: C_3  and  N_24
REMARK    2  A    between atoms: C_6  and  C_7
REMARK    3  A    between atoms: N_11  and  N_15
REMARK    4  A    between atoms: C_16  and  C_18
REMARK                            x       y       z     vdW  Elec       q    Type
REMARK                         _______ _______ _______ _____ _____    ______ ____
ROOT
ATOM      1  C   UNL     1      -2.561   1.521   0.021  0.00  0.00    +0.028 C 
ATOM      2  C   UNL     1      -1.306   1.954   0.294  0.00  0.00    +0.079 C 
ATOM      3  C   UNL     1      -0.103   1.182   0.672  0.00  0.00    +0.275 C 
ATOM      4  O   UNL     1      -0.130  -0.030   0.784  0.00  0.00    -0.267 OA
ATOM      5  N   UNL     1       1.005   1.874   0.876  0.00  0.00    -0.169 N 
ATOM      6  C   UNL     1       1.031   3.216   0.751  0.00  0.00    +0.138 C 
ATOM      7  S   UNL     1       2.354   4.279   0.972  0.00  0.00    -0.026 S 
ATOM      8  S   UNL     1      -0.650   3.617   0.299  0.00  0.00    -0.059 S 
ENDROOT
BRANCH   1  14
ATOM      9  C   UNL     1      -1.905  -0.760  -0.721  0.00  0.00    +0.010 A 
ATOM     10  C   UNL     1      -2.165  -2.111  -0.824  0.00  0.00    +0.033 A 
ATOM     11  C   UNL     1      -3.344  -2.632  -0.320  0.00  0.00    +0.126 A 
ATOM     12  C   UNL     1      -4.269  -1.806   0.294  0.00  0.00    +0.033 A 
ATOM     13  C   UNL     1      -4.022  -0.455   0.409  0.00  0.00    +0.010 A 
ATOM     14  C   UNL     1      -2.833   0.081  -0.097  0.00  0.00    -0.024 A 
BRANCH  11  15
ATOM     15  N   UNL     1      -3.617  -4.082  -0.440  0.00  0.00    +0.056 N 
ATOM     16  O   UNL     1      -4.653  -4.545   0.002  0.00  0.00    -0.126 OA
ATOM     17  O   UNL     1      -2.805  -4.813  -0.979  0.00  0.00    -0.126 OA
ENDBRANCH  11  15
ENDBRANCH   1  14
BRANCH   5  18
ATOM     18  N   UNL     1       2.179   1.197   1.231  0.00  0.00    -0.222 N 
ATOM     19  C   UNL     1       3.160   1.028   0.322  0.00  0.00    +0.261 C 
ATOM     20  O   UNL     1       3.026   1.462  -0.805  0.00  0.00    -0.269 OA
ATOM     21  H   UNL     1       2.287   0.851   2.130  0.00  0.00    +0.174 HD
BRANCH  19  22
ATOM     22  C   UNL     1       4.402   0.312   0.697  0.00  0.00    +0.041 A 
ATOM     23  C   UNL     1       4.579  -0.190   1.990  0.00  0.00    +0.033 A 
ATOM     24  C   UNL     1       5.751  -0.855   2.295  0.00  0.00    +0.111 A 
ATOM     25  N   UNL     1       6.697  -1.010   1.390  0.00  0.00    -0.263 NA
ATOM     26  C   UNL     1       6.573  -0.547   0.162  0.00  0.00    +0.111 A 
ATOM     27  C   UNL     1       5.432   0.125  -0.230  0.00  0.00    +0.033 A 
ENDBRANCH  19  22
ENDBRANCH   5  18
TORSDOF 4
