REMARK  Name = ZINC09384885
REMARK  10 active torsions:
REMARK  status: ('A' for Active; 'I' for Inactive)
REMARK    1  A    between atoms: C_1  and  C_2
REMARK    2  A    between atoms: C_2  and  C_3
REMARK    3  A    between atoms: N_12  and  C_13
REMARK    4  A    between atoms: C_13  and  C_14
REMARK    5  A    between atoms: C_14  and  N_54
REMARK    6  A    between atoms: C_15  and  N_54
REMARK    7  A    between atoms: C_16  and  N_54
REMARK    8  A    between atoms: C_17  and  C_19
REMARK    9  A    between atoms: C_19  and  S_20
REMARK   10  A    between atoms: S_20  and  C_23
REMARK                            x       y       z     vdW  Elec       q    Type
REMARK                         _______ _______ _______ _____ _____    ______ ____
ROOT
ATOM      1  C   UNL     1      -2.143   1.058   1.278  0.00  0.00    -0.046 A 
ATOM      2  C   UNL     1      -2.436  -0.161   1.873  0.00  0.00    +0.006 A 
ATOM      3  C   UNL     1      -3.712  -0.658   1.896  0.00  0.00    +0.029 A 
ATOM      4  C   UNL     1      -4.779   0.062   1.310  0.00  0.00    +0.080 A 
ATOM      5  C   UNL     1      -4.444   1.299   0.714  0.00  0.00    +0.041 A 
ATOM      6  C   UNL     1      -3.162   1.791   0.700  0.00  0.00    +0.021 A 
ATOM      7  S   UNL     1      -6.016   1.868   0.113  0.00  0.00    -0.052 S 
ATOM      8  C   UNL     1      -6.987   0.475   0.671  0.00  0.00    +0.168 A 
ATOM      9  N   UNL     1      -6.083  -0.283   1.247  0.00  0.00    -0.224 NA
ATOM     10  N   UNL     1      -8.347   0.253   0.531  0.00  0.00    -0.251 N 
ATOM     11  C   UNL     1      -9.117   1.161  -0.099  0.00  0.00    +0.243 C 
ATOM     12  O   UNL     1      -8.620   2.173  -0.545  0.00  0.00    -0.273 OA
ENDROOT
BRANCH   1  14
ATOM     13  C   UNL     1      -0.013   1.086   0.008  0.00  0.00    +0.009 C 
ATOM     14  C   UNL     1      -0.729   1.579   1.267  0.00  0.00    +0.032 C 
ENDBRANCH   1  14
BRANCH  10  15
ATOM     15  C   UNL     1      -8.948  -0.970   1.069  0.00  0.00    +0.097 C 
BRANCH  15  16
ATOM     16  C   UNL     1      -9.396  -0.727   2.512  0.00  0.00    -0.060 C 
BRANCH  16  19
ATOM     17  C   UNL     1     -10.224  -1.836   4.498  0.00  0.00    -0.097 C 
ATOM     18  C   UNL     1     -11.246  -2.279   2.349  0.00  0.00    -0.097 C 
ATOM     19  N   UNL     1      -9.980  -1.974   3.047  0.00  0.00    +0.377 N 
ATOM     20  H   UNL     1      -9.320  -2.745   2.892  0.00  0.00    -0.083 HD
ENDBRANCH  16  19
ENDBRANCH  15  16
ENDBRANCH  10  15
BRANCH  11  21
ATOM     21  C   UNL     1     -10.597   0.919  -0.251  0.00  0.00    +0.267 C 
BRANCH  21  22
ATOM     22  S   UNL     1     -11.350   2.311  -1.137  0.00  0.00    +0.005 S 
ATOM     23  O   UNL     1     -11.305   3.483  -0.335  0.00  0.00    -0.169 OA
ATOM     24  O   UNL     1     -10.896   2.337  -2.484  0.00  0.00    -0.169 OA
BRANCH  22  25
ATOM     25  C   UNL     1     -13.061   1.906  -1.247  0.00  0.00    +0.089 A 
ATOM     26  C   UNL     1     -13.535   1.196  -2.334  0.00  0.00    +0.028 A 
ATOM     27  C   UNL     1     -14.876   0.874  -2.418  0.00  0.00    +0.022 A 
ATOM     28  C   UNL     1     -15.747   1.271  -1.418  0.00  0.00    +0.041 A 
ATOM     29  C   UNL     1     -15.273   1.986  -0.333  0.00  0.00    +0.022 A 
ATOM     30  C   UNL     1     -13.930   2.303  -0.248  0.00  0.00    +0.028 A 
ATOM     31 CL   UNL     1     -17.433   0.871  -1.526  0.00  0.00    -0.084 Cl
ENDBRANCH  22  25
ENDBRANCH  21  22
ENDBRANCH  11  21
TORSDOF 7
