REMARK  Name = ZINC04842127
REMARK  6 active torsions:
REMARK  status: ('A' for Active; 'I' for Inactive)
REMARK    1  A    between atoms: C_4  and  C_7
REMARK    2  A    between atoms: C_12  and  N_13
REMARK    3  A    between atoms: C_14  and  C_16
REMARK    4  A    between atoms: C_16  and  O_17
REMARK    5  A    between atoms: O_17  and  C_18
REMARK    6  A    between atoms: C_21  and  N_25
REMARK                            x       y       z     vdW  Elec       q    Type
REMARK                         _______ _______ _______ _____ _____    ______ ____
ROOT
ATOM      1  N   UNL     1       3.910  -2.192  -0.049  0.00  0.00    -0.282 N 
ATOM      2  C   UNL     1       3.662  -1.006   0.541  0.00  0.00    +0.255 C 
ATOM      3  O   UNL     1       4.564  -0.390   1.067  0.00  0.00    -0.272 OA
ATOM      4  H   UNL     1       3.177  -2.722  -0.399  0.00  0.00    +0.155 HD
ENDROOT
BRANCH   1  10
ATOM      5  C   UNL     1       5.476  -4.030  -0.262  0.00  0.00    +0.003 A 
ATOM      6  C   UNL     1       6.788  -4.483  -0.374  0.00  0.00    +0.010 A 
ATOM      7  C   UNL     1       7.832  -3.580  -0.370  0.00  0.00    +0.001 A 
ATOM      8  C   UNL     1       7.580  -2.223  -0.262  0.00  0.00    +0.002 A 
ATOM      9  C   UNL     1       6.282  -1.761  -0.155  0.00  0.00    +0.024 A 
ATOM     10  C   UNL     1       5.223  -2.658  -0.157  0.00  0.00    +0.041 A 
BRANCH   5  14
ATOM     11  C   UNL     1       2.252  -6.802  -0.255  0.00  0.00    +0.000 A 
ATOM     12  C   UNL     1       3.221  -6.875  -1.240  0.00  0.00    +0.001 A 
ATOM     13  C   UNL     1       4.270  -5.978  -1.247  0.00  0.00    +0.008 A 
ATOM     14  C   UNL     1       4.351  -4.997  -0.260  0.00  0.00    -0.016 A 
ATOM     15  C   UNL     1       3.374  -4.931   0.732  0.00  0.00    +0.008 A 
ATOM     16  C   UNL     1       2.328  -5.831   0.727  0.00  0.00    +0.001 A 
ENDBRANCH   5  14
ENDBRANCH   1  10
BRANCH   2  17
ATOM     17  C   UNL     1       2.263  -0.446   0.548  0.00  0.00    +0.325 C 
BRANCH  17  18
ATOM     18  O   UNL     1       2.256   0.811   1.228  0.00  0.00    -0.481 OA
BRANCH  18  19
ATOM     19  C   UNL     1       1.063   1.454   1.324  0.00  0.00    +0.140 A 
ATOM     20  C   UNL     1      -0.078   0.888   0.774  0.00  0.00    +0.049 A 
ATOM     21  C   UNL     1      -1.288   1.547   0.867  0.00  0.00    +0.036 A 
ATOM     22  C   UNL     1      -1.366   2.765   1.517  0.00  0.00    +0.128 A 
ATOM     23  C   UNL     1      -0.231   3.332   2.066  0.00  0.00    +0.056 A 
ATOM     24  C   UNL     1       0.984   2.680   1.971  0.00  0.00    +0.085 A 
ATOM     25 CL   UNL     1       2.409   3.392   2.660  0.00  0.00    -0.080 Cl
BRANCH  22  26
ATOM     26  N   UNL     1      -2.666   3.466   1.620  0.00  0.00    +0.056 N 
ATOM     27  O   UNL     1      -2.735   4.541   2.188  0.00  0.00    -0.126 OA
ATOM     28  O   UNL     1      -3.667   2.967   1.137  0.00  0.00    -0.126 OA
ENDBRANCH  22  26
ENDBRANCH  18  19
ENDBRANCH  17  18
ENDBRANCH   2  17
TORSDOF 6
