REMARK  Name = ZINC19995244
REMARK  7 active torsions:
REMARK  status: ('A' for Active; 'I' for Inactive)
REMARK    1  A    between atoms: C_1  and  C_2
REMARK    2  A    between atoms: C_3  and  C_24
REMARK    3  A    between atoms: N_9  and  C_12
REMARK    4  A    between atoms: C_12  and  C_13
REMARK    5  A    between atoms: C_19  and  C_21
REMARK    6  A    between atoms: C_21  and  C_22
REMARK    7  A    between atoms: C_21  and  C_23
REMARK                            x       y       z     vdW  Elec       q    Type
REMARK                         _______ _______ _______ _____ _____    ______ ____
ROOT
ATOM      1  C   UNL     1       0.369   5.658   0.027  0.00  0.00    +0.245 C 
ENDROOT
BRANCH   1  10
ATOM      2  C   UNL     1      -3.166   7.411   3.752  0.00  0.00    +0.045 C 
ATOM      3  C   UNL     1      -3.635   7.645   2.339  0.00  0.00    -0.026 A 
ATOM      4  C   UNL     1      -4.821   8.233   2.105  0.00  0.00    -0.008 A 
ATOM      5  S   UNL     1      -4.913   8.280   0.325  0.00  0.00    -0.072 S 
ATOM      6  C   UNL     1      -3.359   7.509  -0.051  0.00  0.00    +0.138 A 
ATOM      7  C   UNL     1      -2.813   7.237   1.216  0.00  0.00    +0.078 A 
ATOM      8  C   UNL     1      -1.528   6.599   1.221  0.00  0.00    +0.279 A 
ATOM      9  O   UNL     1      -0.976   6.324   2.272  0.00  0.00    -0.265 OA
ATOM     10  N   UNL     1      -0.943   6.309   0.043  0.00  0.00    -0.201 N 
ATOM     11  N   UNL     1      -1.571   6.628  -1.165  0.00  0.00    -0.061 NA
ATOM     12  N   UNL     1      -2.728   7.196  -1.178  0.00  0.00    -0.123 NA
ATOM     13  C   UNL     1      -5.830   8.733   3.106  0.00  0.00    +0.052 C 
ENDBRANCH   1  10
BRANCH   1  14
ATOM     14  C   UNL     1       0.188   4.162   0.022  0.00  0.00    +0.240 C 
ATOM     15  O   UNL     1      -0.928   3.686   0.030  0.00  0.00    -0.273 OA
ATOM     16  N   UNL     1       1.265   3.352   0.007  0.00  0.00    -0.262 N 
ATOM     17  C   UNL     1       1.098   1.972   0.002  0.00  0.00    +0.188 A 
ATOM     18  N   UNL     1      -0.015   1.258   0.009  0.00  0.00    -0.126 NA
ATOM     19  N   UNL     1       0.002  -0.004   0.002  0.00  0.00    -0.144 NA
ATOM     20  C   UNL     1       1.145  -0.660  -0.012  0.00  0.00    +0.106 A 
ATOM     21  S   UNL     1       2.295   0.710  -0.016  0.00  0.00    -0.035 S 
ATOM     22  H   UNL     1       2.277   3.784  -0.000  0.00  0.00    +0.157 HD
BRANCH  20  23
ATOM     23  C   UNL     1       1.408  -2.144  -0.022  0.00  0.00    +0.040 C 
ATOM     24  C   UNL     1       0.799  -2.779   1.229  0.00  0.00    +0.014 C 
ATOM     25  C   UNL     1       0.776  -2.766  -1.269  0.00  0.00    +0.014 C 
ENDBRANCH  20  23
ENDBRANCH   1  14
TORSDOF 3
