REMARK  Name = ZINC07889769
REMARK  5 active torsions:
REMARK  status: ('A' for Active; 'I' for Inactive)
REMARK    1  A    between atoms: C_1  and  C_2
REMARK    2  A    between atoms: C_2  and  C_3
REMARK    3  A    between atoms: C_3  and  N_4
REMARK    4  A    between atoms: C_5  and  C_16
REMARK    5  A    between atoms: C_21  and  N_22
REMARK                            x       y       z     vdW  Elec       q    Type
REMARK                         _______ _______ _______ _____ _____    ______ ____
ROOT
ATOM      1  N   UNL     1      -1.395  -2.030  -0.068  0.00  0.00    -0.275 N 
ATOM      2  C   UNL     1      -1.329  -2.529  -1.442  0.00  0.00    +0.195 C 
ATOM      3  N   UNL     1      -2.084  -3.782  -1.564  0.00  0.00    -0.321 N 
ATOM      4  C   UNL     1      -1.930  -4.749  -0.578  0.00  0.00    +0.041 A 
ATOM      5  C   UNL     1      -2.067  -6.100  -0.848  0.00  0.00    +0.024 A 
ATOM      6  C   UNL     1      -1.900  -7.021   0.169  0.00  0.00    +0.002 A 
ATOM      7  C   UNL     1      -1.597  -6.603   1.455  0.00  0.00    +0.001 A 
ATOM      8  C   UNL     1      -1.458  -5.261   1.741  0.00  0.00    +0.015 A 
ATOM      9  C   UNL     1      -1.625  -4.322   0.727  0.00  0.00    +0.058 A 
ATOM     10  C   UNL     1      -1.491  -2.875   0.979  0.00  0.00    +0.250 C 
ATOM     11  O   UNL     1      -1.471  -2.449   2.118  0.00  0.00    -0.270 OA
ATOM     12  H   UNL     1      -2.678  -3.932  -2.317  0.00  0.00    +0.148 HD
ENDROOT
BRANCH   2  13
ATOM     13  C   UNL     1       0.109  -2.779  -1.814  0.00  0.00    +0.021 A 
ATOM     14  C   UNL     1       1.046  -3.022  -0.827  0.00  0.00    +0.009 A 
ATOM     15  C   UNL     1       2.366  -3.251  -1.168  0.00  0.00    +0.001 A 
ATOM     16  C   UNL     1       2.749  -3.237  -2.497  0.00  0.00    +0.002 A 
ATOM     17  C   UNL     1       1.812  -2.995  -3.483  0.00  0.00    +0.033 A 
ATOM     18  C   UNL     1       0.491  -2.770  -3.142  0.00  0.00    +0.133 A 
BRANCH  18  19
ATOM     19  N   UNL     1      -0.514  -2.516  -4.199  0.00  0.00    +0.057 N 
ATOM     20  O   UNL     1      -0.163  -2.391  -5.349  0.00  0.00    -0.126 OA
ATOM     21  O   UNL     1      -1.685  -2.434  -3.912  0.00  0.00    -0.126 OA
ENDBRANCH  18  19
ENDBRANCH   2  13
BRANCH   1  22
ATOM     22  C   UNL     1      -1.349  -0.586   0.175  0.00  0.00    +0.110 C 
BRANCH  22  24
ATOM     23  C   UNL     1       0.155   1.400   0.358  0.00  0.00    +0.005 C 
ATOM     24  C   UNL     1       0.108  -0.123   0.225  0.00  0.00    +0.016 C 
ENDBRANCH  22  24
ENDBRANCH   1  22
TORSDOF 4
