REMARK  Name = ZINC63406542
REMARK  5 active torsions:
REMARK  status: ('A' for Active; 'I' for Inactive)
REMARK    1  A    between atoms: C_1  and  N_2
REMARK    2  A    between atoms: C_3  and  C_5
REMARK    3  A    between atoms: C_8  and  N_11
REMARK    4  A    between atoms: N_14  and  C_15
REMARK    5  A    between atoms: C_15  and  C_16
REMARK                            x       y       z     vdW  Elec       q    Type
REMARK                         _______ _______ _______ _____ _____    ______ ____
ROOT
ATOM      1  N   UNL     1       3.457  -4.194  -1.064  0.00  0.00    -0.297 N 
ATOM      2  C   UNL     1       4.413  -4.854  -1.747  0.00  0.00    +0.300 C 
ATOM      3  O   UNL     1       4.136  -5.871  -2.353  0.00  0.00    -0.253 OA
ATOM      4  N   UNL     1       5.678  -4.388  -1.756  0.00  0.00    -0.294 N 
ATOM      5  H   UNL     1       3.678  -3.384  -0.580  0.00  0.00    +0.151 HD
ATOM      6  H   UNL     1       5.899  -3.577  -1.272  0.00  0.00    +0.151 HD
ENDROOT
BRANCH   1  10
ATOM      7  C   UNL     1       0.606  -2.171  -1.026  0.00  0.00    +0.075 C 
ATOM      8  C   UNL     1       1.345  -2.678   0.213  0.00  0.00    +0.014 C 
ATOM      9  C   UNL     1       1.366  -4.208   0.205  0.00  0.00    +0.023 C 
ATOM     10  C   UNL     1       2.082  -4.701  -1.054  0.00  0.00    +0.074 C 
ATOM     11  C   UNL     1       1.342  -4.195  -2.293  0.00  0.00    +0.023 C 
ATOM     12  C   UNL     1       1.322  -2.665  -2.285  0.00  0.00    +0.014 C 
BRANCH   7  15
ATOM     13  C   UNL     1      -0.018   1.461   0.010  0.00  0.00    +0.128 C 
ATOM     14  N   UNL     1       0.002  -0.004   0.002  0.00  0.00    -0.318 N 
ATOM     15  C   UNL     1       0.585  -0.664  -1.018  0.00  0.00    +0.216 C 
ATOM     16  O   UNL     1       1.093  -0.046  -1.929  0.00  0.00    -0.276 OA
ATOM     17  H   UNL     1      -0.404  -0.499   0.731  0.00  0.00    +0.148 HD
ENDBRANCH   7  15
ENDBRANCH   1  10
BRANCH   4  18
ATOM     18  C   UNL     1       6.718  -5.106  -2.498  0.00  0.00    +0.162 C 
BRANCH  18  19
ATOM     19  C   UNL     1       8.031  -4.382  -2.348  0.00  0.00    +0.078 A 
ATOM     20  C   UNL     1       8.985  -4.662  -1.444  0.00  0.00    +0.118 A 
ATOM     21  N   UNL     1      10.032  -3.766  -1.641  0.00  0.00    -0.300 N 
ATOM     22  C   UNL     1      11.268  -3.494  -1.097  0.00  0.00    +0.100 A 
ATOM     23  C   UNL     1      12.022  -2.506  -1.577  0.00  0.00    +0.067 A 
ATOM     24  S   UNL     1      10.995  -1.862  -2.889  0.00  0.00    -0.058 S 
ATOM     25  C   UNL     1       9.627  -2.978  -2.686  0.00  0.00    +0.178 A 
ATOM     26  N   UNL     1       8.450  -3.352  -3.100  0.00  0.00    -0.225 NA
ENDBRANCH  18  19
ENDBRANCH   4  18
TORSDOF 4
