REMARK  Name = ZINC39466896
REMARK  5 active torsions:
REMARK  status: ('A' for Active; 'I' for Inactive)
REMARK    1  A    between atoms: C_1  and  C_2
REMARK    2  A    between atoms: C_2  and  O_3
REMARK    3  A    between atoms: O_3  and  C_4
REMARK    4  A    between atoms: P_13  and  C_23
REMARK    5  A    between atoms: C_23  and  C_24
REMARK                            x       y       z     vdW  Elec       q    Type
REMARK                         _______ _______ _______ _____ _____    ______ ____
ROOT
ATOM      1  C   UNL     1      -1.498  -1.848   0.006  0.00  0.00    +0.152 C 
ATOM      2  C   UNL     1      -0.432  -2.654  -0.003  0.00  0.00    +0.025 C 
ATOM      3  C   UNL     1      -0.632  -4.145  -0.021  0.00  0.00    +0.019 C 
ATOM      4  C   UNL     1       0.597  -4.844  -0.587  0.00  0.00    -0.002 C 
ATOM      5  C   UNL     1       0.805  -4.473  -2.060  0.00  0.00    -0.020 C 
ATOM      6  C   UNL     1       2.039  -5.242  -2.548  0.00  0.00    +0.156 C 
ATOM      7  O   UNL     1       2.313  -4.895  -3.918  0.00  0.00    -0.319 OA
ATOM      8  P   UNL     1       1.081  -4.977  -4.977  0.00  0.00    +0.262 P 
ATOM      9  O   UNL     1       0.866  -6.376  -5.409  0.00  0.00    -0.274 OA
ATOM     10  N   UNL     1      -0.237  -4.424  -4.152  0.00  0.00    -0.291 NA
ATOM     11  N   UNL     1      -0.385  -4.822  -2.840  0.00  0.00    +0.397 N 
ATOM     12  C   UNL     1      -1.562  -4.102  -2.329  0.00  0.00    -0.046 C 
ATOM     13  C   UNL     1      -1.842  -4.489  -0.895  0.00  0.00    +0.007 C 
ATOM     14  C   UNL     1      -3.030  -3.686  -0.419  0.00  0.00    +0.017 C 
ATOM     15  C   UNL     1      -2.852  -2.439   0.016  0.00  0.00    +0.161 C 
ATOM     16  F   UNL     1      -3.904  -1.716   0.459  0.00  0.00    -0.202 F 
ATOM     17  H   UNL     1      -0.886  -3.841  -4.576  0.00  0.00    +0.111 HD
ATOM     18  H   UNL     1      -0.537  -5.819  -2.799  0.00  0.00    -0.055 HD
ENDROOT
BRANCH   1  19
ATOM     19  O   UNL     1      -1.339  -0.499   0.012  0.00  0.00    -0.490 OA
BRANCH  19  21
ATOM     20  C   UNL     1      -0.019   1.526   0.010  0.00  0.00    +0.048 C 
ATOM     21  C   UNL     1       0.002  -0.004   0.002  0.00  0.00    +0.226 C 
ENDBRANCH  19  21
ENDBRANCH   1  19
BRANCH   8  22
ATOM     22  C   UNL     1       1.417  -3.916  -6.421  0.00  0.00    +0.147 C 
BRANCH  22  23
ATOM     23  C   UNL     1       2.681  -4.378  -7.100  0.00  0.00    -0.037 A 
ATOM     24  C   UNL     1       3.902  -3.855  -6.716  0.00  0.00    +0.004 A 
ATOM     25  C   UNL     1       5.061  -4.279  -7.338  0.00  0.00    +0.000 A 
ATOM     26  C   UNL     1       5.000  -5.224  -8.344  0.00  0.00    +0.000 A 
ATOM     27  C   UNL     1       3.779  -5.747  -8.728  0.00  0.00    +0.000 A 
ATOM     28  C   UNL     1       2.620  -5.327  -8.102  0.00  0.00    +0.004 A 
ENDBRANCH  22  23
ENDBRANCH   8  22
TORSDOF 4
