REMARK  Name = ZINC05260284
REMARK  4 active torsions:
REMARK  status: ('A' for Active; 'I' for Inactive)
REMARK    1  A    between atoms: C_10  and  N_11
REMARK    2  A    between atoms: N_11  and  S_12
REMARK    3  A    between atoms: S_12  and  C_15
REMARK    4  A    between atoms: C_19  and  N_21
REMARK                            x       y       z     vdW  Elec       q    Type
REMARK                         _______ _______ _______ _____ _____    ______ ____
ROOT
ATOM      1  S   UNL     1      -3.821   3.075   0.772  0.00  0.00    +0.072 S 
ATOM      2  O   UNL     1      -4.926   3.938   0.543  0.00  0.00    -0.150 OA
ATOM      3  O   UNL     1      -3.822   1.712   0.369  0.00  0.00    -0.150 OA
ENDROOT
BRANCH   1   4
ATOM      4  C   UNL     1      -3.523   3.087   2.508  0.00  0.00    +0.111 A 
ATOM      5  C   UNL     1      -2.881   2.018   3.107  0.00  0.00    +0.030 A 
ATOM      6  C   UNL     1      -2.643   2.029   4.468  0.00  0.00    +0.024 A 
ATOM      7  C   UNL     1      -3.057   3.105   5.234  0.00  0.00    +0.071 A 
ATOM      8  C   UNL     1      -3.704   4.171   4.635  0.00  0.00    +0.146 A 
ATOM      9  C   UNL     1      -3.937   4.161   3.273  0.00  0.00    +0.063 A 
ATOM     10 CL   UNL     1      -2.763   3.117   6.945  0.00  0.00    -0.081 Cl
BRANCH   8  11
ATOM     11  N   UNL     1      -4.146   5.322   5.454  0.00  0.00    +0.058 N 
ATOM     12  O   UNL     1      -4.715   6.261   4.926  0.00  0.00    -0.126 OA
ATOM     13  O   UNL     1      -3.941   5.331   6.654  0.00  0.00    -0.126 OA
ENDBRANCH   8  11
ENDBRANCH   1   4
BRANCH   1  14
ATOM     14  N   UNL     1      -2.510   3.780   0.045  0.00  0.00    -0.216 N 
ATOM     15  H   UNL     1      -2.625   4.583  -0.488  0.00  0.00    +0.174 HD
BRANCH  14  25
ATOM     16  C   UNL     1       2.163   5.640   0.452  0.00  0.00    +0.001 A 
ATOM     17  C   UNL     1       0.905   6.219   0.297  0.00  0.00    +0.001 A 
ATOM     18  C   UNL     1      -0.215   5.449   0.213  0.00  0.00    +0.010 A 
ATOM     19  C   UNL     1      -0.105   4.052   0.283  0.00  0.00    +0.004 A 
ATOM     20  C   UNL     1       1.174   3.462   0.441  0.00  0.00    -0.016 A 
ATOM     21  C   UNL     1       2.308   4.289   0.523  0.00  0.00    +0.008 A 
ATOM     22  C   UNL     1       1.286   2.063   0.510  0.00  0.00    +0.008 A 
ATOM     23  C   UNL     1       0.171   1.286   0.427  0.00  0.00    +0.002 A 
ATOM     24  C   UNL     1      -1.089   1.854   0.267  0.00  0.00    +0.025 A 
ATOM     25  C   UNL     1      -1.243   3.222   0.200  0.00  0.00    +0.056 A 
ENDBRANCH  14  25
ENDBRANCH   1  14
TORSDOF 4
