REMARK  Name = ZINC41025748
REMARK  6 active torsions:
REMARK  status: ('A' for Active; 'I' for Inactive)
REMARK    1  A    between atoms: C_1  and  C_2
REMARK    2  A    between atoms: C_2  and  C_3
REMARK    3  A    between atoms: C_2  and  C_4
REMARK    4  A    between atoms: C_7  and  C_10
REMARK    5  A    between atoms: C_10  and  N_11
REMARK    6  A    between atoms: N_11  and  C_22
REMARK                            x       y       z     vdW  Elec       q    Type
REMARK                         _______ _______ _______ _____ _____    ______ ____
ROOT
ATOM      1  N   UNL     1       3.637  -0.838  -5.222  0.00  0.00    -0.304 N 
ATOM      2  C   UNL     1       3.184   0.183  -6.041  0.00  0.00    +0.151 A 
ATOM      3  C   UNL     1       3.102   0.006  -7.424  0.00  0.00    +0.126 A 
ATOM      4  C   UNL     1       2.636   1.071  -8.212  0.00  0.00    +0.183 A 
ATOM      5  N   UNL     1       2.654   0.647  -9.490  0.00  0.00    -0.216 NA
ATOM      6  H   UNL     1       3.721  -1.901  -8.063  0.00  0.00    +0.167 HD
ATOM      7  C   UNL     1       3.091  -0.581  -9.542  0.00  0.00    +0.199 A 
ATOM      8  N   UNL     1       3.381  -1.024  -8.297  0.00  0.00    -0.340 N 
ATOM      9  N   UNL     1       2.289   2.212  -7.608  0.00  0.00    -0.214 NA
ATOM     10  C   UNL     1       2.383   2.333  -6.302  0.00  0.00    +0.225 A 
ATOM     11  N   UNL     1       2.812   1.353  -5.527  0.00  0.00    -0.218 NA
ENDROOT
BRANCH   1  12
ATOM     12  C   UNL     1       5.043  -0.880  -4.813  0.00  0.00    +0.098 C 
ATOM     13  C   UNL     1       5.406   0.413  -4.065  0.00  0.00    +0.046 C 
ATOM     14  C   UNL     1       6.942   0.522  -3.914  0.00  0.00    +0.168 C 
ATOM     15  S   UNL     1       7.559  -0.412  -5.373  0.00  0.00    -0.029 S 
ATOM     16  O   UNL     1       8.161   0.497  -6.284  0.00  0.00    -0.174 OA
ATOM     17  O   UNL     1       8.296  -1.540  -4.922  0.00  0.00    -0.174 OA
ATOM     18  C   UNL     1       5.952  -0.984  -6.071  0.00  0.00    +0.188 C 
ENDBRANCH   1  12
BRANCH   1  19
ATOM     19  C   UNL     1       2.709  -1.876  -4.763  0.00  0.00    +0.142 C 
BRANCH  19  23
ATOM     20  C   UNL     1       0.690  -0.532  -1.247  0.00  0.00    -0.045 A 
ATOM     21  C   UNL     1       0.204  -0.192  -2.496  0.00  0.00    +0.004 A 
ATOM     22  C   UNL     1       0.858  -0.627  -3.634  0.00  0.00    +0.005 A 
ATOM     23  C   UNL     1       1.998  -1.401  -3.523  0.00  0.00    -0.030 A 
ATOM     24  C   UNL     1       2.484  -1.740  -2.274  0.00  0.00    +0.005 A 
ATOM     25  C   UNL     1       1.833  -1.302  -1.136  0.00  0.00    +0.004 A 
BRANCH  20  27
ATOM     26  C   UNL     1      -0.058   1.471   0.009  0.00  0.00    +0.012 C 
ATOM     27  C   UNL     1      -0.022  -0.058  -0.007  0.00  0.00    +0.013 C 
ATOM     28  C   UNL     1      -1.452  -0.602  -0.001  0.00  0.00    +0.012 C 
ENDBRANCH  20  27
ENDBRANCH  19  23
ENDBRANCH   1  19
TORSDOF 4
