REMARK  Name = ZINC22517122
REMARK  6 active torsions:
REMARK  status: ('A' for Active; 'I' for Inactive)
REMARK    1  A    between atoms: C_1  and  C_2
REMARK    2  A    between atoms: C_4  and  C_26
REMARK    3  A    between atoms: C_5  and  S_9
REMARK    4  A    between atoms: C_6  and  C_8
REMARK    5  A    between atoms: S_9  and  N_12
REMARK    6  A    between atoms: C_16  and  C_18
REMARK                            x       y       z     vdW  Elec       q    Type
REMARK                         _______ _______ _______ _____ _____    ______ ____
ROOT
ATOM      1  N   UNL     1      -2.127   2.724   0.796  0.00  0.00    -0.165 NA
ATOM      2  C   UNL     1      -3.233   1.849   1.224  0.00  0.00    +0.110 C 
ATOM      3  C   UNL     1      -3.267   1.984   2.769  0.00  0.00    +0.019 C 
ATOM      4  C   UNL     1      -2.930   3.487   2.956  0.00  0.00    +0.031 C 
ATOM      5  C   UNL     1      -1.919   3.757   1.821  0.00  0.00    +0.166 C 
ENDROOT
BRANCH   5   6
ATOM      6  C   UNL     1      -2.161   5.122   1.230  0.00  0.00    +0.238 C 
ATOM      7  O   UNL     1      -2.477   5.231   0.064  0.00  0.00    -0.274 OA
ATOM      8  N   UNL     1      -2.026   6.222   1.997  0.00  0.00    -0.263 N 
ATOM      9  C   UNL     1      -2.248   7.481   1.452  0.00  0.00    +0.164 A 
ATOM     10  N   UNL     1      -2.590   7.802   0.218  0.00  0.00    -0.233 NA
ATOM     11  C   UNL     1      -2.768   9.059  -0.136  0.00  0.00    +0.120 A 
ATOM     12  C   UNL     1      -2.581  10.026   0.795  0.00  0.00    +0.068 A 
ATOM     13  S   UNL     1      -2.142   9.036   2.217  0.00  0.00    -0.061 S 
ATOM     14  H   UNL     1      -1.739   6.124   3.054  0.00  0.00    +0.157 HD
ENDBRANCH   5   6
BRANCH   1  15
ATOM     15  S   UNL     1      -1.265   2.573  -0.610  0.00  0.00    +0.062 S 
ATOM     16  O   UNL     1      -0.734   3.858  -0.901  0.00  0.00    -0.153 OA
ATOM     17  O   UNL     1      -2.096   1.868  -1.522  0.00  0.00    -0.153 OA
BRANCH  15  22
ATOM     18  C   UNL     1       3.450  -1.012   0.541  0.00  0.00    +0.044 C 
ATOM     19  C   UNL     1       2.271  -0.117   0.256  0.00  0.00    -0.050 A 
ATOM     20  C   UNL     1       1.104  -0.653  -0.255  0.00  0.00    +0.008 A 
ATOM     21  C   UNL     1       0.023   0.168  -0.517  0.00  0.00    -0.024 A 
ATOM     22  C   UNL     1       0.110   1.525  -0.268  0.00  0.00    +0.111 A 
ATOM     23  C   UNL     1       1.277   2.061   0.243  0.00  0.00    -0.024 A 
ATOM     24  C   UNL     1       2.358   1.240   0.505  0.00  0.00    +0.008 A 
ATOM     25  C   UNL     1       1.371   3.541   0.514  0.00  0.00    +0.046 C 
ATOM     26  C   UNL     1      -1.249  -0.416  -1.075  0.00  0.00    +0.046 C 
ENDBRANCH  15  22
ENDBRANCH   1  15
TORSDOF 3
