REMARK  Name = ZINC53607360
REMARK  5 active torsions:
REMARK  status: ('A' for Active; 'I' for Inactive)
REMARK    1  A    between atoms: C_6  and  C_11
REMARK    2  A    between atoms: C_11  and  C_12
REMARK    3  A    between atoms: N_14  and  N_15
REMARK    4  A    between atoms: C_16  and  C_18
REMARK    5  A    between atoms: C_22  and  N_24
REMARK                            x       y       z     vdW  Elec       q    Type
REMARK                         _______ _______ _______ _____ _____    ______ ____
ROOT
ATOM      1  N   UNL     1       7.064  -3.791   2.902  0.00  0.00    -0.230 N 
ATOM      2  C   UNL     1       8.229  -4.429   3.134  0.00  0.00    +0.260 C 
ATOM      3  O   UNL     1       8.918  -4.792   2.201  0.00  0.00    -0.269 OA
ATOM      4  H   UNL     1       6.514  -3.501   3.647  0.00  0.00    +0.173 HD
ENDROOT
BRANCH   2   5
ATOM      5  C   UNL     1       8.667  -4.687   4.522  0.00  0.00    +0.040 A 
ATOM      6  C   UNL     1       7.874  -4.276   5.595  0.00  0.00    +0.013 A 
ATOM      7  C   UNL     1       8.286  -4.518   6.889  0.00  0.00    +0.003 A 
ATOM      8  C   UNL     1       9.482  -5.167   7.129  0.00  0.00    +0.023 A 
ATOM      9  C   UNL     1      10.279  -5.579   6.069  0.00  0.00    +0.039 A 
ATOM     10  C   UNL     1       9.872  -5.347   4.764  0.00  0.00    +0.036 A 
BRANCH   9  11
ATOM     11  N   UNL     1      11.491  -6.236   6.317  0.00  0.00    -0.254 N 
ATOM     12  C   UNL     1      12.088  -6.449   7.644  0.00  0.00    +0.134 C 
ATOM     13  C   UNL     1      13.394  -7.209   7.343  0.00  0.00    +0.125 C 
ATOM     14  N   UNL     1      13.395  -7.343   5.878  0.00  0.00    -0.297 N 
ATOM     15  C   UNL     1      12.287  -6.774   5.384  0.00  0.00    +0.307 C 
ATOM     16  O   UNL     1      12.030  -6.745   4.196  0.00  0.00    -0.252 OA
ATOM     17  H   UNL     1      14.085  -7.777   5.354  0.00  0.00    +0.150 HD
ENDBRANCH   9  11
ENDBRANCH   2   5
BRANCH   1  20
ATOM     18  C   UNL     1       5.484  -2.908   1.355  0.00  0.00    +0.233 C 
ATOM     19  O   UNL     1       4.796  -2.546   2.286  0.00  0.00    -0.274 OA
ATOM     20  N   UNL     1       6.649  -3.546   1.587  0.00  0.00    -0.234 N 
ATOM     21  H   UNL     1       7.199  -3.836   0.843  0.00  0.00    +0.173 HD
BRANCH  18  22
ATOM     22  C   UNL     1       5.038  -2.645  -0.060  0.00  0.00    +0.132 C 
BRANCH  22  28
ATOM     23  C   UNL     1       0.004   1.400   0.025  0.00  0.00    +0.001 A 
ATOM     24  C   UNL     1       1.187   2.136   0.032  0.00  0.00    +0.001 A 
ATOM     25  C   UNL     1       2.398   1.516   0.018  0.00  0.00    +0.008 A 
ATOM     26  C   UNL     1       2.461   0.112  -0.005  0.00  0.00    -0.018 A 
ATOM     27  C   UNL     1       3.693  -0.563  -0.021  0.00  0.00    +0.012 A 
ATOM     28  C   UNL     1       3.715  -1.924  -0.043  0.00  0.00    -0.038 A 
ATOM     29  C   UNL     1       2.531  -2.660  -0.050  0.00  0.00    +0.005 A 
ATOM     30  C   UNL     1       1.320  -2.040  -0.036  0.00  0.00    +0.009 A 
ATOM     31  C   UNL     1       1.258  -0.636  -0.013  0.00  0.00    -0.018 A 
ATOM     32  C   UNL     1       0.025   0.039   0.002  0.00  0.00    +0.008 A 
ENDBRANCH  22  28
ENDBRANCH  18  22
ENDBRANCH   1  20
TORSDOF 5
