REMARK  Name = ZINC37560828
REMARK  2 active torsions:
REMARK  status: ('A' for Active; 'I' for Inactive)
REMARK    1  A    between atoms: C_1  and  N_2
REMARK    2  A    between atoms: N_7  and  C_8
REMARK                            x       y       z     vdW  Elec       q    Type
REMARK                         _______ _______ _______ _____ _____    ______ ____
ROOT
ATOM      1  C   UNL     1       0.071  -4.551   0.946  0.00  0.00    +0.109 C 
ATOM      2  C   UNL     1       0.702  -5.541   1.929  0.00  0.00    +0.068 C 
ATOM      3  C   UNL     1       0.442  -6.962   1.414  0.00  0.00    +0.231 C 
ATOM      4  O   UNL     1      -0.966  -7.201   1.443  0.00  0.00    -0.490 OA
ATOM      5  C   UNL     1      -1.780  -6.263   0.890  0.00  0.00    +0.144 A 
ATOM      6  C   UNL     1      -1.341  -4.977   0.633  0.00  0.00    +0.017 A 
ATOM      7  C   UNL     1      -2.208  -4.053   0.074  0.00  0.00    +0.029 A 
ATOM      8  C   UNL     1      -3.508  -4.410  -0.230  0.00  0.00    +0.043 A 
ATOM      9  C   UNL     1      -3.949  -5.696   0.025  0.00  0.00    +0.043 A 
ATOM     10  C   UNL     1      -3.090  -6.620   0.581  0.00  0.00    +0.084 A 
ATOM     11 CL   UNL     1      -3.645  -8.234   0.900  0.00  0.00    -0.080 Cl
ATOM     12 CL   UNL     1      -4.588  -3.244  -0.929  0.00  0.00    -0.083 Cl
ENDROOT
BRANCH   1  19
ATOM     13  C   UNL     1      -0.018   1.461   0.010  0.00  0.00    +0.172 C 
ATOM     14  N   UNL     1       0.002  -0.004   0.002  0.00  0.00    -0.273 N 
ATOM     15  C   UNL     1       0.008  -0.791  -1.095  0.00  0.00    +0.110 A 
ATOM     16  C   UNL     1       0.028  -2.078  -0.681  0.00  0.00    +0.064 A 
ATOM     17  C   UNL     1       0.035  -2.080   0.723  0.00  0.00    +0.141 A 
ATOM     18  N   UNL     1       0.025  -0.833   1.131  0.00  0.00    -0.157 NA
ATOM     19  N   UNL     1       0.055  -3.214   1.544  0.00  0.00    -0.321 N 
ATOM     20  H   UNL     1       0.058  -3.114   2.509  0.00  0.00    +0.148 HD
ENDBRANCH   1  19
TORSDOF 1
