REMARK  Name = ZINC07778417
REMARK  8 active torsions:
REMARK  status: ('A' for Active; 'I' for Inactive)
REMARK    1  A    between atoms: C_1  and  C_2
REMARK    2  A    between atoms: C_2  and  C_3
REMARK    3  A    between atoms: C_3  and  C_24
REMARK    4  A    between atoms: N_6  and  C_10
REMARK    5  A    between atoms: C_10  and  C_12
REMARK    6  A    between atoms: C_10  and  C_13
REMARK    7  A    between atoms: N_15  and  C_16
REMARK    8  A    between atoms: C_21  and  C_22
REMARK                            x       y       z     vdW  Elec       q    Type
REMARK                         _______ _______ _______ _____ _____    ______ ____
ROOT
ATOM      1  C   UNL     1      -0.017  -0.011   0.008  0.00  0.00    +0.138 C 
ATOM      2  C   UNL     1       0.130  -0.553   1.416  0.00  0.00    +0.252 C 
ATOM      3  O   UNL     1      -0.637  -0.402   2.342  0.00  0.00    -0.272 OA
ATOM      4  N   UNL     1       1.291  -1.238   1.423  0.00  0.00    -0.212 N 
ATOM      5  C   UNL     1       1.891  -1.204   0.228  0.00  0.00    +0.310 C 
ATOM      6  O   UNL     1       2.951  -1.749  -0.011  0.00  0.00    -0.252 OA
ATOM      7  N   UNL     1       1.192  -0.498  -0.679  0.00  0.00    -0.281 N 
ATOM      8  H   UNL     1       1.435  -0.341  -1.605  0.00  0.00    +0.152 HD
ENDROOT
BRANCH   1   9
ATOM      9  C   UNL     1      -0.048   1.496   0.021  0.00  0.00    -0.015 A 
ATOM     10  C   UNL     1      -1.259   2.162   0.029  0.00  0.00    +0.009 A 
ATOM     11  C   UNL     1      -1.288   3.544   0.046  0.00  0.00    +0.039 A 
ATOM     12  C   UNL     1      -0.104   4.261   0.044  0.00  0.00    +0.123 A 
ATOM     13  C   UNL     1       1.109   3.593   0.031  0.00  0.00    +0.039 A 
ATOM     14  C   UNL     1       1.136   2.211   0.019  0.00  0.00    +0.009 A 
ATOM     15  F   UNL     1      -0.131   5.612   0.055  0.00  0.00    -0.205 F 
ENDBRANCH   1   9
BRANCH   1  17
ATOM     16  C   UNL     1      -1.220  -2.096  -0.658  0.00  0.00    +0.007 C 
ATOM     17  C   UNL     1      -1.276  -0.567  -0.658  0.00  0.00    +0.037 C 
ENDBRANCH   1  17
BRANCH   4  18
ATOM     18  C   UNL     1       1.828  -1.934   2.595  0.00  0.00    +0.168 C 
ATOM     19  C   UNL     1       3.196  -1.350   2.952  0.00  0.00    +0.038 C 
BRANCH  18  20
ATOM     20  C   UNL     1       1.974  -3.402   2.283  0.00  0.00    +0.238 C 
ATOM     21  O   UNL     1       1.660  -3.824   1.191  0.00  0.00    -0.273 OA
ATOM     22  N   UNL     1       2.453  -4.245   3.220  0.00  0.00    -0.283 N 
ATOM     23  H   UNL     1       2.779  -3.897   4.064  0.00  0.00    +0.155 HD
BRANCH  22  24
ATOM     24  C   UNL     1       2.481  -5.617   2.974  0.00  0.00    +0.051 A 
ATOM     25  C   UNL     1       1.598  -6.180   2.063  0.00  0.00    +0.024 A 
ATOM     26  C   UNL     1       1.630  -7.538   1.817  0.00  0.00    +0.002 A 
ATOM     27  C   UNL     1       2.534  -8.350   2.482  0.00  0.00    +0.001 A 
ATOM     28  C   UNL     1       3.415  -7.809   3.394  0.00  0.00    +0.021 A 
ATOM     29  C   UNL     1       3.398  -6.436   3.650  0.00  0.00    +0.073 A 
BRANCH  29  30
ATOM     30  C   UNL     1       4.310  -5.867   4.596  0.00  0.00    +0.101 C 
ATOM     31  N   UNL     1       5.033  -5.417   5.347  0.00  0.00    -0.191 NA
ENDBRANCH  29  30
ENDBRANCH  22  24
ENDBRANCH  18  20
ENDBRANCH   4  18
TORSDOF 6
