REMARK  Name = ZINC15972392
REMARK  5 active torsions:
REMARK  status: ('A' for Active; 'I' for Inactive)
REMARK    1  A    between atoms: C_1  and  N_2
REMARK    2  A    between atoms: C_4  and  C_27
REMARK    3  A    between atoms: C_6  and  C_18
REMARK    4  A    between atoms: C_18  and  C_20
REMARK    5  A    between atoms: C_31  and  N_33
REMARK                            x       y       z     vdW  Elec       q    Type
REMARK                         _______ _______ _______ _____ _____    ______ ____
ROOT
ATOM      1  C   UNL     1      -0.809  -3.028   3.017  0.00  0.00    +0.106 C 
ATOM      2  N   UNL     1      -0.517  -2.398   1.723  0.00  0.00    -0.287 NA
ATOM      3  C   UNL     1       0.883  -1.901   1.675  0.00  0.00    +0.094 C 
ATOM      4  C   UNL     1       1.174  -1.794   0.157  0.00  0.00    +0.046 C 
ATOM      5  C   UNL     1       0.430  -3.020  -0.426  0.00  0.00    +0.103 C 
ATOM      6  C   UNL     1      -0.630  -3.372   0.625  0.00  0.00    +0.136 C 
ATOM      7  C   UNL     1      -2.010  -3.360   0.027  0.00  0.00    +0.004 A 
ATOM      8  C   UNL     1      -2.764  -2.388  -0.592  0.00  0.00    +0.008 A 
ATOM      9  C   UNL     1      -4.036  -2.685  -1.049  0.00  0.00    +0.000 A 
ATOM     10  C   UNL     1      -4.547  -3.959  -0.882  0.00  0.00    +0.002 A 
ATOM     11  C   UNL     1      -3.795  -4.936  -0.263  0.00  0.00    +0.023 A 
ATOM     12  C   UNL     1      -2.514  -4.646   0.200  0.00  0.00    +0.039 A 
ATOM     13  N   UNL     1      -1.573  -5.450   0.846  0.00  0.00    -0.283 N 
ATOM     14  C   UNL     1      -0.441  -4.779   1.130  0.00  0.00    +0.243 C 
ATOM     15  O   UNL     1       0.542  -5.223   1.685  0.00  0.00    -0.273 OA
ATOM     16  H   UNL     1      -1.719  -6.383   1.066  0.00  0.00    +0.155 HD
ENDROOT
BRANCH   4  17
ATOM     17  C   UNL     1       2.654  -1.887  -0.111  0.00  0.00    -0.040 A 
ATOM     18  C   UNL     1       3.554  -1.771   0.932  0.00  0.00    +0.004 A 
ATOM     19  C   UNL     1       4.911  -1.856   0.686  0.00  0.00    +0.002 A 
ATOM     20  C   UNL     1       5.369  -2.058  -0.602  0.00  0.00    +0.033 A 
ATOM     21  C   UNL     1       4.470  -2.174  -1.645  0.00  0.00    +0.126 A 
ATOM     22  C   UNL     1       3.112  -2.093  -1.399  0.00  0.00    +0.036 A 
BRANCH  21  23
ATOM     23  N   UNL     1       4.960  -2.389  -3.025  0.00  0.00    +0.056 N 
ATOM     24  O   UNL     1       6.147  -2.463  -3.240  0.00  0.00    -0.126 OA
ATOM     25  O   UNL     1       4.173  -2.491  -3.937  0.00  0.00    -0.126 OA
ENDBRANCH  21  23
ENDBRANCH   4  17
BRANCH   5  26
ATOM     26  C   UNL     1       1.385  -4.170  -0.617  0.00  0.00    +0.169 C 
ATOM     27  O   UNL     1       2.303  -4.332   0.159  0.00  0.00    -0.292 OA
BRANCH  26  28
ATOM     28  C   UNL     1       1.203  -5.096  -1.744  0.00  0.00    +0.018 A 
ATOM     29  C   UNL     1       0.149  -4.909  -2.645  0.00  0.00    +0.014 A 
ATOM     30  C   UNL     1      -0.016  -5.781  -3.699  0.00  0.00    +0.039 A 
ATOM     31  C   UNL     1       0.861  -6.842  -3.868  0.00  0.00    +0.123 A 
ATOM     32  C   UNL     1       1.909  -7.033  -2.979  0.00  0.00    +0.039 A 
ATOM     33  C   UNL     1       2.088  -6.166  -1.925  0.00  0.00    +0.014 A 
ATOM     34  F   UNL     1       0.694  -7.694  -4.904  0.00  0.00    -0.205 F 
ENDBRANCH  26  28
ENDBRANCH   5  26
TORSDOF 4
