REMARK  Name = ZINC40269672
REMARK  3 active torsions:
REMARK  status: ('A' for Active; 'I' for Inactive)
REMARK    1  A    between atoms: C_1  and  C_2
REMARK    2  A    between atoms: C_5  and  C_7
REMARK    3  A    between atoms: C_7  and  C_9
REMARK                            x       y       z     vdW  Elec       q    Type
REMARK                         _______ _______ _______ _____ _____    ______ ____
ROOT
ATOM      1  C   UNL     1       2.473  -3.268   1.261  0.00  0.00    -0.021 A 
ATOM      2  C   UNL     1       3.355  -2.243   1.551  0.00  0.00    +0.007 A 
ATOM      3  C   UNL     1       4.074  -2.268   2.726  0.00  0.00    +0.025 A 
ATOM      4  C   UNL     1       3.923  -3.320   3.634  0.00  0.00    +0.055 A 
ATOM      5  C   UNL     1       3.040  -4.346   3.343  0.00  0.00    +0.055 A 
ATOM      6  C   UNL     1       2.312  -4.308   2.151  0.00  0.00    +0.030 A 
ATOM      7  N   UNL     1       2.818  -5.436   4.180  0.00  0.00    -0.284 N 
ATOM      8  C   UNL     1       3.756  -6.101   4.851  0.00  0.00    +0.226 C 
ATOM      9  O   UNL     1       3.440  -7.063   5.519  0.00  0.00    -0.275 OA
ATOM     10  C   UNL     1       5.202  -5.682   4.795  0.00  0.00    +0.192 C 
ATOM     11  C   UNL     1       5.313  -4.291   5.362  0.00  0.00    +0.226 C 
ATOM     12  O   UNL     1       5.985  -4.105   6.355  0.00  0.00    -0.275 OA
ATOM     13  N   UNL     1       4.688  -3.262   4.795  0.00  0.00    -0.284 N 
ATOM     14  H   UNL     1       1.902  -5.736   4.284  0.00  0.00    +0.155 HD
ATOM     15  H   UNL     1       4.774  -2.398   5.227  0.00  0.00    +0.155 HD
ENDROOT
BRANCH   1  16
ATOM     16  C   UNL     1       1.684  -3.245  -0.023  0.00  0.00    +0.176 C 
ATOM     17 CL   UNL     1       2.814  -3.098  -1.420  0.00  0.00    -0.108 Cl
BRANCH  16  22
ATOM     18  C   UNL     1      -0.018   1.503   0.010  0.00  0.00    +0.086 C 
ATOM     19  C   UNL     1       0.002  -0.004   0.002  0.00  0.00    +0.102 A 
ATOM     20  C   UNL     1      -1.078  -0.805   0.003  0.00  0.00    +0.045 A 
ATOM     21  C   UNL     1      -0.601  -2.136  -0.007  0.00  0.00    +0.047 A 
ATOM     22  C   UNL     1       0.742  -2.069  -0.013  0.00  0.00    +0.127 A 
ATOM     23  O   UNL     1       1.102  -0.775  -0.013  0.00  0.00    -0.463 OA
ENDBRANCH  16  22
ENDBRANCH   1  16
TORSDOF 2
