REMARK  Name = ZINC00168754
REMARK  3 active torsions:
REMARK  status: ('A' for Active; 'I' for Inactive)
REMARK    1  A    between atoms: C_10  and  C_11
REMARK    2  A    between atoms: N_13  and  C_14
REMARK    3  A    between atoms: C_18  and  N_20
REMARK                            x       y       z     vdW  Elec       q    Type
REMARK                         _______ _______ _______ _____ _____    ______ ____
ROOT
ATOM      1  C   UNL     1      -2.577   3.828   0.041  0.00  0.00    +0.249 C 
ATOM      2  O   UNL     1      -2.612   5.040   0.143  0.00  0.00    -0.270 OA
ATOM      3  N   UNL     1      -3.724   3.126  -0.046  0.00  0.00    -0.281 N 
ATOM      4  H   UNL     1      -3.700   2.156  -0.047  0.00  0.00    +0.155 HD
ENDROOT
BRANCH   1  14
ATOM      5  C   UNL     1       2.328   5.258  -0.088  0.00  0.00    +0.001 A 
ATOM      6  C   UNL     1       1.114   5.941  -0.063  0.00  0.00    +0.001 A 
ATOM      7  C   UNL     1      -0.069   5.265  -0.030  0.00  0.00    +0.009 A 
ATOM      8  C   UNL     1      -0.069   3.864  -0.020  0.00  0.00    -0.006 A 
ATOM      9  C   UNL     1       1.164   3.168  -0.046  0.00  0.00    -0.017 A 
ATOM     10  C   UNL     1       2.365   3.897  -0.080  0.00  0.00    +0.008 A 
ATOM     11  C   UNL     1       1.166   1.762  -0.037  0.00  0.00    +0.008 A 
ATOM     12  C   UNL     1      -0.011   1.077  -0.004  0.00  0.00    +0.001 A 
ATOM     13  C   UNL     1      -1.231   1.742   0.015  0.00  0.00    +0.014 A 
ATOM     14  C   UNL     1      -1.280   3.128   0.014  0.00  0.00    +0.045 A 
ENDBRANCH   1  14
BRANCH   3  15
ATOM     15  C   UNL     1      -4.949   3.795  -0.137  0.00  0.00    +0.036 A 
ATOM     16  C   UNL     1      -6.082   3.255   0.458  0.00  0.00    +0.026 A 
ATOM     17  C   UNL     1      -7.290   3.920   0.372  0.00  0.00    +0.042 A 
ATOM     18  C   UNL     1      -7.374   5.119  -0.316  0.00  0.00    +0.154 A 
ATOM     19  C   UNL     1      -6.247   5.656  -0.914  0.00  0.00    +0.163 A 
ATOM     20  C   UNL     1      -5.036   4.997  -0.826  0.00  0.00    +0.059 A 
ATOM     21  F   UNL     1      -8.557   5.765  -0.403  0.00  0.00    -0.203 F 
BRANCH  19  22
ATOM     22  N   UNL     1      -6.339   6.938  -1.648  0.00  0.00    +0.059 N 
ATOM     23  O   UNL     1      -5.348   7.412  -2.175  0.00  0.00    -0.126 OA
ATOM     24  O   UNL     1      -7.407   7.519  -1.726  0.00  0.00    -0.126 OA
ENDBRANCH  19  22
ENDBRANCH   3  15
TORSDOF 3
