REMARK  Name = ZINC65254950
REMARK  6 active torsions:
REMARK  status: ('A' for Active; 'I' for Inactive)
REMARK    1  A    between atoms: C_1  and  C_2
REMARK    2  A    between atoms: C_5  and  N_8
REMARK    3  A    between atoms: C_9  and  C_11
REMARK    4  A    between atoms: C_13  and  C_20
REMARK    5  A    between atoms: C_20  and  C_21
REMARK    6  A    between atoms: C_20  and  C_22
REMARK                            x       y       z     vdW  Elec       q    Type
REMARK                         _______ _______ _______ _____ _____    ______ ____
ROOT
ATOM      1  C   UNL     1       0.306  -6.322   1.122  0.00  0.00    +0.130 A 
ATOM      2  C   UNL     1       0.422  -7.034   2.337  0.00  0.00    +0.056 A 
ATOM      3  C   UNL     1       0.540  -8.382   2.307  0.00  0.00    +0.050 A 
ATOM      4  N   UNL     1       0.545  -9.024   1.101  0.00  0.00    -0.218 N 
ATOM      5  C   UNL     1       0.430  -8.300  -0.062  0.00  0.00    +0.157 A 
ATOM      6  N   UNL     1       0.308  -6.972  -0.028  0.00  0.00    -0.223 NA
ATOM      7  C   UNL     1       0.466  -9.215  -1.111  0.00  0.00    +0.069 A 
ATOM      8  C   UNL     1       0.603 -10.478  -0.561  0.00  0.00    +0.137 A 
ATOM      9  N   UNL     1       0.650 -10.374   0.749  0.00  0.00    -0.173 NA
ENDROOT
BRANCH   1  11
ATOM     10  N   UNL     1       0.058  -4.169  -0.021  0.00  0.00    -0.280 N 
ATOM     11  C   UNL     1       0.174  -4.848   1.138  0.00  0.00    +0.267 C 
ATOM     12  O   UNL     1       0.172  -4.249   2.195  0.00  0.00    -0.268 OA
ATOM     13  H   UNL     1      -0.017  -4.650  -0.860  0.00  0.00    +0.155 HD
BRANCH  10  18
ATOM     14  C   UNL     1       0.006   1.503   0.009  0.00  0.00    +0.044 C 
ATOM     15  C   UNL     1       0.020  -0.004   0.001  0.00  0.00    -0.050 A 
ATOM     16  C   UNL     1      -0.724  -0.696  -0.938  0.00  0.00    +0.005 A 
ATOM     17  C   UNL     1      -0.713  -2.077  -0.948  0.00  0.00    +0.023 A 
ATOM     18  C   UNL     1       0.045  -2.771  -0.014  0.00  0.00    +0.034 A 
ATOM     19  C   UNL     1       0.791  -2.073   0.927  0.00  0.00    +0.023 A 
ATOM     20  C   UNL     1       0.781  -0.692   0.928  0.00  0.00    +0.005 A 
ENDBRANCH  10  18
ENDBRANCH   1  11
BRANCH   3  21
ATOM     21  C   UNL     1       0.666  -9.165   3.588  0.00  0.00    +0.032 C 
ATOM     22  C   UNL     1      -0.496 -10.154   3.698  0.00  0.00    +0.014 C 
ATOM     23  C   UNL     1       1.990  -9.932   3.589  0.00  0.00    +0.014 C 
ENDBRANCH   3  21
TORSDOF 3
