REMARK  Name = ZINC39326842
REMARK  12 active torsions:
REMARK  status: ('A' for Active; 'I' for Inactive)
REMARK    1  A    between atoms: C_1  and  O_2
REMARK    2  A    between atoms: O_2  and  C_3
REMARK    3  A    between atoms: C_6  and  C_11
REMARK    4  A    between atoms: C_8  and  O_9
REMARK    5  A    between atoms: O_9  and  C_10
REMARK    6  A    between atoms: C_19  and  N_35
REMARK    7  A    between atoms: C_20  and  C_33
REMARK    8  A    between atoms: C_21  and  C_23
REMARK    9  A    between atoms: C_26  and  O_31
REMARK   10  A    between atoms: C_27  and  O_29
REMARK   11  A    between atoms: O_29  and  C_30
REMARK   12  A    between atoms: O_31  and  C_32
REMARK                            x       y       z     vdW  Elec       q    Type
REMARK                         _______ _______ _______ _____ _____    ______ ____
ROOT
ATOM      1  C   UNL     1      -4.960  -2.613   0.036  0.00  0.00    +0.016 C 
ATOM      2  C   UNL     1      -6.094  -1.897   0.147  0.00  0.00    +0.009 C 
ATOM      3  C   UNL     1      -6.069  -0.382   0.145  0.00  0.00    +0.120 C 
ATOM      4  N   UNL     1      -7.034   0.064   1.167  0.00  0.00    -0.308 NA
ATOM      5  C   UNL     1      -8.393  -0.346   0.810  0.00  0.00    +0.117 C 
ATOM      6  C   UNL     1      -8.484  -1.834   0.590  0.00  0.00    -0.001 C 
ATOM      7  C   UNL     1      -7.409  -2.558   0.269  0.00  0.00    +0.136 C 
ATOM      8  O   UNL     1      -7.484  -3.894   0.055  0.00  0.00    -0.441 OA
ATOM      9  C   UNL     1      -8.518  -4.598   0.547  0.00  0.00    +0.199 C 
ATOM     10  C   UNL     1      -9.678  -3.982   0.888  0.00  0.00    +0.098 C 
ATOM     11  C   UNL     1      -9.834  -2.496   0.734  0.00  0.00    +0.095 C 
ATOM     12  H   UNL     1      -6.779  -0.282   2.080  0.00  0.00    +0.123 HD
ENDROOT
BRANCH   1  16
ATOM     13  C   UNL     1      -1.288  -0.650  -0.800  0.00  0.00    +0.162 A 
ATOM     14  C   UNL     1      -2.474  -0.150  -1.317  0.00  0.00    +0.050 A 
ATOM     15  C   UNL     1      -3.669  -0.784  -1.048  0.00  0.00    +0.012 A 
ATOM     16  C   UNL     1      -3.686  -1.934  -0.253  0.00  0.00    -0.021 A 
ATOM     17  C   UNL     1      -2.490  -2.438   0.267  0.00  0.00    +0.057 A 
ATOM     18  C   UNL     1      -1.296  -1.799  -0.011  0.00  0.00    +0.162 A 
BRANCH  13  20
ATOM     19  C   UNL     1      -0.176   1.151  -1.883  0.00  0.00    +0.277 C 
ATOM     20  O   UNL     1      -0.113  -0.021  -1.068  0.00  0.00    -0.491 OA
ENDBRANCH  13  20
BRANCH  18  21
ATOM     21  O   UNL     1      -0.130  -2.289   0.489  0.00  0.00    -0.491 OA
ATOM     22  C   UNL     1      -0.213  -3.470   1.289  0.00  0.00    +0.277 C 
ENDBRANCH  18  21
ENDBRANCH   1  16
BRANCH  11  23
ATOM     23  C   UNL     1     -10.657  -2.222  -0.499  0.00  0.00    -0.031 A 
ATOM     24  C   UNL     1     -10.208  -2.647  -1.736  0.00  0.00    +0.008 A 
ATOM     25  C   UNL     1     -10.960  -2.398  -2.869  0.00  0.00    +0.050 A 
ATOM     26  C   UNL     1     -12.165  -1.722  -2.767  0.00  0.00    +0.162 A 
ATOM     27  C   UNL     1     -12.617  -1.296  -1.522  0.00  0.00    +0.162 A 
ATOM     28  C   UNL     1     -11.861  -1.553  -0.389  0.00  0.00    +0.054 A 
BRANCH  27  29
ATOM     29  O   UNL     1     -13.799  -0.633  -1.416  0.00  0.00    -0.491 OA
ATOM     30  C   UNL     1     -14.200  -0.225  -0.107  0.00  0.00    +0.277 C 
ENDBRANCH  27  29
BRANCH  26  31
ATOM     31  O   UNL     1     -12.905  -1.477  -3.881  0.00  0.00    -0.491 OA
ATOM     32  C   UNL     1     -12.379  -1.943  -5.125  0.00  0.00    +0.277 C 
ENDBRANCH  26  31
ENDBRANCH  11  23
BRANCH   9  33
ATOM     33  N   UNL     1      -8.399  -5.956   0.707  0.00  0.00    -0.328 N 
ATOM     34  H   UNL     1      -7.573  -6.402   0.465  0.00  0.00    +0.145 HD
ATOM     35  H   UNL     1      -9.142  -6.469   1.062  0.00  0.00    +0.145 HD
ENDBRANCH   9  33
BRANCH  10  36
ATOM     36  C   UNL     1     -10.763  -4.755   1.411  0.00  0.00    +0.101 C 
ATOM     37  N   UNL     1     -11.624  -5.369   1.827  0.00  0.00    -0.191 NA
ENDBRANCH  10  36
TORSDOF 8
