REMARK  Name = ZINC38556394
REMARK  4 active torsions:
REMARK  status: ('A' for Active; 'I' for Inactive)
REMARK    1  A    between atoms: C_4  and  C_7
REMARK    2  A    between atoms: C_8  and  C_9
REMARK    3  A    between atoms: N_10  and  N_11
REMARK    4  A    between atoms: C_12  and  C_18
REMARK                            x       y       z     vdW  Elec       q    Type
REMARK                         _______ _______ _______ _____ _____    ______ ____
ROOT
ATOM      1  N   UNL     1       1.143  -4.471  -0.224  0.00  0.00    -0.175 N 
ATOM      2  C   UNL     1       0.882  -5.904  -0.004  0.00  0.00    +0.230 C 
ATOM      3  N   UNL     1      -0.576  -6.028  -0.168  0.00  0.00    -0.242 N 
ATOM      4  N   UNL     1      -1.046  -4.740  -0.456  0.00  0.00    -0.160 NA
ATOM      5  C   UNL     1      -0.083  -3.881  -0.479  0.00  0.00    +0.206 C 
ATOM      6  S   UNL     1      -0.302  -2.162  -0.801  0.00  0.00    -0.011 SA
ATOM      7  H   UNL     1      -1.105  -6.838  -0.092  0.00  0.00    +0.170 HD
ENDROOT
BRANCH   2   8
ATOM      8  C   UNL     1       1.304  -6.315   1.408  0.00  0.00    +0.197 C 
ATOM      9  C   UNL     1       1.095  -7.801   1.619  0.00  0.00    -0.017 C 
ATOM     10  C   UNL     1       2.312  -8.283   1.865  0.00  0.00    +0.065 C 
ATOM     11  C   UNL     1       2.235  -9.782   2.095  0.00  0.00    +0.057 C 
ATOM     12  C   UNL     1       0.744 -10.069   2.378  0.00  0.00    +0.011 C 
ATOM     13  C   UNL     1       0.055  -8.890   1.654  0.00  0.00    +0.035 C 
ATOM     14  N   UNL     1       3.225  -7.275   1.829  0.00  0.00    -0.158 NA
ATOM     15  N   UNL     1       2.757  -6.158   1.586  0.00  0.00    -0.176 NA
ENDBRANCH   2   8
BRANCH   1  17
ATOM     16  C   UNL     1       3.302  -4.119  -1.062  0.00  0.00    +0.150 C 
ATOM     17  N   UNL     1       2.388  -3.830  -0.179  0.00  0.00    -0.183 NA
BRANCH  16  19
ATOM     18  C   UNL     1       5.440  -3.647  -2.041  0.00  0.00    +0.029 C 
ATOM     19  C   UNL     1       4.522  -3.396  -1.082  0.00  0.00    +0.061 C 
ATOM     20 CL   UNL     1       4.835  -2.189   0.125  0.00  0.00    -0.082 Cl
BRANCH  18  24
ATOM     21  C   UNL     1       4.483  -6.221  -5.273  0.00  0.00    +0.000 A 
ATOM     22  C   UNL     1       3.505  -5.409  -4.727  0.00  0.00    +0.001 A 
ATOM     23  C   UNL     1       3.808  -4.569  -3.676  0.00  0.00    +0.008 A 
ATOM     24  C   UNL     1       5.108  -4.541  -3.162  0.00  0.00    -0.024 A 
ATOM     25  C   UNL     1       6.091  -5.365  -3.719  0.00  0.00    +0.008 A 
ATOM     26  C   UNL     1       5.772  -6.198  -4.770  0.00  0.00    +0.001 A 
ENDBRANCH  18  24
ENDBRANCH  16  19
ENDBRANCH   1  17
TORSDOF 4
