REMARK  Name = ZINC20358292
REMARK  11 active torsions:
REMARK  status: ('A' for Active; 'I' for Inactive)
REMARK    1  A    between atoms: C_1  and  C_2
REMARK    2  A    between atoms: C_2  and  N_3
REMARK    3  A    between atoms: N_3  and  C_4
REMARK    4  A    between atoms: N_3  and  C_6
REMARK    5  A    between atoms: C_4  and  C_5
REMARK    6  A    between atoms: C_6  and  C_7
REMARK    7  A    between atoms: C_7  and  N_8
REMARK    8  A    between atoms: C_10  and  C_26
REMARK    9  A    between atoms: C_13  and  C_15
REMARK   10  A    between atoms: C_22  and  C_24
REMARK   11  A    between atoms: C_22  and  C_25
REMARK                            x       y       z     vdW  Elec       q    Type
REMARK                         _______ _______ _______ _____ _____    ______ ____
ROOT
ATOM      1  N   UNL     1      -0.803  -3.594   2.129  0.00  0.00    -0.330 N 
ATOM      2  C   UNL     1      -0.259  -4.060   3.313  0.00  0.00    +0.137 A 
ATOM      3  C   UNL     1      -0.301  -5.435   3.609  0.00  0.00    +0.095 A 
ATOM      4  C   UNL     1       0.259  -5.889   4.814  0.00  0.00    -0.016 A 
ATOM      5  C   UNL     1       0.830  -4.973   5.664  0.00  0.00    +0.012 A 
ATOM      6  C   UNL     1       0.833  -3.618   5.306  0.00  0.00    +0.114 A 
ATOM      7  N   UNL     1       0.301  -3.211   4.158  0.00  0.00    -0.227 NA
ATOM      8  C   UNL     1       1.458  -5.393   6.965  0.00  0.00    +0.198 C 
ATOM      9  O   UNL     1       1.038  -6.712   7.313  0.00  0.00    -0.369 OA
ATOM     10  C   UNL     1       1.224  -7.661   6.257  0.00  0.00    +0.068 C 
ATOM     11  C   UNL     1       0.217  -7.356   5.145  0.00  0.00    +0.071 C 
ATOM     12  C   UNL     1       2.647  -7.546   5.707  0.00  0.00    +0.041 C 
ATOM     13  C   UNL     1       0.988  -9.076   6.789  0.00  0.00    +0.041 C 
ATOM     14  H   UNL     1      -1.214  -4.215   1.507  0.00  0.00    +0.147 HD
ENDROOT
BRANCH   6  15
ATOM     15  C   UNL     1       1.439  -2.628   6.216  0.00  0.00    +0.153 A 
ATOM     16  C   UNL     1       2.112  -1.506   5.842  0.00  0.00    +0.051 A 
ATOM     17  C   UNL     1       2.514  -0.860   7.026  0.00  0.00    +0.042 A 
ATOM     18  C   UNL     1       2.071  -1.611   8.055  0.00  0.00    +0.196 A 
ATOM     19  O   UNL     1       1.418  -2.675   7.563  0.00  0.00    -0.461 OA
ENDBRANCH   6  15
BRANCH   3  20
ATOM     20  C   UNL     1      -0.905  -6.357   2.696  0.00  0.00    +0.103 C 
ATOM     21  N   UNL     1      -1.384  -7.089   1.971  0.00  0.00    -0.191 NA
ENDBRANCH   3  20
BRANCH   1  22
ATOM     22  C   UNL     1      -0.756  -2.164   1.814  0.00  0.00    +0.084 C 
BRANCH  22  23
ATOM     23  C   UNL     1      -1.421  -1.919   0.458  0.00  0.00    -0.060 C 
BRANCH  23  24
ATOM     24  N   UNL     1      -1.374  -0.485   0.142  0.00  0.00    +0.380 N 
ATOM     25  H   UNL     1      -1.792   0.039   0.895  0.00  0.00    -0.082 HD
BRANCH  24  27
ATOM     26  C   UNL     1       0.082   1.451  -0.216  0.00  0.00    -0.017 C 
ATOM     27  C   UNL     1       0.024  -0.066  -0.029  0.00  0.00    -0.082 C 
ENDBRANCH  24  27
BRANCH  24  28
ATOM     28  C   UNL     1      -2.116  -0.233  -1.101  0.00  0.00    -0.082 C 
ATOM     29  C   UNL     1      -3.600  -0.533  -0.879  0.00  0.00    -0.017 C 
ENDBRANCH  24  28
ENDBRANCH  23  24
ENDBRANCH  22  23
ENDBRANCH   1  22
TORSDOF 7
