REMARK  Name = ZINC20757989
REMARK  7 active torsions:
REMARK  status: ('A' for Active; 'I' for Inactive)
REMARK    1  A    between atoms: C_1  and  C_2
REMARK    2  A    between atoms: C_2  and  C_3
REMARK    3  A    between atoms: C_3  and  C_5
REMARK    4  A    between atoms: C_3  and  N_6
REMARK    5  A    between atoms: C_8  and  C_15
REMARK    6  A    between atoms: N_29  and  C_30
REMARK    7  A    between atoms: C_30  and  C_31
REMARK                            x       y       z     vdW  Elec       q    Type
REMARK                         _______ _______ _______ _____ _____    ______ ____
ROOT
ATOM      1  C   UNL     1       2.411   1.084   0.083  0.00  0.00    +0.021 C 
ATOM      2  C   UNL     1       2.627   0.126  -1.064  0.00  0.00    +0.011 A 
ATOM      3  C   UNL     1       2.950  -1.175  -0.886  0.00  0.00    -0.022 A 
ATOM      4  C   UNL     1       3.072  -1.769  -2.199  0.00  0.00    +0.003 A 
ATOM      5  C   UNL     1       3.381  -3.062  -2.633  0.00  0.00    +0.010 A 
ATOM      6  C   UNL     1       3.409  -3.272  -3.989  0.00  0.00    +0.001 A 
ATOM      7  C   UNL     1       3.144  -2.259  -4.896  0.00  0.00    +0.002 A 
ATOM      8  C   UNL     1       2.839  -0.970  -4.496  0.00  0.00    +0.026 A 
ATOM      9  C   UNL     1       2.802  -0.727  -3.124  0.00  0.00    +0.047 A 
ATOM     10  N   UNL     1       2.538   0.401  -2.401  0.00  0.00    -0.359 N 
ATOM     11  H   UNL     1       2.283   1.417  -2.738  0.00  0.00    +0.166 HD
ATOM     12  C   UNL     1       3.131  -1.810   0.470  0.00  0.00    +0.019 C 
ATOM     13  C   UNL     1       3.283  -0.685   1.503  0.00  0.00    -0.073 C 
ATOM     14  N   UNL     1       2.211   0.302   1.313  0.00  0.00    +0.388 N 
ATOM     15  H   UNL     1       1.266  -0.252   1.208  0.00  0.00    -0.080 HD
ENDROOT
BRANCH   1  18
ATOM     16  N   UNL     1       0.182   4.025  -0.589  0.00  0.00    -0.258 N 
ATOM     17  C   UNL     1       1.306   3.277  -0.346  0.00  0.00    +0.262 A 
ATOM     18  C   UNL     1       1.191   1.928  -0.185  0.00  0.00    +0.074 A 
ATOM     19  C   UNL     1      -0.081   1.335  -0.272  0.00  0.00    +0.260 A 
ATOM     20  O   UNL     1      -0.207   0.130  -0.132  0.00  0.00    -0.267 OA
ATOM     21  N   UNL     1      -1.158   2.106  -0.518  0.00  0.00    -0.275 N 
ATOM     22  H   UNL     1      -2.152   1.640  -0.595  0.00  0.00    +0.173 HD
ATOM     23  C   UNL     1      -1.025   3.436  -0.670  0.00  0.00    +0.332 A 
ATOM     24  O   UNL     1      -2.010   4.116  -0.886  0.00  0.00    -0.246 OA
ATOM     25  O   UNL     1       2.515   3.871  -0.266  0.00  0.00    -0.267 OA
BRANCH  16  26
ATOM     26  C   UNL     1       0.297   5.475  -0.763  0.00  0.00    +0.092 C 
ATOM     27  C   UNL     1      -0.517   6.185   0.320  0.00  0.00    +0.031 C 
BRANCH  26  29
ATOM     28  C   UNL     1       0.652   5.258  -3.227  0.00  0.00    +0.006 C 
ATOM     29  C   UNL     1      -0.238   5.867  -2.142  0.00  0.00    +0.022 C 
ENDBRANCH  26  29
ENDBRANCH  16  26
ENDBRANCH   1  18
BRANCH  14  30
ATOM     30  C   UNL     1       2.092   1.182   2.484  0.00  0.00    -0.081 C 
ATOM     31  C   UNL     1       3.460   1.786   2.808  0.00  0.00    -0.017 C 
ENDBRANCH  14  30
TORSDOF 4
