REMARK  Name = ZINC17842729
REMARK  5 active torsions:
REMARK  status: ('A' for Active; 'I' for Inactive)
REMARK    1  A    between atoms: C_1  and  C_2
REMARK    2  A    between atoms: C_2  and  C_4
REMARK    3  A    between atoms: C_2  and  N_9
REMARK    4  A    between atoms: C_10  and  C_12
REMARK    5  A    between atoms: N_22  and  C_25
REMARK                            x       y       z     vdW  Elec       q    Type
REMARK                         _______ _______ _______ _____ _____    ______ ____
ROOT
ATOM      1  C   UNL     1       2.066   1.142   3.882  0.00  0.00    +0.039 A 
ATOM      2  C   UNL     1       2.039  -0.221   4.193  0.00  0.00    +0.014 A 
ATOM      3  C   UNL     1       2.720  -0.696   5.292  0.00  0.00    +0.016 A 
ATOM      4  C   UNL     1       3.439   0.188   6.094  0.00  0.00    +0.063 A 
ATOM      5  C   UNL     1       3.470   1.559   5.786  0.00  0.00    +0.056 A 
ATOM      6  C   UNL     1       2.788   2.031   4.676  0.00  0.00    +0.039 A 
ATOM      7  N   UNL     1       4.197   2.412   6.606  0.00  0.00    -0.307 N 
ATOM      8  H   UNL     1       4.227   3.360   6.405  0.00  0.00    +0.170 HD
ATOM      9  C   UNL     1       4.858   1.936   7.675  0.00  0.00    +0.334 A 
ATOM     10  O   UNL     1       5.482   2.717   8.367  0.00  0.00    -0.246 OA
ATOM     11  N   UNL     1       4.859   0.637   8.011  0.00  0.00    -0.229 N 
ATOM     12  C   UNL     1       4.184  -0.277   7.281  0.00  0.00    +0.269 A 
ATOM     13  O   UNL     1       4.189  -1.452   7.593  0.00  0.00    -0.266 OA
ENDROOT
BRANCH  11  14
ATOM     14  C   UNL     1       5.574   0.221   9.142  0.00  0.00    +0.054 A 
ATOM     15  C   UNL     1       6.902  -0.165   9.022  0.00  0.00    +0.026 A 
ATOM     16  C   UNL     1       7.606  -0.569  10.139  0.00  0.00    +0.002 A 
ATOM     17  C   UNL     1       6.986  -0.602  11.375  0.00  0.00    +0.000 A 
ATOM     18  C   UNL     1       5.661  -0.225  11.496  0.00  0.00    +0.002 A 
ATOM     19  C   UNL     1       4.954   0.187  10.384  0.00  0.00    +0.026 A 
ENDBRANCH  11  14
BRANCH   1  21
ATOM     20  N   UNL     1       0.636   0.785   1.925  0.00  0.00    -0.304 N 
ATOM     21  C   UNL     1       1.330   1.642   2.699  0.00  0.00    +0.245 C 
ATOM     22  O   UNL     1       1.352   2.826   2.425  0.00  0.00    -0.270 OA
ATOM     23  H   UNL     1       0.618  -0.160   2.143  0.00  0.00    +0.150 HD
BRANCH  20  25
ATOM     24  C   UNL     1       0.858   1.359  -0.442  0.00  0.00    +0.033 C 
ATOM     25  C   UNL     1      -0.093   1.280   0.754  0.00  0.00    +0.107 C 
BRANCH  25  26
ATOM     26  C   UNL     1      -1.226   0.340   0.433  0.00  0.00    +0.010 A 
ATOM     27  C   UNL     1      -2.490   0.630   0.039  0.00  0.00    +0.013 A 
ATOM     28  C   UNL     1      -3.370  -0.407  -0.206  0.00  0.00    +0.008 A 
ATOM     29  C   UNL     1      -2.947  -1.683  -0.034  0.00  0.00    +0.045 A 
ATOM     30  S   UNL     1      -1.255  -1.445   0.481  0.00  0.00    -0.100 S 
ENDBRANCH  25  26
ENDBRANCH  20  25
ENDBRANCH   1  21
TORSDOF 4
