REMARK  Name = ZINC12852763
REMARK  9 active torsions:
REMARK  status: ('A' for Active; 'I' for Inactive)
REMARK    1  A    between atoms: C_1  and  N_44
REMARK    2  A    between atoms: C_2  and  C_3
REMARK    3  A    between atoms: C_2  and  N_44
REMARK    4  A    between atoms: C_6  and  O_11
REMARK    5  A    between atoms: C_7  and  O_9
REMARK    6  A    between atoms: O_9  and  C_10
REMARK    7  A    between atoms: O_11  and  C_12
REMARK    8  A    between atoms: C_15  and  N_16
REMARK    9  A    between atoms: C_15  and  N_44
REMARK                            x       y       z     vdW  Elec       q    Type
REMARK                         _______ _______ _______ _____ _____    ______ ____
ROOT
ATOM      1  C   UNL     1      -0.045   8.215  -1.906  0.00  0.00    -0.093 C 
ATOM      2  N   UNL     1      -1.075   7.312  -1.349  0.00  0.00    +0.392 N 
ATOM      3  H   UNL     1      -1.105   6.454  -1.911  0.00  0.00    -0.079 HD
ENDROOT
BRANCH   2   4
ATOM      4  C   UNL     1      -2.400   7.966  -1.398  0.00  0.00    -0.041 C 
BRANCH   4   5
ATOM      5  C   UNL     1      -2.815   8.112  -2.839  0.00  0.00    -0.060 A 
ATOM      6  C   UNL     1      -2.495   9.263  -3.536  0.00  0.00    +0.005 A 
ATOM      7  C   UNL     1      -2.870   9.400  -4.860  0.00  0.00    +0.050 A 
ATOM      8  C   UNL     1      -3.577   8.387  -5.488  0.00  0.00    +0.168 A 
ATOM      9  C   UNL     1      -3.904   7.232  -4.785  0.00  0.00    +0.162 A 
ATOM     10  C   UNL     1      -3.521   7.099  -3.460  0.00  0.00    +0.051 A 
BRANCH   9  11
ATOM     11  O   UNL     1      -4.598   6.235  -5.397  0.00  0.00    -0.491 OA
ATOM     12  C   UNL     1      -4.898   5.078  -4.615  0.00  0.00    +0.277 C 
ENDBRANCH   9  11
BRANCH   8  13
ATOM     13  O   UNL     1      -3.950   8.523  -6.788  0.00  0.00    -0.431 OA
BRANCH  13  14
ATOM     14  C   UNL     1      -3.580   9.736  -7.447  0.00  0.00    +0.541 C 
ATOM     15  F   UNL     1      -4.151  10.823  -6.777  0.00  0.00    -0.166 F 
ATOM     16  F   UNL     1      -2.187   9.864  -7.441  0.00  0.00    -0.166 F 
ENDBRANCH  13  14
ENDBRANCH   8  13
ENDBRANCH   4   5
ENDBRANCH   2   4
BRANCH   2  17
ATOM     17  C   UNL     1      -0.737   6.961   0.047  0.00  0.00    +0.054 C 
BRANCH  17  18
ATOM     18  N   UNL     1       0.231   5.861   0.031  0.00  0.00    -0.291 N 
ATOM     19  C   UNL     1      -0.069   4.498   0.027  0.00  0.00    +0.088 A 
ATOM     20  C   UNL     1      -1.258   3.786   0.034  0.00  0.00    +0.031 A 
ATOM     21  C   UNL     1      -1.232   2.405   0.021  0.00  0.00    +0.022 A 
ATOM     22  C   UNL     1      -0.021   1.732   0.012  0.00  0.00    +0.045 A 
ATOM     23  C   UNL     1       1.168   2.436   0.004  0.00  0.00    +0.068 A 
ATOM     24  C   UNL     1       1.150   3.822   0.012  0.00  0.00    +0.158 A 
ATOM     25  O   UNL     1       2.130   4.759   0.007  0.00  0.00    -0.407 OA
ATOM     26  C   UNL     1       1.573   5.980   0.019  0.00  0.00    +0.420 A 
ATOM     27  O   UNL     1       2.185   7.031   0.020  0.00  0.00    -0.223 OA
ATOM     28 CL   UNL     1       0.002  -0.004   0.002  0.00  0.00    -0.083 Cl
ENDBRANCH  17  18
ENDBRANCH   2  17
TORSDOF 7
