REMARK  Name = ZINC01959421
REMARK  6 active torsions:
REMARK  status: ('A' for Active; 'I' for Inactive)
REMARK    1  A    between atoms: C_1  and  C_2
REMARK    2  A    between atoms: C_2  and  C_3
REMARK    3  A    between atoms: C_2  and  C_4
REMARK    4  A    between atoms: C_4  and  O_6
REMARK    5  A    between atoms: O_6  and  C_7
REMARK    6  A    between atoms: C_15  and  C_18
REMARK                            x       y       z     vdW  Elec       q    Type
REMARK                         _______ _______ _______ _____ _____    ______ ____
ROOT
ATOM      1  C   UNL     1       4.731   1.794  -0.028  0.00  0.00    +0.135 A 
ATOM      2  C   UNL     1       4.903   0.414   0.058  0.00  0.00    +0.047 A 
ATOM      3  C   UNL     1       3.819  -0.416   0.073  0.00  0.00    +0.019 A 
ATOM      4  C   UNL     1       2.534   0.122   0.001  0.00  0.00    +0.065 A 
ATOM      5  C   UNL     1       2.349   1.513  -0.086  0.00  0.00    +0.142 A 
ATOM      6  C   UNL     1       3.463   2.343  -0.100  0.00  0.00    +0.093 A 
ATOM      7  O   UNL     1       1.107   2.031  -0.156  0.00  0.00    -0.462 OA
ATOM      8  C   UNL     1      -0.000   1.285  -0.147  0.00  0.00    +0.208 A 
ATOM      9  C   UNL     1       0.032  -0.070  -0.067  0.00  0.00    +0.066 A 
ATOM     10  C   UNL     1       1.340  -0.743   0.014  0.00  0.00    +0.200 A 
ATOM     11  O   UNL     1       1.431  -1.956   0.087  0.00  0.00    -0.286 OA
ENDROOT
BRANCH   9  12
ATOM     12  C   UNL     1      -1.225  -0.858  -0.061  0.00  0.00    +0.007 A 
ATOM     13  C   UNL     1      -2.052  -0.862  -1.183  0.00  0.00    +0.010 A 
ATOM     14  C   UNL     1      -3.221  -1.597  -1.172  0.00  0.00    +0.001 A 
ATOM     15  C   UNL     1      -3.571  -2.328  -0.051  0.00  0.00    +0.001 A 
ATOM     16  C   UNL     1      -2.754  -2.329   1.065  0.00  0.00    +0.020 A 
ATOM     17  C   UNL     1      -1.580  -1.601   1.064  0.00  0.00    +0.049 A 
ATOM     18 CL   UNL     1      -0.551  -1.608   2.462  0.00  0.00    -0.083 Cl
ENDBRANCH   9  12
BRANCH   1  19
ATOM     19  O   UNL     1       5.818   2.608  -0.041  0.00  0.00    -0.426 OA
BRANCH  19  20
ATOM     20  C   UNL     1       6.598   2.566  -1.134  0.00  0.00    +0.315 C 
ATOM     21  O   UNL     1       6.264   1.906  -2.089  0.00  0.00    -0.250 OA
BRANCH  20  23
ATOM     22  C   UNL     1       8.580   3.122  -2.516  0.00  0.00    +0.019 C 
ATOM     23  C   UNL     1       7.890   3.341  -1.168  0.00  0.00    +0.092 C 
ATOM     24  C   UNL     1       7.596   4.831  -0.981  0.00  0.00    +0.019 C 
ENDBRANCH  20  23
ENDBRANCH  19  20
ENDBRANCH   1  19
TORSDOF 4
