REMARK  Name = ZINC12293543
REMARK  8 active torsions:
REMARK  status: ('A' for Active; 'I' for Inactive)
REMARK    1  A    between atoms: C_1  and  C_2
REMARK    2  A    between atoms: C_5  and  S_9
REMARK    3  A    between atoms: C_6  and  C_8
REMARK    4  A    between atoms: S_9  and  N_12
REMARK    5  A    between atoms: C_16  and  O_30
REMARK    6  A    between atoms: N_26  and  C_27
REMARK    7  A    between atoms: C_27  and  C_28
REMARK    8  A    between atoms: C_28  and  O_29
REMARK                            x       y       z     vdW  Elec       q    Type
REMARK                         _______ _______ _______ _____ _____    ______ ____
ROOT
ATOM      1  N   UNL     1       1.506  -5.005   0.635  0.00  0.00    -0.128 NA
ATOM      2  C   UNL     1       1.786  -6.279   0.749  0.00  0.00    +0.095 C 
ATOM      3  C   UNL     1       0.859  -7.349   0.304  0.00  0.00    +0.054 C 
ATOM      4  C   UNL     1       1.430  -8.440  -0.269  0.00  0.00    +0.073 C 
ATOM      5  C   UNL     1       2.915  -8.483  -0.457  0.00  0.00    +0.235 C 
ATOM      6  C   UNL     1       3.629  -7.909   0.729  0.00  0.00    +0.026 A 
ATOM      7  C   UNL     1       3.067  -6.776   1.332  0.00  0.00    +0.011 A 
ATOM      8  C   UNL     1       3.688  -6.178   2.412  0.00  0.00    +0.010 A 
ATOM      9  C   UNL     1       4.867  -6.717   2.898  0.00  0.00    +0.001 A 
ATOM     10  C   UNL     1       5.412  -7.841   2.305  0.00  0.00    +0.000 A 
ATOM     11  C   UNL     1       4.793  -8.438   1.230  0.00  0.00    +0.010 A 
ATOM     12  O   UNL     1       3.426  -9.713  -0.884  0.00  0.00    -0.339 OA
ATOM     13  C   UNL     1       2.632 -10.878  -0.791  0.00  0.00    +0.183 C 
ATOM     14  C   UNL     1       1.221 -10.646  -1.317  0.00  0.00    +0.133 C 
ATOM     15  N   UNL     1       0.632  -9.484  -0.654  0.00  0.00    -0.324 N 
ENDROOT
BRANCH   1  16
ATOM     16  S   UNL     1       0.063  -4.530  -0.023  0.00  0.00    +0.099 S 
ATOM     17  O   UNL     1      -0.953  -4.955   0.876  0.00  0.00    -0.146 OA
ATOM     18  O   UNL     1       0.087  -4.929  -1.387  0.00  0.00    -0.146 OA
BRANCH  16  23
ATOM     19  C   UNL     1      -0.018   1.503   0.010  0.00  0.00    +0.044 C 
ATOM     20  C   UNL     1       0.002  -0.004   0.002  0.00  0.00    -0.050 A 
ATOM     21  C   UNL     1       0.006  -0.689  -1.199  0.00  0.00    +0.005 A 
ATOM     22  C   UNL     1       0.025  -2.071  -1.207  0.00  0.00    +0.029 A 
ATOM     23  C   UNL     1       0.040  -2.768  -0.013  0.00  0.00    +0.115 A 
ATOM     24  C   UNL     1       0.037  -2.084   1.188  0.00  0.00    -0.023 A 
ATOM     25  C   UNL     1       0.023  -0.702   1.195  0.00  0.00    +0.008 A 
ATOM     26  C   UNL     1       0.054  -2.845   2.489  0.00  0.00    +0.046 C 
ENDBRANCH  16  23
ENDBRANCH   1  16
BRANCH   5  27
ATOM     27  O   UNL     1       3.188  -7.582  -1.533  0.00  0.00    -0.356 OA
ATOM     28  H   UNL     1       4.125  -7.514  -1.762  0.00  0.00    +0.213 HD
ENDBRANCH   5  27
BRANCH  15  29
ATOM     29  C   UNL     1      -0.810  -9.437  -0.400  0.00  0.00    +0.133 C 
BRANCH  29  30
ATOM     30  C   UNL     1      -1.517  -8.792  -1.594  0.00  0.00    +0.174 C 
BRANCH  30  31
ATOM     31  O   UNL     1      -1.363  -9.624  -2.746  0.00  0.00    -0.393 OA
ATOM     32  H   UNL     1      -1.787  -9.277  -3.542  0.00  0.00    +0.209 HD
ENDBRANCH  30  31
ENDBRANCH  29  30
ENDBRANCH  15  29
TORSDOF 6
