REMARK  Name = ZINC12607437
REMARK  7 active torsions:
REMARK  status: ('A' for Active; 'I' for Inactive)
REMARK    1  A    between atoms: C_1  and  C_2
REMARK    2  A    between atoms: C_3  and  C_8
REMARK    3  A    between atoms: C_4  and  C_7
REMARK    4  A    between atoms: C_8  and  S_9
REMARK    5  A    between atoms: S_9  and  C_10
REMARK    6  A    between atoms: C_11  and  C_25
REMARK    7  A    between atoms: C_12  and  C_20
REMARK                            x       y       z     vdW  Elec       q    Type
REMARK                         _______ _______ _______ _____ _____    ______ ____
ROOT
ATOM      1  C   UNL     1       4.121   1.484  -2.433  0.00  0.00    +0.116 A 
ATOM      2  C   UNL     1       3.768   0.305  -3.113  0.00  0.00    +0.094 A 
ATOM      3  C   UNL     1       2.564  -0.336  -2.752  0.00  0.00    +0.042 A 
ATOM      4  C   UNL     1       1.779   0.229  -1.732  0.00  0.00    -0.014 A 
ATOM      5  C   UNL     1       2.204   1.380  -1.115  0.00  0.00    +0.046 A 
ATOM      6  N   UNL     1       3.341   1.963  -1.482  0.00  0.00    -0.244 NA
ATOM      7  C   UNL     1       1.423   2.031  -0.001  0.00  0.00    +0.056 C 
ATOM      8  C   UNL     1      -0.019   1.529   0.010  0.00  0.00    +0.006 C 
ATOM      9  C   UNL     1       0.002  -0.004   0.002  0.00  0.00    +0.005 C 
ATOM     10  C   UNL     1       0.497  -0.469  -1.366  0.00  0.00    +0.038 C 
ENDROOT
BRANCH   3  11
ATOM     11  C   UNL     1       2.138  -1.573  -3.432  0.00  0.00    +0.136 A 
ATOM     12  C   UNL     1       1.796  -1.686  -4.745  0.00  0.00    +0.050 A 
ATOM     13  C   UNL     1       1.459  -3.035  -4.961  0.00  0.00    +0.042 A 
ATOM     14  C   UNL     1       1.608  -3.674  -3.782  0.00  0.00    +0.196 A 
ATOM     15  O   UNL     1       2.023  -2.789  -2.863  0.00  0.00    -0.463 OA
ENDBRANCH   3  11
BRANCH   2  16
ATOM     16  C   UNL     1       4.606  -0.229  -4.143  0.00  0.00    +0.103 C 
ATOM     17  N   UNL     1       5.271  -0.653  -4.961  0.00  0.00    -0.191 NA
ENDBRANCH   2  16
BRANCH   1  18
ATOM     18  S   UNL     1       5.611   2.326  -2.853  0.00  0.00    -0.100 S 
BRANCH  18  19
ATOM     19  C   UNL     1       5.529   3.710  -1.690  0.00  0.00    +0.116 C 
BRANCH  19  22
ATOM     20  C   UNL     1       8.390   3.490  -0.177  0.00  0.00    +0.069 C 
ATOM     21  C   UNL     1       7.986   4.503  -1.217  0.00  0.00    +0.085 A 
ATOM     22  C   UNL     1       6.737   4.592  -1.873  0.00  0.00    +0.027 A 
ATOM     23  C   UNL     1       6.875   5.657  -2.698  0.00  0.00    +0.138 A 
ATOM     24  O   UNL     1       8.119   6.121  -2.514  0.00  0.00    -0.359 OA
ATOM     25  N   UNL     1       8.720   5.468  -1.692  0.00  0.00    -0.083 NA
ATOM     26  C   UNL     1       5.836   6.211  -3.638  0.00  0.00    +0.089 C 
ENDBRANCH  19  22
ENDBRANCH  18  19
ENDBRANCH   1  18
TORSDOF 5
