REMARK  Name = ZINC36645384
REMARK  10 active torsions:
REMARK  status: ('A' for Active; 'I' for Inactive)
REMARK    1  A    between atoms: C_1  and  C_2
REMARK    2  A    between atoms: C_5  and  C_33
REMARK    3  A    between atoms: N_11  and  C_12
REMARK    4  A    between atoms: C_12  and  C_13
REMARK    5  A    between atoms: C_13  and  C_14
REMARK    6  A    between atoms: C_14  and  N_15
REMARK    7  A    between atoms: N_15  and  C_16
REMARK    8  A    between atoms: N_15  and  C_17
REMARK    9  A    between atoms: C_18  and  C_20
REMARK   10  A    between atoms: C_22  and  C_32
REMARK                            x       y       z     vdW  Elec       q    Type
REMARK                         _______ _______ _______ _____ _____    ______ ____
ROOT
ATOM      1  C   UNL     1      -0.964   1.842   0.065  0.00  0.00    +0.046 C 
ATOM      2  C   UNL     1      -0.691   0.364  -0.045  0.00  0.00    -0.024 A 
ATOM      3  C   UNL     1      -0.713  -0.240  -1.275  0.00  0.00    +0.006 A 
ATOM      4  C   UNL     1      -0.467  -1.597  -1.420  0.00  0.00    +0.005 A 
ATOM      5  C   UNL     1      -0.193  -2.360  -0.299  0.00  0.00    -0.035 A 
ATOM      6  C   UNL     1      -0.170  -1.764   0.936  0.00  0.00    +0.044 A 
ATOM      7  C   UNL     1      -0.409  -0.383   1.122  0.00  0.00    +0.083 A 
ATOM      8  N   UNL     1      -0.346   0.055   2.398  0.00  0.00    -0.224 NA
ATOM      9  C   UNL     1      -0.074  -0.742   3.405  0.00  0.00    +0.168 A 
ATOM     10  S   UNL     1       0.125  -2.323   2.597  0.00  0.00    -0.052 S 
ATOM     11  N   UNL     1       0.024  -0.436   4.753  0.00  0.00    -0.247 N 
ATOM     12  C   UNL     1      -0.171   0.829   5.173  0.00  0.00    +0.266 C 
ATOM     13  O   UNL     1      -0.502   1.687   4.382  0.00  0.00    -0.271 OA
ATOM     14  C   UNL     1       0.076  -3.836  -0.434  0.00  0.00    +0.045 C 
ENDROOT
BRANCH  12  15
ATOM     15  C   UNL     1       0.022   1.179   6.626  0.00  0.00    +0.299 C 
ATOM     16  C   UNL     1      -1.328   1.129   7.354  0.00  0.00    +0.220 C 
ATOM     17  O   UNL     1      -2.206   2.076   6.735  0.00  0.00    -0.481 OA
ATOM     18  C   UNL     1      -1.695   3.313   6.488  0.00  0.00    +0.163 A 
ATOM     19  C   UNL     1      -2.559   4.369   6.237  0.00  0.00    +0.049 A 
ATOM     20  C   UNL     1      -2.055   5.630   5.981  0.00  0.00    +0.004 A 
ATOM     21  C   UNL     1      -0.689   5.843   5.974  0.00  0.00    +0.004 A 
ATOM     22  C   UNL     1       0.177   4.795   6.225  0.00  0.00    +0.049 A 
ATOM     23  C   UNL     1      -0.322   3.527   6.484  0.00  0.00    +0.163 A 
ATOM     24  O   UNL     1       0.544   2.507   6.738  0.00  0.00    -0.472 OA
ATOM     25  C   UNL     1      -1.923  -0.276   7.243  0.00  0.00    +0.056 C 
ENDBRANCH  12  15
BRANCH  11  26
ATOM     26  C   UNL     1       0.341  -1.489   5.721  0.00  0.00    +0.114 C 
BRANCH  26  27
ATOM     27  C   UNL     1       1.857  -1.682   5.788  0.00  0.00    +0.001 C 
BRANCH  27  28
ATOM     28  C   UNL     1       2.187  -2.781   6.800  0.00  0.00    -0.078 C 
BRANCH  28  29
ATOM     29  N   UNL     1       3.643  -2.966   6.864  0.00  0.00    +0.376 N 
ATOM     30  C   UNL     1       4.268  -1.748   7.396  0.00  0.00    -0.097 C 
ATOM     31  C   UNL     1       3.954  -4.100   7.744  0.00  0.00    -0.097 C 
ATOM     32  H   UNL     1       4.000  -3.150   5.938  0.00  0.00    -0.083 HD
ENDBRANCH  28  29
ENDBRANCH  27  28
ENDBRANCH  26  27
ENDBRANCH  11  26
TORSDOF 5
