REMARK  Name = ZINC50444996
REMARK  6 active torsions:
REMARK  status: ('A' for Active; 'I' for Inactive)
REMARK    1  A    between atoms: C_1  and  C_2
REMARK    2  A    between atoms: C_2  and  C_3
REMARK    3  A    between atoms: C_7  and  O_23
REMARK    4  A    between atoms: C_9  and  C_12
REMARK    5  A    between atoms: C_12  and  C_13
REMARK    6  A    between atoms: C_18  and  N_19
REMARK                            x       y       z     vdW  Elec       q    Type
REMARK                         _______ _______ _______ _____ _____    ______ ____
ROOT
ATOM      1  C   UNL     1      -2.847  -4.077  -0.235  0.00  0.00    +0.043 C 
ENDROOT
BRANCH   1   2
ATOM      2  C   UNL     1      -4.253  -4.606  -0.353  0.00  0.00    -0.017 A 
ATOM      3  C   UNL     1      -4.888  -5.133   0.756  0.00  0.00    +0.007 A 
ATOM      4  C   UNL     1      -6.178  -5.618   0.649  0.00  0.00    +0.020 A 
ATOM      5  C   UNL     1      -6.834  -5.575  -0.568  0.00  0.00    +0.043 A 
ATOM      6  C   UNL     1      -6.198  -5.047  -1.678  0.00  0.00    +0.053 A 
ATOM      7  C   UNL     1      -4.910  -4.558  -1.568  0.00  0.00    +0.131 A 
ATOM      8 CL   UNL     1      -8.454  -6.184  -0.703  0.00  0.00    -0.083 Cl
BRANCH   7   9
ATOM      9  N   UNL     1      -4.232  -3.987  -2.754  0.00  0.00    +0.057 N 
ATOM     10  O   UNL     1      -4.839  -3.851  -3.790  0.00  0.00    -0.126 OA
ATOM     11  O   UNL     1      -3.071  -3.657  -2.686  0.00  0.00    -0.126 OA
ENDBRANCH   7   9
ENDBRANCH   1   2
BRANCH   1  16
ATOM     12  C   UNL     1      -1.474  -0.480  -0.215  0.00  0.00    -0.011 C 
ATOM     13  C   UNL     1      -2.195   0.005   1.044  0.00  0.00    +0.006 C 
ATOM     14  C   UNL     1      -3.627  -0.532   1.051  0.00  0.00    +0.032 C 
ATOM     15  C   UNL     1      -3.598  -2.062   1.037  0.00  0.00    +0.118 C 
ATOM     16  C   UNL     1      -2.877  -2.547  -0.222  0.00  0.00    +0.022 C 
ATOM     17  C   UNL     1      -1.444  -2.009  -0.229  0.00  0.00    +0.010 C 
BRANCH  12  19
ATOM     18  C   UNL     1      -0.070   1.584  -0.334  0.00  0.00    +0.004 C 
ATOM     19  C   UNL     1      -0.042   0.058  -0.222  0.00  0.00    +0.000 C 
ENDBRANCH  12  19
BRANCH  15  20
ATOM     20  O   UNL     1      -4.935  -2.565   1.043  0.00  0.00    -0.392 OA
ATOM     21  H   UNL     1      -5.453  -2.296   1.815  0.00  0.00    +0.210 HD
ENDBRANCH  15  20
ENDBRANCH   1  16
TORSDOF 5
