REMARK  Name = ZINC38744091
REMARK  3 active torsions:
REMARK  status: ('A' for Active; 'I' for Inactive)
REMARK    1  A    between atoms: C_1  and  C_2
REMARK    2  A    between atoms: C_4  and  C_8
REMARK    3  A    between atoms: C_12  and  C_17
REMARK                            x       y       z     vdW  Elec       q    Type
REMARK                         _______ _______ _______ _____ _____    ______ ____
ROOT
ATOM      1  C   UNL     1      -0.976  -2.937  -1.266  0.00  0.00    +0.182 C 
ATOM      2  N   UNL     1      -0.538  -4.358  -1.243  0.00  0.00    -0.265 N 
ATOM      3  N   UNL     1      -1.434  -5.228  -0.698  0.00  0.00    -0.220 N 
ATOM      4  C   UNL     1      -1.412  -6.502  -0.138  0.00  0.00    +0.182 A 
ATOM      5  N   UNL     1      -2.643  -6.824   0.171  0.00  0.00    -0.127 NA
ATOM      6  N   UNL     1      -3.438  -5.859  -0.131  0.00  0.00    -0.120 NA
ATOM      7  C   UNL     1      -2.758  -4.874  -0.636  0.00  0.00    +0.211 A 
ATOM      8  S   UNL     1      -2.800  -3.214  -1.283  0.00  0.00    -0.058 S 
ATOM      9  H   UNL     1      -0.251  -4.663  -2.161  0.00  0.00    +0.168 HD
ENDROOT
BRANCH   4  10
ATOM     10  C   UNL     1      -0.213  -7.341   0.071  0.00  0.00    +0.021 A 
ATOM     11  C   UNL     1       0.986  -7.023  -0.569  0.00  0.00    +0.013 A 
ATOM     12  C   UNL     1       2.101  -7.810  -0.370  0.00  0.00    +0.016 A 
ATOM     13  C   UNL     1       2.033  -8.914   0.464  0.00  0.00    +0.018 A 
ATOM     14  C   UNL     1       0.847  -9.235   1.101  0.00  0.00    +0.016 A 
ATOM     15  C   UNL     1      -0.273  -8.452   0.915  0.00  0.00    +0.013 A 
ATOM     16 BR   UNL     1       3.567  -9.987   0.731  0.00  0.00    -0.050 Br
ENDBRANCH   4  10
BRANCH   1  20
ATOM     17  C   UNL     1      -0.018   1.503   0.010  0.00  0.00    +0.067 C 
ATOM     18  C   UNL     1       0.002  -0.004   0.002  0.00  0.00    +0.058 C 
ATOM     19  C   UNL     1      -1.086  -0.777   0.003  0.00  0.00    +0.029 C 
ATOM     20  C   UNL     1      -0.531  -2.190  -0.007  0.00  0.00    +0.185 C 
ATOM     21  N   UNL     1       0.926  -1.973  -0.013  0.00  0.00    -0.177 NA
ATOM     22  N   UNL     1       1.125  -0.756  -0.013  0.00  0.00    -0.159 NA
ENDBRANCH   1  20
TORSDOF 2
