REMARK  Name = ZINC06861621
REMARK  2 active torsions:
REMARK  status: ('A' for Active; 'I' for Inactive)
REMARK    1  A    between atoms: C_1  and  N_2
REMARK    2  A    between atoms: N_10  and  N_11
REMARK                            x       y       z     vdW  Elec       q    Type
REMARK                         _______ _______ _______ _____ _____    ______ ____
ROOT
ATOM      1  C   UNL     1      -0.018   1.461   0.010  0.00  0.00    +0.138 C 
ATOM      2  N   UNL     1       0.002  -0.004   0.002  0.00  0.00    -0.269 N 
ATOM      3  C   UNL     1      -1.136  -0.803   0.003  0.00  0.00    +0.046 A 
ATOM      4  C   UNL     1      -2.489  -0.484   0.012  0.00  0.00    +0.024 A 
ATOM      5  C   UNL     1      -3.437  -1.486   0.011  0.00  0.00    +0.002 A 
ATOM      6  C   UNL     1      -3.056  -2.818   0.002  0.00  0.00    +0.001 A 
ATOM      7  C   UNL     1      -1.717  -3.154  -0.007  0.00  0.00    +0.012 A 
ATOM      8  C   UNL     1      -0.754  -2.151  -0.007  0.00  0.00    +0.028 A 
ATOM      9  C   UNL     1       0.727  -2.166  -0.014  0.00  0.00    +0.153 C 
ATOM     10  N   UNL     1       1.516  -3.216  -0.025  0.00  0.00    -0.175 NA
ATOM     11  C   UNL     1       1.123  -0.746  -0.013  0.00  0.00    +0.271 C 
ATOM     12  O   UNL     1       2.263  -0.320  -0.022  0.00  0.00    -0.268 OA
ENDROOT
BRANCH  10  13
ATOM     13  N   UNL     1       2.796  -3.060  -0.030  0.00  0.00    -0.218 N 
ATOM     14  C   UNL     1       3.629  -4.168  -0.041  0.00  0.00    +0.168 A 
ATOM     15  C   UNL     1       5.035  -4.013  -0.041  0.00  0.00    +0.027 A 
ATOM     16  C   UNL     1       5.658  -2.761  -0.030  0.00  0.00    +0.012 A 
ATOM     17  C   UNL     1       7.020  -2.691  -0.030  0.00  0.00    +0.001 A 
ATOM     18  C   UNL     1       7.799  -3.846  -0.042  0.00  0.00    +0.001 A 
ATOM     19  C   UNL     1       7.224  -5.082  -0.054  0.00  0.00    +0.010 A 
ATOM     20  C   UNL     1       5.827  -5.191  -0.053  0.00  0.00    +0.005 A 
ATOM     21  C   UNL     1       5.160  -6.429  -0.064  0.00  0.00    +0.143 A 
ATOM     22  N   UNL     1       3.847  -6.448  -0.062  0.00  0.00    -0.155 NA
ATOM     23  N   UNL     1       3.125  -5.390  -0.046  0.00  0.00    -0.132 NA
ATOM     24  H   UNL     1       3.177  -2.168  -0.026  0.00  0.00    +0.176 HD
ENDBRANCH  10  13
TORSDOF 1
