REMARK  Name = ZINC06060024
REMARK  6 active torsions:
REMARK  status: ('A' for Active; 'I' for Inactive)
REMARK    1  A    between atoms: C_1  and  O_2
REMARK    2  A    between atoms: O_2  and  C_3
REMARK    3  A    between atoms: N_9  and  S_10
REMARK    4  A    between atoms: S_10  and  C_13
REMARK    5  A    between atoms: C_16  and  N_19
REMARK    6  A    between atoms: C_20  and  C_21
REMARK                            x       y       z     vdW  Elec       q    Type
REMARK                         _______ _______ _______ _____ _____    ______ ____
ROOT
ATOM      1  C   UNL     1       3.540   3.416  -0.014  0.00  0.00    +0.109 A 
ATOM      2  C   UNL     1       2.506   3.798  -0.850  0.00  0.00    +0.031 A 
ATOM      3  C   UNL     1       1.318   3.097  -0.848  0.00  0.00    +0.029 A 
ATOM      4  C   UNL     1       1.160   1.999   0.002  0.00  0.00    +0.064 A 
ATOM      5  C   UNL     1       2.206   1.624   0.848  0.00  0.00    +0.029 A 
ATOM      6  C   UNL     1       3.390   2.330   0.831  0.00  0.00    +0.031 A 
ENDROOT
BRANCH   1   7
ATOM      7  S   UNL     1       5.054   4.317  -0.024  0.00  0.00    +0.074 S 
ATOM      8  O   UNL     1       6.057   3.431   0.453  0.00  0.00    -0.150 OA
ATOM      9  O   UNL     1       5.139   4.954  -1.291  0.00  0.00    -0.150 OA
BRANCH   7  16
ATOM     10  C   UNL     1       4.543   4.490   5.037  0.00  0.00    +0.234 A 
ATOM     11  C   UNL     1       4.542   5.850   4.732  0.00  0.00    +0.072 A 
ATOM     12  C   UNL     1       4.673   6.218   3.404  0.00  0.00    +0.052 A 
ATOM     13  C   UNL     1       4.785   5.204   2.453  0.00  0.00    +0.160 A 
ATOM     14  N   UNL     1       4.776   3.937   2.837  0.00  0.00    -0.129 NA
ATOM     15  N   UNL     1       4.660   3.598   4.069  0.00  0.00    -0.110 NA
ATOM     16  N   UNL     1       4.913   5.523   1.103  0.00  0.00    -0.198 N 
ATOM     17  H   UNL     1       4.920   6.452   0.823  0.00  0.00    +0.175 HD
BRANCH  10  19
ATOM     18  C   UNL     1       4.430   2.673   6.565  0.00  0.00    +0.279 C 
ATOM     19  O   UNL     1       4.422   4.082   6.327  0.00  0.00    -0.479 OA
ENDBRANCH  10  19
ENDBRANCH   7  16
ENDBRANCH   1   7
BRANCH   4  20
ATOM     20  N   UNL     1      -0.016   1.299   0.009  0.00  0.00    -0.255 NA
ATOM     21  C   UNL     1       0.002  -0.004   0.002  0.00  0.00    +0.120 C 
BRANCH  21  22
ATOM     22  C   UNL     1      -1.262  -0.757   0.010  0.00  0.00    +0.011 A 
ATOM     23  C   UNL     1      -1.247  -2.156   0.002  0.00  0.00    +0.012 A 
ATOM     24  C   UNL     1      -2.435  -2.854   0.011  0.00  0.00    +0.021 A 
ATOM     25  C   UNL     1      -3.643  -2.175   0.026  0.00  0.00    +0.042 A 
ATOM     26  C   UNL     1      -3.667  -0.791   0.033  0.00  0.00    +0.040 A 
ATOM     27  C   UNL     1      -2.485  -0.078   0.031  0.00  0.00    +0.051 A 
ATOM     28 CL   UNL     1      -2.517   1.658   0.048  0.00  0.00    -0.083 Cl
ATOM     29 CL   UNL     1      -5.134  -3.065   0.036  0.00  0.00    -0.083 Cl
ENDBRANCH  21  22
ENDBRANCH   4  20
TORSDOF 5
