REMARK  Name = ZINC56091619
REMARK  10 active torsions:
REMARK  status: ('A' for Active; 'I' for Inactive)
REMARK    1  A    between atoms: C_1  and  C_2
REMARK    2  A    between atoms: C_2  and  C_3
REMARK    3  A    between atoms: C_2  and  N_4
REMARK    4  A    between atoms: N_7  and  C_8
REMARK    5  A    between atoms: N_7  and  C_9
REMARK    6  A    between atoms: C_12  and  O_15
REMARK    7  A    between atoms: O_15  and  S_16
REMARK    8  A    between atoms: S_16  and  C_19
REMARK    9  A    between atoms: C_22  and  C_25
REMARK   10  A    between atoms: C_25  and  C_27
REMARK                            x       y       z     vdW  Elec       q    Type
REMARK                         _______ _______ _______ _____ _____    ______ ____
ROOT
ATOM      1  C   UNL     1       4.055  -1.118  -2.440  0.00  0.00    +0.038 A 
ATOM      2  C   UNL     1       4.864  -0.837  -1.348  0.00  0.00    +0.027 A 
ATOM      3  C   UNL     1       6.237  -0.933  -1.463  0.00  0.00    +0.050 A 
ATOM      4  C   UNL     1       6.808  -1.310  -2.670  0.00  0.00    +0.157 A 
ATOM      5  C   UNL     1       6.000  -1.591  -3.762  0.00  0.00    +0.050 A 
ATOM      6  C   UNL     1       4.626  -1.501  -3.646  0.00  0.00    +0.027 A 
ENDROOT
BRANCH   1  10
ATOM      7  N   UNL     1       0.742   0.288  -2.100  0.00  0.00    -0.297 N 
ATOM      8  C   UNL     1       2.085   0.177  -2.106  0.00  0.00    +0.306 C 
ATOM      9  O   UNL     1       2.777   1.158  -1.913  0.00  0.00    -0.252 OA
ATOM     10  N   UNL     1       2.662  -1.022  -2.324  0.00  0.00    -0.259 N 
ATOM     11  C   UNL     1       1.832  -2.223  -2.439  0.00  0.00    +0.140 C 
ATOM     12  H   UNL     1       0.190  -0.495  -2.254  0.00  0.00    +0.151 HD
BRANCH   7  14
ATOM     13  C   UNL     1       0.028   2.362  -3.182  0.00  0.00    +0.027 C 
ATOM     14  C   UNL     1       0.116   1.591  -1.863  0.00  0.00    +0.068 C 
ATOM     15  C   UNL     1      -1.291   1.385  -1.298  0.00  0.00    +0.027 C 
ENDBRANCH   7  14
ENDBRANCH   1  10
BRANCH   4  16
ATOM     16  O   UNL     1       8.159  -1.405  -2.783  0.00  0.00    -0.342 OA
BRANCH  16  17
ATOM     17  S   UNL     1       8.714  -2.781  -2.445  0.00  0.00    +0.151 S 
ATOM     18  O   UNL     1      10.129  -2.651  -2.410  0.00  0.00    -0.131 OA
ATOM     19  O   UNL     1       7.965  -3.261  -1.337  0.00  0.00    -0.131 OA
BRANCH  17  20
ATOM     20  C   UNL     1       8.340  -3.841  -3.803  0.00  0.00    +0.128 A 
ATOM     21  C   UNL     1       7.148  -4.544  -3.819  0.00  0.00    +0.031 A 
ATOM     22  C   UNL     1       6.848  -5.375  -4.877  0.00  0.00    +0.013 A 
ATOM     23  C   UNL     1       7.752  -5.506  -5.936  0.00  0.00    +0.017 A 
ATOM     24  C   UNL     1       8.954  -4.792  -5.913  0.00  0.00    +0.013 A 
ATOM     25  C   UNL     1       9.237  -3.961  -4.850  0.00  0.00    +0.031 A 
BRANCH  23  26
ATOM     26  C   UNL     1       7.439  -6.392  -7.070  0.00  0.00    +0.160 C 
ATOM     27  O   UNL     1       6.396  -7.010  -7.087  0.00  0.00    -0.292 OA
ATOM     28  C   UNL     1       8.416  -6.530  -8.209  0.00  0.00    +0.091 C 
ENDBRANCH  23  26
ENDBRANCH  17  20
ENDBRANCH  16  17
ENDBRANCH   4  16
TORSDOF 6
