REMARK  Name = ZINC35036929
REMARK  12 active torsions:
REMARK  status: ('A' for Active; 'I' for Inactive)
REMARK    1  A    between atoms: C_1  and  C_2
REMARK    2  A    between atoms: C_2  and  C_4
REMARK    3  A    between atoms: C_2  and  N_21
REMARK    4  A    between atoms: N_14  and  C_15
REMARK    5  A    between atoms: N_21  and  C_22
REMARK    6  A    between atoms: C_22  and  C_23
REMARK    7  A    between atoms: C_23  and  N_24
REMARK    8  A    between atoms: N_24  and  C_25
REMARK    9  A    between atoms: N_24  and  C_26
REMARK   10  A    between atoms: C_27  and  C_29
REMARK   11  A    between atoms: C_29  and  C_30
REMARK   12  A    between atoms: C_29  and  C_31
REMARK                            x       y       z     vdW  Elec       q    Type
REMARK                         _______ _______ _______ _____ _____    ______ ____
ROOT
ATOM      1  C   UNL     1      -0.108  -0.472   2.615  0.00  0.00    +0.138 A 
ATOM      2  N   UNL     1      -0.835  -1.519   2.859  0.00  0.00    -0.231 NA
ATOM      3  C   UNL     1      -0.560  -2.350   3.896  0.00  0.00    +0.078 A 
ATOM      4  C   UNL     1      -1.342  -3.478   4.157  0.00  0.00    +0.028 A 
ATOM      5  C   UNL     1      -1.026  -4.294   5.220  0.00  0.00    +0.002 A 
ATOM      6  C   UNL     1       0.061  -4.011   6.037  0.00  0.00    +0.001 A 
ATOM      7  C   UNL     1       0.847  -2.905   5.799  0.00  0.00    +0.015 A 
ATOM      8  C   UNL     1       0.545  -2.066   4.728  0.00  0.00    +0.065 A 
ATOM      9  C   UNL     1       1.348  -0.872   4.425  0.00  0.00    +0.266 A 
ATOM     10  O   UNL     1       2.313  -0.571   5.104  0.00  0.00    -0.267 OA
ATOM     11  N   UNL     1       0.976  -0.124   3.360  0.00  0.00    -0.263 N 
ENDROOT
BRANCH  11  12
ATOM     12  C   UNL     1       1.711   1.020   3.026  0.00  0.00    +0.051 A 
ATOM     13  C   UNL     1       1.762   2.096   3.903  0.00  0.00    +0.026 A 
ATOM     14  C   UNL     1       2.487   3.223   3.570  0.00  0.00    +0.002 A 
ATOM     15  C   UNL     1       3.162   3.281   2.365  0.00  0.00    +0.000 A 
ATOM     16  C   UNL     1       3.114   2.212   1.489  0.00  0.00    +0.002 A 
ATOM     17  C   UNL     1       2.394   1.080   1.818  0.00  0.00    +0.026 A 
ENDBRANCH  11  12
BRANCH   1  19
ATOM     18  C   UNL     1      -0.678   1.840   1.924  0.00  0.00    +0.036 C 
ATOM     19  C   UNL     1      -0.480   0.401   1.445  0.00  0.00    +0.139 C 
BRANCH  19  20
ATOM     20  N   UNL     1      -1.724  -0.090   0.846  0.00  0.00    -0.293 N 
ATOM     21  C   UNL     1      -2.840  -0.188   1.596  0.00  0.00    +0.219 C 
ATOM     22  O   UNL     1      -2.851   0.250   2.727  0.00  0.00    -0.275 OA
BRANCH  21  23
ATOM     23  C   UNL     1      -4.073  -0.843   1.030  0.00  0.00    +0.069 C 
ATOM     24  C   UNL     1      -4.080  -2.327   1.404  0.00  0.00    +0.017 C 
ATOM     25  C   UNL     1      -5.320  -0.167   1.604  0.00  0.00    +0.017 C 
ENDBRANCH  21  23
BRANCH  20  26
ATOM     26  C   UNL     1      -1.756  -0.473  -0.567  0.00  0.00    +0.090 C 
BRANCH  26  27
ATOM     27  C   UNL     1      -1.264  -1.914  -0.716  0.00  0.00    -0.060 C 
BRANCH  27  28
ATOM     28  N   UNL     1      -1.420  -2.344  -2.112  0.00  0.00    +0.377 N 
ATOM     29  C   UNL     1      -0.839  -3.682  -2.281  0.00  0.00    -0.097 C 
ATOM     30  C   UNL     1      -2.848  -2.383  -2.455  0.00  0.00    -0.097 C 
ATOM     31  H   UNL     1      -0.946  -1.692  -2.719  0.00  0.00    -0.083 HD
ENDBRANCH  27  28
ENDBRANCH  26  27
ENDBRANCH  20  26
ENDBRANCH  19  20
ENDBRANCH   1  19
TORSDOF 7
