REMARK  Name = ZINC66669564
REMARK  5 active torsions:
REMARK  status: ('A' for Active; 'I' for Inactive)
REMARK    1  A    between atoms: C_1  and  C_2
REMARK    2  A    between atoms: C_2  and  C_4
REMARK    3  A    between atoms: C_2  and  N_13
REMARK    4  A    between atoms: N_16  and  C_17
REMARK    5  A    between atoms: C_22  and  N_23
REMARK                            x       y       z     vdW  Elec       q    Type
REMARK                         _______ _______ _______ _____ _____    ______ ____
ROOT
ATOM      1  N   UNL     1       0.931  -0.442  -1.478  0.00  0.00    -0.293 N 
ATOM      2  C   UNL     1       2.241  -0.667  -1.253  0.00  0.00    +0.304 C 
ATOM      3  O   UNL     1       2.703  -0.508  -0.140  0.00  0.00    -0.252 OA
ATOM      4  N   UNL     1       3.039  -1.067  -2.263  0.00  0.00    -0.266 N 
ATOM      5  H   UNL     1       0.562  -0.569  -2.366  0.00  0.00    +0.151 HD
ATOM      6  H   UNL     1       2.684  -1.137  -3.163  0.00  0.00    +0.156 HD
ENDROOT
BRANCH   4   7
ATOM      7  C   UNL     1       4.380  -1.383  -2.013  0.00  0.00    +0.079 A 
ATOM      8  C   UNL     1       5.099  -0.690  -1.045  0.00  0.00    +0.028 A 
ATOM      9  C   UNL     1       6.424  -1.038  -0.833  0.00  0.00    +0.022 A 
ATOM     10  C   UNL     1       6.986  -2.054  -1.582  0.00  0.00    +0.113 A 
ATOM     11  N   UNL     1       6.281  -2.695  -2.494  0.00  0.00    -0.235 NA
ATOM     12  C   UNL     1       5.013  -2.401  -2.726  0.00  0.00    +0.177 A 
BRANCH  12  13
ATOM     13  N   UNL     1       4.303  -3.111  -3.699  0.00  0.00    -0.200 N 
ATOM     14  C   UNL     1       4.817  -3.762  -4.762  0.00  0.00    +0.226 A 
ATOM     15  N   UNL     1       3.826  -4.298  -5.427  0.00  0.00    -0.222 NA
ATOM     16  C   UNL     1       2.671  -4.014  -4.825  0.00  0.00    +0.245 A 
ATOM     17  N   UNL     1       2.912  -3.295  -3.761  0.00  0.00    -0.152 NA
ENDBRANCH  12  13
ENDBRANCH   4   7
BRANCH   1  19
ATOM     18  C   UNL     1       0.058   1.522  -0.310  0.00  0.00    +0.033 C 
ATOM     19  C   UNL     1       0.064  -0.007  -0.380  0.00  0.00    +0.103 C 
BRANCH  19  20
ATOM     20  C   UNL     1      -1.338  -0.504  -0.621  0.00  0.00    -0.006 A 
ATOM     21  C   UNL     1      -1.772  -0.753  -1.909  0.00  0.00    +0.046 A 
ATOM     22  C   UNL     1      -3.059  -1.210  -2.131  0.00  0.00    +0.142 A 
ATOM     23  C   UNL     1      -3.914  -1.417  -1.059  0.00  0.00    +0.077 A 
ATOM     24  C   UNL     1      -3.479  -1.168   0.229  0.00  0.00    +0.043 A 
ATOM     25  C   UNL     1      -2.189  -0.716   0.449  0.00  0.00    +0.047 A 
ATOM     26 CL   UNL     1      -1.642  -0.409   2.068  0.00  0.00    -0.083 Cl
ATOM     27 CL   UNL     1      -5.529  -1.989  -1.335  0.00  0.00    -0.081 Cl
ATOM     28  F   UNL     1      -3.483  -1.452  -3.390  0.00  0.00    -0.204 F 
ENDBRANCH  19  20
ENDBRANCH   1  19
TORSDOF 4
