REMARK  Name = ZINC67033910
REMARK  2 active torsions:
REMARK  status: ('A' for Active; 'I' for Inactive)
REMARK    1  A    between atoms: C_5  and  N_7
REMARK    2  A    between atoms: C_14  and  C_16
REMARK                            x       y       z     vdW  Elec       q    Type
REMARK                         _______ _______ _______ _____ _____    ______ ____
ROOT
ATOM      1  N   UNL     1       1.236  -2.081  -0.021  0.00  0.00    -0.267 N 
ATOM      2  C   UNL     1       0.085  -2.774   0.088  0.00  0.00    +0.307 C 
ATOM      3  O   UNL     1      -0.979  -2.186   0.102  0.00  0.00    -0.252 OA
ATOM      4  N   UNL     1       0.114  -4.118   0.181  0.00  0.00    -0.278 N 
ATOM      5  C   UNL     1       1.328  -4.954   0.183  0.00  0.00    +0.110 C 
ATOM      6  C   UNL     1       0.855  -6.343  -0.310  0.00  0.00    +0.021 C 
ATOM      7  C   UNL     1      -0.545  -6.448   0.351  0.00  0.00    +0.029 C 
ATOM      8  C   UNL     1      -1.061  -4.994   0.304  0.00  0.00    +0.111 C 
ATOM      9  H   UNL     1       2.080  -2.553  -0.098  0.00  0.00    +0.156 HD
ENDROOT
BRANCH   8  10
ATOM     10  C   UNL     1      -1.810  -4.672   1.572  0.00  0.00    +0.018 A 
ATOM     11  C   UNL     1      -1.183  -3.968   2.584  0.00  0.00    +0.009 A 
ATOM     12  C   UNL     1      -1.867  -3.672   3.748  0.00  0.00    +0.004 A 
ATOM     13  C   UNL     1      -3.179  -4.079   3.905  0.00  0.00    +0.049 A 
ATOM     14  C   UNL     1      -3.812  -4.786   2.894  0.00  0.00    +0.162 A 
ATOM     15  C   UNL     1      -3.127  -5.077   1.720  0.00  0.00    +0.167 A 
ATOM     16  O   UNL     1      -3.734  -5.758   0.710  0.00  0.00    -0.485 OA
ATOM     17  C   UNL     1      -4.931  -6.471   1.043  0.00  0.00    +0.270 C 
ATOM     18  C   UNL     1      -5.825  -5.545   1.879  0.00  0.00    +0.270 C 
ATOM     19  O   UNL     1      -5.103  -5.184   3.065  0.00  0.00    -0.485 OA
ENDBRANCH   8  10
BRANCH   1  24
ATOM     20  C   UNL     1       0.135   1.378  -0.618  0.00  0.00    +0.002 A 
ATOM     21  C   UNL     1       1.167   2.087  -0.032  0.00  0.00    +0.003 A 
ATOM     22  C   UNL     1       2.224   1.417   0.557  0.00  0.00    +0.040 A 
ATOM     23  C   UNL     1       2.250   0.035   0.563  0.00  0.00    +0.145 A 
ATOM     24  C   UNL     1       1.213  -0.681  -0.025  0.00  0.00    +0.070 A 
ATOM     25  C   UNL     1       0.155  -0.004  -0.615  0.00  0.00    +0.026 A 
ATOM     26  F   UNL     1       3.282  -0.620   1.139  0.00  0.00    -0.204 F 
ENDBRANCH   1  24
TORSDOF 2
