REMARK  Name = ZINC41600219
REMARK  4 active torsions:
REMARK  status: ('A' for Active; 'I' for Inactive)
REMARK    1  A    between atoms: C_1  and  C_2
REMARK    2  A    between atoms: C_8  and  S_13
REMARK    3  A    between atoms: S_13  and  N_16
REMARK    4  A    between atoms: N_16  and  C_17
REMARK                            x       y       z     vdW  Elec       q    Type
REMARK                         _______ _______ _______ _____ _____    ______ ____
ROOT
ATOM      1  C   UNL     1      -0.019   1.526   0.010  0.00  0.00    +0.053 C 
ATOM      2  C   UNL     1       0.002  -0.004   0.002  0.00  0.00    +0.187 C 
ATOM      3  C   UNL     1       0.726  -0.502  -1.257  0.00  0.00    +0.145 C 
ATOM      4  N   UNL     1       0.764  -1.973  -1.196  0.00  0.00    -0.337 N 
ATOM      5  C   UNL     1       1.058  -2.568   0.041  0.00  0.00    +0.071 A 
ATOM      6  C   UNL     1       1.388  -3.912   0.105  0.00  0.00    +0.055 A 
ATOM      7  C   UNL     1       1.673  -4.494   1.327  0.00  0.00    +0.107 A 
ATOM      8  C   UNL     1       1.628  -3.736   2.482  0.00  0.00    +0.032 A 
ATOM      9  C   UNL     1       1.300  -2.395   2.424  0.00  0.00    +0.049 A 
ATOM     10  C   UNL     1       1.015  -1.802   1.203  0.00  0.00    +0.142 A 
ATOM     11  O   UNL     1       0.699  -0.480   1.156  0.00  0.00    -0.486 OA
ATOM     12  H   UNL     1       0.592  -2.513  -1.984  0.00  0.00    +0.146 HD
ENDROOT
BRANCH   7  13
ATOM     13  S   UNL     1       2.094  -6.203   1.411  0.00  0.00    +0.059 S 
ATOM     14  O   UNL     1       1.784  -6.633   2.729  0.00  0.00    -0.153 OA
ATOM     15  O   UNL     1       1.534  -6.816   0.257  0.00  0.00    -0.153 OA
BRANCH  13  16
ATOM     16  N   UNL     1       3.739  -6.311   1.252  0.00  0.00    -0.187 NA
ATOM     17  H   UNL     1       4.124  -6.751   0.479  0.00  0.00    +0.148 HD
BRANCH  16  18
ATOM     18  C   UNL     1       4.613  -5.740   2.281  0.00  0.00    +0.077 C 
ATOM     19  C   UNL     1       5.032  -4.328   1.868  0.00  0.00    +0.020 C 
ATOM     20  C   UNL     1       5.944  -3.732   2.942  0.00  0.00    +0.002 C 
ATOM     21  C   UNL     1       7.189  -4.608   3.097  0.00  0.00    +0.000 C 
ATOM     22  C   UNL     1       6.770  -6.021   3.510  0.00  0.00    +0.002 C 
ATOM     23  C   UNL     1       5.857  -6.616   2.436  0.00  0.00    +0.020 C 
ENDBRANCH  16  18
ENDBRANCH  13  16
ENDBRANCH   7  13
TORSDOF 3
