REMARK  Name = ZINC35353724
REMARK  6 active torsions:
REMARK  status: ('A' for Active; 'I' for Inactive)
REMARK    1  A    between atoms: C_1  and  N_2
REMARK    2  A    between atoms: N_2  and  C_3
REMARK    3  A    between atoms: N_2  and  S_4
REMARK    4  A    between atoms: S_4  and  C_7
REMARK    5  A    between atoms: C_12  and  N_13
REMARK    6  A    between atoms: N_13  and  C_14
REMARK                            x       y       z     vdW  Elec       q    Type
REMARK                         _______ _______ _______ _____ _____    ______ ____
ROOT
ATOM      1  C   UNL     1       1.682  -1.059  -1.905  0.00  0.00    +0.126 A 
ATOM      2  C   UNL     1       2.208  -2.334  -1.976  0.00  0.00    +0.030 A 
ATOM      3  C   UNL     1       3.528  -2.520  -2.343  0.00  0.00    +0.002 A 
ATOM      4  C   UNL     1       4.326  -1.430  -2.641  0.00  0.00    +0.002 A 
ATOM      5  C   UNL     1       3.806  -0.153  -2.573  0.00  0.00    +0.025 A 
ATOM      6  C   UNL     1       2.478   0.037  -2.209  0.00  0.00    +0.054 A 
ENDROOT
BRANCH   1   7
ATOM      7  S   UNL     1      -0.000  -0.824  -1.437  0.00  0.00    +0.062 S 
ATOM      8  O   UNL     1      -0.531  -2.115  -1.167  0.00  0.00    -0.153 OA
ATOM      9  O   UNL     1      -0.572   0.049  -2.401  0.00  0.00    -0.153 OA
BRANCH   7  11
ATOM     10  C   UNL     1      -0.018   1.461   0.010  0.00  0.00    +0.131 C 
ATOM     11  N   UNL     1       0.002  -0.004   0.002  0.00  0.00    -0.183 NA
ATOM     12  C   UNL     1       0.024  -0.743   1.267  0.00  0.00    +0.131 C 
ENDBRANCH   7  11
ENDBRANCH   1   7
BRANCH   6  13
ATOM     13  N   UNL     1       1.948   1.327  -2.144  0.00  0.00    -0.339 N 
ATOM     14  H   UNL     1       1.022   1.459  -1.887  0.00  0.00    +0.146 HD
BRANCH  13  15
ATOM     15  C   UNL     1       2.790   2.482  -2.466  0.00  0.00    +0.070 C 
ATOM     16  C   UNL     1       3.630   2.848  -1.225  0.00  0.00    +0.022 C 
ATOM     17  C   UNL     1       4.819   3.654  -1.674  0.00  0.00    +0.002 C 
ATOM     18  C   UNL     1       4.566   5.172  -1.596  0.00  0.00    +0.000 C 
ATOM     19  C   UNL     1       3.160   5.569  -2.087  0.00  0.00    +0.000 C 
ATOM     20  C   UNL     1       2.750   4.821  -3.326  0.00  0.00    +0.002 C 
ATOM     21  C   UNL     1       1.938   3.579  -2.902  0.00  0.00    +0.022 C 
ENDBRANCH  13  15
ENDBRANCH   6  13
TORSDOF 4
