REMARK  Name = ZINC13945171
REMARK  9 active torsions:
REMARK  status: ('A' for Active; 'I' for Inactive)
REMARK    1  A    between atoms: C_1  and  C_2
REMARK    2  A    between atoms: C_5  and  C_8
REMARK    3  A    between atoms: C_8  and  C_10
REMARK    4  A    between atoms: C_10  and  C_12
REMARK    5  A    between atoms: C_10  and  O_13
REMARK    6  A    between atoms: O_13  and  C_14
REMARK    7  A    between atoms: C_14  and  C_16
REMARK    8  A    between atoms: C_18  and  N_23
REMARK    9  A    between atoms: C_21  and  O_22
REMARK                            x       y       z     vdW  Elec       q    Type
REMARK                         _______ _______ _______ _____ _____    ______ ____
ROOT
ATOM      1  C   UNL     1      -6.785  -2.166  -1.000  0.00  0.00    +0.102 A 
ATOM      2  C   UNL     1      -5.702  -1.284  -1.041  0.00  0.00    +0.042 A 
ATOM      3  C   UNL     1      -4.966  -1.043   0.105  0.00  0.00    +0.045 A 
ATOM      4  C   UNL     1      -5.308  -1.668   1.300  0.00  0.00    +0.027 A 
ATOM      5  C   UNL     1      -6.380  -2.536   1.350  0.00  0.00    +0.048 A 
ATOM      6  C   UNL     1      -7.124  -2.792   0.208  0.00  0.00    +0.131 A 
ENDROOT
BRANCH   3   7
ATOM      7  N   UNL     1      -3.874  -0.161   0.064  0.00  0.00    -0.210 N 
ATOM      8  C   UNL     1      -3.463   0.504  -1.080  0.00  0.00    +0.231 C 
ATOM      9  O   UNL     1      -4.075   0.699  -2.108  0.00  0.00    -0.274 OA
ATOM     10  C   UNL     1      -2.122   0.904  -0.735  0.00  0.00    +0.095 C 
ATOM     11  C   UNL     1      -0.940   1.692  -1.151  0.00  0.00    +0.025 C 
ATOM     12  C   UNL     1      -0.013   1.086   0.008  0.00  0.00    +0.016 C 
ATOM     13  C   UNL     1      -0.902   1.669   1.171  0.00  0.00    +0.025 C 
ATOM     14  C   UNL     1      -2.365   1.387   0.754  0.00  0.00    +0.095 C 
ATOM     15  C   UNL     1      -3.092   0.140   1.155  0.00  0.00    +0.231 C 
ATOM     16  O   UNL     1      -3.010  -0.465   2.202  0.00  0.00    -0.274 OA
ATOM     17  C   UNL     1      -0.869   3.152   0.698  0.00  0.00    -0.027 C 
ATOM     18  C   UNL     1      -0.940   3.130  -0.632  0.00  0.00    -0.027 C 
ENDBRANCH   3   7
BRANCH   1  19
ATOM     19  C   UNL     1      -7.570  -2.432  -2.218  0.00  0.00    +0.343 C 
ATOM     20  O   UNL     1      -8.515  -3.196  -2.177  0.00  0.00    -0.245 OA
BRANCH  19  21
ATOM     21  O   UNL     1      -7.242  -1.829  -3.377  0.00  0.00    -0.450 OA
BRANCH  21  22
ATOM     22  C   UNL     1      -8.059  -2.138  -4.537  0.00  0.00    +0.244 C 
ATOM     23  C   UNL     1      -9.222  -1.147  -4.620  0.00  0.00    +0.061 C 
BRANCH  22  24
ATOM     24  C   UNL     1      -7.221  -2.035  -5.785  0.00  0.00    +0.203 C 
ATOM     25  O   UNL     1      -6.145  -1.477  -5.748  0.00  0.00    -0.288 OA
BRANCH  24  30
ATOM     26  C   UNL     1      -9.125  -4.283 -10.721  0.00  0.00    +0.044 C 
ATOM     27  C   UNL     1      -8.626  -3.694  -9.427  0.00  0.00    -0.050 A 
ATOM     28  C   UNL     1      -7.397  -3.059  -9.389  0.00  0.00    +0.004 A 
ATOM     29  C   UNL     1      -6.933  -2.517  -8.209  0.00  0.00    +0.012 A 
ATOM     30  C   UNL     1      -7.708  -2.611  -7.048  0.00  0.00    +0.021 A 
ATOM     31  C   UNL     1      -8.946  -3.260  -7.094  0.00  0.00    +0.012 A 
ATOM     32  C   UNL     1      -9.399  -3.791  -8.283  0.00  0.00    +0.004 A 
ENDBRANCH  24  30
ENDBRANCH  22  24
ENDBRANCH  21  22
ENDBRANCH  19  21
ENDBRANCH   1  19
BRANCH   6  33
ATOM     33  O   UNL     1      -8.177  -3.646   0.259  0.00  0.00    -0.506 OA
ATOM     34  H   UNL     1      -9.019  -3.219   0.472  0.00  0.00    +0.292 HD
ENDBRANCH   6  33
TORSDOF 7
