REMARK  Name = ZINC10085555
REMARK  7 active torsions:
REMARK  status: ('A' for Active; 'I' for Inactive)
REMARK    1  A    between atoms: C_1  and  N_49
REMARK    2  A    between atoms: C_2  and  N_49
REMARK    3  A    between atoms: C_3  and  C_5
REMARK    4  A    between atoms: C_3  and  C_19
REMARK    5  A    between atoms: C_3  and  N_49
REMARK    6  A    between atoms: C_5  and  N_6
REMARK    7  A    between atoms: C_7  and  C_9
REMARK                            x       y       z     vdW  Elec       q    Type
REMARK                         _______ _______ _______ _____ _____    ______ ____
ROOT
ATOM      1  C   UNL     1      -0.799   2.175  -1.015  0.00  0.00    +0.094 C 
ENDROOT
BRANCH   1   2
ATOM      2  N   UNL     1      -0.428   1.636  -2.326  0.00  0.00    -0.309 N 
ATOM      3  C   UNL     1      -1.053   2.075  -3.436  0.00  0.00    +0.299 C 
ATOM      4  O   UNL     1      -1.923   2.916  -3.350  0.00  0.00    -0.265 OA
ATOM      5  H   UNL     1       0.268   0.963  -2.394  0.00  0.00    +0.149 HD
BRANCH   3   6
ATOM      6  C   UNL     1      -0.675   1.525  -4.772  0.00  0.00    +0.304 C 
ATOM      7  O   UNL     1       0.196   0.684  -4.859  0.00  0.00    -0.265 OA
ATOM      8  N   UNL     1      -1.300   1.964  -5.883  0.00  0.00    -0.263 N 
ATOM      9  C   UNL     1      -1.006   1.393  -7.119  0.00  0.00    +0.125 A 
ATOM     10  C   UNL     1      -1.568   1.926  -8.274  0.00  0.00    +0.045 A 
ATOM     11  C   UNL     1      -1.263   1.353  -9.497  0.00  0.00    +0.025 A 
ATOM     12  C   UNL     1      -0.413   0.255  -9.520  0.00  0.00    +0.059 A 
ATOM     13  C   UNL     1       0.104  -0.226  -8.332  0.00  0.00    +0.132 A 
ATOM     14  N   UNL     1      -0.200   0.345  -7.182  0.00  0.00    -0.239 NA
ATOM     15 CL   UNL     1      -0.003  -0.505 -11.026  0.00  0.00    -0.082 Cl
ATOM     16  H   UNL     1      -1.954   2.678  -5.821  0.00  0.00    +0.157 HD
ENDBRANCH   3   6
ENDBRANCH   1   2
BRANCH   1  17
ATOM     17  C   UNL     1       0.075   1.534   0.066  0.00  0.00    -0.020 C 
BRANCH  17  18
ATOM     18  C   UNL     1      -0.210   2.186   1.394  0.00  0.00    -0.052 A 
ATOM     19  C   UNL     1      -1.059   1.594   2.279  0.00  0.00    +0.003 A 
ATOM     20  C   UNL     1      -1.335   2.181   3.512  0.00  0.00    +0.001 A 
ATOM     21  C   UNL     1      -0.763   3.364   3.868  0.00  0.00    +0.008 A 
ATOM     22  C   UNL     1       0.118   4.005   2.981  0.00  0.00    -0.018 A 
ATOM     23  C   UNL     1       0.403   3.405   1.729  0.00  0.00    -0.016 A 
ATOM     24  C   UNL     1       1.289   4.043   0.844  0.00  0.00    +0.009 A 
ATOM     25  C   UNL     1       1.865   5.223   1.202  0.00  0.00    +0.001 A 
ATOM     26  C   UNL     1       1.589   5.811   2.435  0.00  0.00    +0.001 A 
ATOM     27  C   UNL     1       0.728   5.227   3.313  0.00  0.00    +0.008 A 
ENDBRANCH  17  18
BRANCH  17  30
ATOM     28  C   UNL     1      -1.623  -0.170  -0.215  0.00  0.00    -0.096 C 
ATOM     29  C   UNL     1       0.696  -0.683  -0.686  0.00  0.00    -0.096 C 
ATOM     30  N   UNL     1      -0.222   0.090   0.178  0.00  0.00    +0.382 N 
ATOM     31  H   UNL     1      -0.089  -0.203   1.153  0.00  0.00    -0.082 HD
ENDBRANCH  17  30
ENDBRANCH   1  17
TORSDOF 5
