REMARK  Name = ZINC20713135
REMARK  5 active torsions:
REMARK  status: ('A' for Active; 'I' for Inactive)
REMARK    1  A    between atoms: C_1  and  C_2
REMARK    2  A    between atoms: N_5  and  S_8
REMARK    3  A    between atoms: S_8  and  C_11
REMARK    4  A    between atoms: C_24  and  C_27
REMARK    5  A    between atoms: C_32  and  N_33
REMARK                            x       y       z     vdW  Elec       q    Type
REMARK                         _______ _______ _______ _____ _____    ______ ____
ROOT
ATOM      1  C   UNL     1      -4.645   0.018   2.551  0.00  0.00    +0.106 A 
ATOM      2  C   UNL     1      -5.034  -0.108   1.230  0.00  0.00    +0.030 A 
ATOM      3  C   UNL     1      -4.699   0.875   0.321  0.00  0.00    +0.025 A 
ATOM      4  C   UNL     1      -3.974   1.986   0.734  0.00  0.00    +0.031 A 
ATOM      5  C   UNL     1      -3.583   2.118   2.057  0.00  0.00    -0.018 A 
ATOM      6  C   UNL     1      -3.925   1.122   2.962  0.00  0.00    +0.034 A 
ATOM      7  C   UNL     1      -2.806   3.298   2.549  0.00  0.00    +0.049 C 
ATOM      8  C   UNL     1      -1.357   2.945   2.787  0.00  0.00    -0.023 C 
ATOM      9  C   UNL     1      -0.586   3.953   2.461  0.00  0.00    -0.030 C 
ATOM     10  C   UNL     1      -1.417   5.120   1.965  0.00  0.00    +0.033 C 
ATOM     11  C   UNL     1      -2.752   4.450   1.526  0.00  0.00    +0.029 C 
ATOM     12  C   UNL     1      -2.539   3.888   0.118  0.00  0.00    +0.107 C 
ATOM     13  N   UNL     1      -3.640   2.973  -0.200  0.00  0.00    -0.336 N 
ATOM     14  H   UNL     1      -4.181   3.072  -1.153  0.00  0.00    +0.147 HD
ENDROOT
BRANCH  12  15
ATOM     15  C   UNL     1      -1.231   3.142   0.064  0.00  0.00    +0.003 A 
ATOM     16  C   UNL     1      -1.187   1.801   0.394  0.00  0.00    +0.008 A 
ATOM     17  C   UNL     1       0.014   1.118   0.351  0.00  0.00    +0.000 A 
ATOM     18  C   UNL     1       1.169   1.774  -0.034  0.00  0.00    +0.002 A 
ATOM     19  C   UNL     1       1.123   3.114  -0.369  0.00  0.00    +0.033 A 
ATOM     20  C   UNL     1      -0.077   3.798  -0.320  0.00  0.00    +0.131 A 
BRANCH  20  21
ATOM     21  N   UNL     1      -0.126   5.233  -0.680  0.00  0.00    +0.057 N 
ATOM     22  O   UNL     1       0.906   5.842  -0.898  0.00  0.00    -0.126 OA
ATOM     23  O   UNL     1      -1.198   5.805  -0.757  0.00  0.00    -0.126 OA
ENDBRANCH  20  21
ENDBRANCH  12  15
BRANCH   1  24
ATOM     24  S   UNL     1      -5.069  -1.235   3.714  0.00  0.00    +0.061 S 
ATOM     25  O   UNL     1      -5.060  -0.620   4.995  0.00  0.00    -0.153 OA
ATOM     26  O   UNL     1      -6.213  -1.900   3.196  0.00  0.00    -0.153 OA
BRANCH  24  31
ATOM     27  C   UNL     1      -0.068  -3.581   2.176  0.00  0.00    +0.007 C 
ATOM     28  C   UNL     1      -1.374  -3.518   2.969  0.00  0.00    -0.012 C 
ATOM     29  C   UNL     1      -1.401  -2.236   3.806  0.00  0.00    +0.020 C 
ATOM     30  C   UNL     1      -2.695  -2.193   4.625  0.00  0.00    +0.110 C 
ATOM     31  N   UNL     1      -3.837  -2.342   3.713  0.00  0.00    -0.177 NA
ATOM     32  C   UNL     1      -3.869  -3.496   2.803  0.00  0.00    +0.110 C 
ATOM     33  C   UNL     1      -2.559  -3.521   2.001  0.00  0.00    +0.020 C 
ENDBRANCH  24  31
ENDBRANCH   1  24
TORSDOF 4
