REMARK  Name = ZINC10667441
REMARK  6 active torsions:
REMARK  status: ('A' for Active; 'I' for Inactive)
REMARK    1  A    between atoms: C_4  and  C_10
REMARK    2  A    between atoms: C_6  and  N_7
REMARK    3  A    between atoms: C_10  and  O_12
REMARK    4  A    between atoms: O_12  and  C_13
REMARK    5  A    between atoms: C_13  and  C_14
REMARK    6  A    between atoms: N_16  and  C_17
REMARK                            x       y       z     vdW  Elec       q    Type
REMARK                         _______ _______ _______ _____ _____    ______ ____
ROOT
ATOM      1  C   UNL     1      -1.330   1.944   0.001  0.00  0.00    +0.328 C 
ENDROOT
BRANCH   1   2
ATOM      2  C   UNL     1      -0.014   1.208   0.002  0.00  0.00    +0.255 C 
ATOM      3  O   UNL     1       0.003  -0.004  -0.001  0.00  0.00    -0.272 OA
ATOM      4  N   UNL     1       1.143   1.898   0.001  0.00  0.00    -0.281 N 
ATOM      5  H   UNL     1       1.131   2.866  -0.062  0.00  0.00    +0.155 HD
BRANCH   4   6
ATOM      6  C   UNL     1       2.364   1.218   0.092  0.00  0.00    +0.053 A 
ATOM      7  C   UNL     1       2.513  -0.025  -0.508  0.00  0.00    +0.046 A 
ATOM      8  C   UNL     1       3.719  -0.694  -0.417  0.00  0.00    +0.061 A 
ATOM      9  C   UNL     1       4.779  -0.125   0.270  0.00  0.00    +0.061 A 
ATOM     10  C   UNL     1       4.632   1.113   0.869  0.00  0.00    +0.043 A 
ATOM     11  C   UNL     1       3.430   1.789   0.776  0.00  0.00    +0.064 A 
ATOM     12 CL   UNL     1       3.249   3.347   1.521  0.00  0.00    -0.082 Cl
ATOM     13 CL   UNL     1       6.292  -0.968   0.382  0.00  0.00    -0.082 Cl
ATOM     14 CL   UNL     1       3.907  -2.249  -1.167  0.00  0.00    -0.082 Cl
ENDBRANCH   4   6
ENDBRANCH   1   2
BRANCH   1  15
ATOM     15  O   UNL     1      -2.420   0.985  -0.004  0.00  0.00    -0.452 OA
BRANCH  15  16
ATOM     16  C   UNL     1      -3.672   1.482  -0.006  0.00  0.00    +0.341 C 
ATOM     17  O   UNL     1      -3.848   2.684  -0.004  0.00  0.00    -0.245 OA
BRANCH  16  21
ATOM     18  C   UNL     1      -7.003  -1.152  -0.022  0.00  0.00    +0.034 A 
ATOM     19  C   UNL     1      -7.209   0.216  -0.019  0.00  0.00    +0.023 A 
ATOM     20  C   UNL     1      -6.131   1.079  -0.013  0.00  0.00    +0.055 A 
ATOM     21  C   UNL     1      -4.830   0.566  -0.011  0.00  0.00    +0.079 A 
ATOM     22  C   UNL     1      -4.632  -0.816  -0.020  0.00  0.00    +0.049 A 
ATOM     23  C   UNL     1      -5.718  -1.665  -0.020  0.00  0.00    +0.127 A 
ATOM     24 CL   UNL     1      -6.390   2.796  -0.009  0.00  0.00    -0.083 Cl
BRANCH  23  25
ATOM     25  N   UNL     1      -5.509  -3.131  -0.024  0.00  0.00    +0.056 N 
ATOM     26  O   UNL     1      -6.467  -3.883  -0.029  0.00  0.00    -0.126 OA
ATOM     27  O   UNL     1      -4.379  -3.585  -0.023  0.00  0.00    -0.126 OA
ENDBRANCH  23  25
ENDBRANCH  16  21
ENDBRANCH  15  16
ENDBRANCH   1  15
TORSDOF 6
