REMARK  Name = ZINC02951444
REMARK  5 active torsions:
REMARK  status: ('A' for Active; 'I' for Inactive)
REMARK    1  A    between atoms: C_1  and  C_2
REMARK    2  A    between atoms: C_2  and  O_3
REMARK    3  A    between atoms: O_3  and  C_4
REMARK    4  A    between atoms: N_12  and  C_13
REMARK    5  A    between atoms: C_20  and  C_22
REMARK                            x       y       z     vdW  Elec       q    Type
REMARK                         _______ _______ _______ _____ _____    ______ ____
ROOT
ATOM      1  C   UNL     1       6.208  -0.877   0.163  0.00  0.00    +0.163 A 
ATOM      2  C   UNL     1       6.331  -2.227  -0.122  0.00  0.00    +0.049 A 
ATOM      3  C   UNL     1       5.208  -3.001  -0.372  0.00  0.00    +0.004 A 
ATOM      4  C   UNL     1       3.952  -2.439  -0.340  0.00  0.00    +0.012 A 
ATOM      5  C   UNL     1       3.808  -1.075  -0.057  0.00  0.00    +0.022 A 
ATOM      6  C   UNL     1       4.947  -0.290   0.201  0.00  0.00    +0.179 A 
ATOM      7  O   UNL     1       4.808   1.029   0.484  0.00  0.00    -0.435 OA
ATOM      8  C   UNL     1       3.721   1.658  -0.029  0.00  0.00    +0.212 A 
ATOM      9  N   UNL     1       3.812   2.873  -0.525  0.00  0.00    -0.325 N 
ATOM     10  C   UNL     1       2.432   0.937  -0.014  0.00  0.00    +0.098 A 
ATOM     11  C   UNL     1       2.484  -0.451  -0.023  0.00  0.00    +0.030 A 
ATOM     12  H   UNL     1       2.942   3.334  -1.016  0.00  0.00    +0.169 HD
ENDROOT
BRANCH  10  13
ATOM     13  C   UNL     1       1.149   1.658   0.014  0.00  0.00    +0.255 C 
ATOM     14  O   UNL     1       1.134   2.874   0.026  0.00  0.00    -0.270 OA
ATOM     15  N   UNL     1      -0.010   0.970   0.027  0.00  0.00    -0.261 N 
ATOM     16  C   UNL     1      -1.221   1.650   0.048  0.00  0.00    +0.165 A 
ATOM     17  N   UNL     1      -2.446   1.161   0.058  0.00  0.00    -0.233 NA
ATOM     18  C   UNL     1      -3.499   1.956   0.079  0.00  0.00    +0.120 A 
ATOM     19  C   UNL     1      -3.296   3.296   0.089  0.00  0.00    +0.068 A 
ATOM     20  S   UNL     1      -1.511   3.362   0.076  0.00  0.00    -0.061 S 
ATOM     21  H   UNL     1       0.003  -0.130   0.021  0.00  0.00    +0.157 HD
ENDBRANCH  10  13
BRANCH   9  22
ATOM     22  C   UNL     1       4.988   3.564  -0.430  0.00  0.00    +0.043 A 
ATOM     23  C   UNL     1       5.278   4.303   0.720  0.00  0.00    +0.026 A 
ATOM     24  C   UNL     1       6.468   4.993   0.810  0.00  0.00    +0.003 A 
ATOM     25  C   UNL     1       7.371   4.964  -0.238  0.00  0.00    +0.015 A 
ATOM     26  C   UNL     1       7.089   4.238  -1.383  0.00  0.00    +0.020 A 
ATOM     27  C   UNL     1       5.904   3.538  -1.485  0.00  0.00    +0.041 A 
ATOM     28 BR   UNL     1       8.330   4.205  -2.809  0.00  0.00    -0.050 Br
ENDBRANCH   9  22
BRANCH   1  29
ATOM     29  O   UNL     1       7.316  -0.128   0.406  0.00  0.00    -0.489 OA
BRANCH  29  31
ATOM     30  C   UNL     1       9.698   0.200   0.647  0.00  0.00    +0.048 C 
ATOM     31  C   UNL     1       8.577  -0.798   0.350  0.00  0.00    +0.226 C 
ENDBRANCH  29  31
ENDBRANCH   1  29
TORSDOF 4
