REMARK  Name = ZINC12896640
REMARK  3 active torsions:
REMARK  status: ('A' for Active; 'I' for Inactive)
REMARK    1  A    between atoms: C_4  and  C_7
REMARK    2  A    between atoms: C_8  and  C_9
REMARK    3  A    between atoms: C_15  and  C_17
REMARK                            x       y       z     vdW  Elec       q    Type
REMARK                         _______ _______ _______ _____ _____    ______ ____
ROOT
ATOM      1  C   UNL     1       5.260  -1.716   2.210  0.00  0.00    +0.240 C 
ATOM      2  O   UNL     1       4.214  -1.389   2.739  0.00  0.00    -0.271 OA
ATOM      3  N   UNL     1       5.306  -1.925   0.879  0.00  0.00    -0.288 N 
ATOM      4  C   UNL     1       6.502  -2.321   0.113  0.00  0.00    +0.109 C 
ATOM      5  C   UNL     1       5.947  -3.013  -1.157  0.00  0.00    +0.021 C 
ATOM      6  C   UNL     1       4.691  -2.152  -1.457  0.00  0.00    +0.032 C 
ATOM      7  C   UNL     1       4.173  -1.793  -0.048  0.00  0.00    +0.145 C 
ENDROOT
BRANCH   7   8
ATOM      8  C   UNL     1       3.663  -0.375  -0.036  0.00  0.00    +0.158 A 
ATOM      9  N   UNL     1       4.393   0.710  -0.037  0.00  0.00    -0.132 NA
ATOM     10  N   UNL     1       3.641   1.754  -0.023  0.00  0.00    -0.129 NA
ATOM     11  C   UNL     1       2.371   1.383  -0.013  0.00  0.00    +0.161 A 
ATOM     12  N   UNL     1       2.358   0.010  -0.021  0.00  0.00    -0.285 N 
ATOM     13  C   UNL     1       1.176  -0.670  -0.013  0.00  0.00    +0.094 A 
ATOM     14  C   UNL     1       0.002  -0.004   0.002  0.00  0.00    +0.018 A 
ATOM     15  C   UNL     1      -0.017   1.401   0.010  0.00  0.00    +0.005 A 
ATOM     16  C   UNL     1       1.155   2.092   0.002  0.00  0.00    +0.048 A 
ENDBRANCH   7   8
BRANCH   1  18
ATOM     17  C   UNL     1       6.423  -1.675   4.351  0.00  0.00    +0.013 C 
ATOM     18  C   UNL     1       6.469  -1.883   3.020  0.00  0.00    +0.068 C 
BRANCH  17  22
ATOM     19  C   UNL     1       9.924  -2.160   6.696  0.00  0.00    +0.000 A 
ATOM     20  C   UNL     1       8.736  -1.788   7.301  0.00  0.00    +0.001 A 
ATOM     21  C   UNL     1       7.594  -1.628   6.546  0.00  0.00    +0.008 A 
ATOM     22  C   UNL     1       7.638  -1.843   5.165  0.00  0.00    -0.025 A 
ATOM     23  C   UNL     1       8.840  -2.224   4.562  0.00  0.00    +0.008 A 
ATOM     24  C   UNL     1       9.975  -2.375   5.330  0.00  0.00    +0.001 A 
ENDBRANCH  17  22
ENDBRANCH   1  18
TORSDOF 3
