REMARK  Name = ZINC54680032
REMARK  2 active torsions:
REMARK  status: ('A' for Active; 'I' for Inactive)
REMARK    1  A    between atoms: C_4  and  N_7
REMARK    2  A    between atoms: C_8  and  C_19
REMARK                            x       y       z     vdW  Elec       q    Type
REMARK                         _______ _______ _______ _____ _____    ______ ____
ROOT
ATOM      1  N   UNL     1       3.621  -0.650  -0.037  0.00  0.00    -0.243 N 
ATOM      2  C   UNL     1       3.631  -2.110   0.060  0.00  0.00    +0.218 C 
ATOM      3  N   UNL     1       4.829  -2.565   0.775  0.00  0.00    -0.320 N 
ATOM      4  C   UNL     1       6.052  -1.975   0.475  0.00  0.00    +0.041 A 
ATOM      5  C   UNL     1       7.246  -2.663   0.614  0.00  0.00    +0.024 A 
ATOM      6  C   UNL     1       8.438  -2.031   0.314  0.00  0.00    +0.002 A 
ATOM      7  C   UNL     1       8.447  -0.716  -0.124  0.00  0.00    +0.001 A 
ATOM      8  C   UNL     1       7.267  -0.019  -0.272  0.00  0.00    +0.015 A 
ATOM      9  C   UNL     1       6.057  -0.644   0.022  0.00  0.00    +0.058 A 
ATOM     10  C   UNL     1       4.768   0.050  -0.148  0.00  0.00    +0.254 C 
ATOM     11  O   UNL     1       4.739   1.243  -0.382  0.00  0.00    -0.270 OA
ATOM     12  H   UNL     1       4.768  -3.263   1.445  0.00  0.00    +0.148 HD
ENDROOT
BRANCH   1  16
ATOM     13  C   UNL     1      -0.017   1.377   0.011  0.00  0.00    +0.000 A 
ATOM     14  C   UNL     1       0.750   1.364  -1.140  0.00  0.00    +0.002 A 
ATOM     15  C   UNL     1       1.956   0.692  -1.159  0.00  0.00    +0.023 A 
ATOM     16  C   UNL     1       2.400   0.031  -0.021  0.00  0.00    +0.039 A 
ATOM     17  C   UNL     1       1.627   0.047   1.133  0.00  0.00    +0.023 A 
ATOM     18  C   UNL     1       0.421   0.720   1.145  0.00  0.00    +0.002 A 
ENDBRANCH   1  16
BRANCH   2  19
ATOM     19  C   UNL     1       3.627  -2.702  -1.326  0.00  0.00    +0.111 A 
ATOM     20  C   UNL     1       4.201  -3.900  -1.609  0.00  0.00    +0.095 A 
ATOM     21  S   UNL     1       3.901  -4.050  -3.255  0.00  0.00    +0.029 S 
ATOM     22  N   UNL     1       3.103  -2.665  -3.507  0.00  0.00    -0.110 NA
ATOM     23  N   UNL     1       3.062  -2.099  -2.351  0.00  0.00    -0.143 NA
ENDBRANCH   2  19
TORSDOF 2
