REMARK  Name = ZINC67469143
REMARK  11 active torsions:
REMARK  status: ('A' for Active; 'I' for Inactive)
REMARK    1  A    between atoms: C_1  and  C_2
REMARK    2  A    between atoms: C_2  and  C_4
REMARK    3  A    between atoms: C_2  and  N_15
REMARK    4  A    between atoms: C_8  and  S_10
REMARK    5  A    between atoms: S_10  and  N_13
REMARK    6  A    between atoms: N_13  and  C_14
REMARK    7  A    between atoms: N_18  and  CA_19
REMARK    8  A    between atoms: CA_19  and  CB_21
REMARK    9  A    between atoms: CA_19  and  C_28
REMARK   10  A    between atoms: CB_21  and  CG_22
REMARK   11  A    between atoms: C_28  and  O_29
REMARK                            x       y       z     vdW  Elec       q    Type
REMARK                         _______ _______ _______ _____ _____    ______ ____
ROOT
ATOM      1  N   UNK A   0       0.711  -0.489   1.189  0.00  0.00    -0.293 N 
ATOM      2  C   UNK A   0       0.051  -0.633   2.355  0.00  0.00    +0.300 C 
ATOM      3  O   UNK A   0      -1.132  -0.361   2.423  0.00  0.00    -0.253 OA
ATOM      4  N   PHE A   1       0.703  -1.080   3.447  0.00  0.00    -0.294 N 
ATOM      5  H   UNK A   0       1.654  -0.707   1.135  0.00  0.00    +0.151 HD
ATOM      6  H   PHE A   1       1.647  -1.298   3.394  0.00  0.00    +0.151 HD
ENDROOT
BRANCH   1   8
ATOM      7  C   UNK A   0      -0.019   1.526   0.010  0.00  0.00    +0.033 C 
ATOM      8  C   UNK A   0       0.002  -0.004   0.002  0.00  0.00    +0.102 C 
BRANCH   8   9
ATOM      9  C   UNK A   0       0.707  -0.490  -1.238  0.00  0.00    -0.026 A 
ATOM     10  C   UNK A   0       2.089  -0.511  -1.284  0.00  0.00    +0.005 A 
ATOM     11  C   UNK A   0       2.736  -0.957  -2.421  0.00  0.00    +0.002 A 
ATOM     12  C   UNK A   0       2.002  -1.382  -3.512  0.00  0.00    +0.028 A 
ATOM     13  C   UNK A   0       0.620  -1.362  -3.466  0.00  0.00    +0.106 A 
ATOM     14  C   UNK A   0      -0.027  -0.920  -2.327  0.00  0.00    +0.034 A 
BRANCH  13  15
ATOM     15  S   UNK A   0      -0.316  -1.904  -4.857  0.00  0.00    +0.058 S 
ATOM     16  O   UNK A   0      -1.586  -1.274  -4.762  0.00  0.00    -0.153 OA
ATOM     17  O   UNK A   0       0.524  -1.758  -5.994  0.00  0.00    -0.153 OA
BRANCH  15  18
ATOM     18  N   UNK A   0      -0.578  -3.528  -4.668  0.00  0.00    -0.193 NA
ATOM     19  C   UNK A   0      -1.396  -4.014  -3.554  0.00  0.00    +0.127 C 
ATOM     20  H   UNK A   0      -0.190  -4.158  -5.295  0.00  0.00    +0.148 HD
ENDBRANCH  15  18
ENDBRANCH  13  15
ENDBRANCH   8   9
ENDBRANCH   1   8
BRANCH   4  21
ATOM     21  CA  PHE A   1      -0.014  -1.237   4.715  0.00  0.00    +0.104 C 
BRANCH  21  22
ATOM     22  CB  PHE A   1       0.695  -2.284   5.576  0.00  0.00    +0.059 C 
BRANCH  22  23
ATOM     23  CG  PHE A   1       0.611  -3.629   4.902  0.00  0.00    -0.046 A 
ATOM     24  CD2 PHE A   1      -0.458  -4.467   5.162  0.00  0.00    +0.004 A 
ATOM     25  CE2 PHE A   1      -0.535  -5.701   4.543  0.00  0.00    +0.000 A 
ATOM     26  CZ  PHE A   1       0.455  -6.096   3.664  0.00  0.00    +0.000 A 
ATOM     27  CE1 PHE A   1       1.523  -5.258   3.403  0.00  0.00    +0.000 A 
ATOM     28  CD1 PHE A   1       1.599  -4.023   4.018  0.00  0.00    +0.004 A 
ENDBRANCH  22  23
ENDBRANCH  21  22
BRANCH  21  29
ATOM     29  C   PHE A   1      -0.037   0.102   5.457  0.00  0.00    +0.178 C 
BRANCH  29  30
ATOM     30  O   PHE A   1       1.296   0.469   5.819  0.00  0.00    -0.393 OA
ATOM     31  H   PHE A   1       1.357   1.309   6.293  0.00  0.00    +0.209 HD
ENDBRANCH  29  30
ENDBRANCH  21  29
ENDBRANCH   4  21
TORSDOF 9
