REMARK  Name = ZINC52094110
REMARK  3 active torsions:
REMARK  status: ('A' for Active; 'I' for Inactive)
REMARK    1  A    between atoms: C_1  and  C_2
REMARK    2  A    between atoms: C_5  and  C_8
REMARK    3  A    between atoms: C_8  and  C_10
REMARK                            x       y       z     vdW  Elec       q    Type
REMARK                         _______ _______ _______ _____ _____    ______ ____
ROOT
ATOM      1  C   UNL     1       0.188  -4.994   1.246  0.00  0.00    +0.038 A 
ATOM      2  C   UNL     1      -0.897  -5.719   1.744  0.00  0.00    +0.040 A 
ATOM      3  C   UNL     1      -0.771  -6.413   2.932  0.00  0.00    +0.068 A 
ATOM      4  C   UNL     1       0.441  -6.388   3.633  0.00  0.00    +0.068 A 
ATOM      5  C   UNL     1       1.519  -5.665   3.136  0.00  0.00    +0.043 A 
ATOM      6  C   UNL     1       1.399  -4.977   1.949  0.00  0.00    +0.031 A 
ATOM      7 BR   UNL     1       2.871  -4.002   1.271  0.00  0.00    -0.049 Br
ATOM      8  N   UNL     1       0.263  -7.165   4.769  0.00  0.00    -0.306 N 
ATOM      9  H   UNL     1       0.932  -7.334   5.451  0.00  0.00    +0.170 HD
ATOM     10  C   UNL     1      -0.995  -7.644   4.767  0.00  0.00    +0.325 A 
ATOM     11  O   UNL     1      -1.473  -8.362   5.625  0.00  0.00    -0.247 OA
ATOM     12  N   UNL     1      -1.645  -7.208   3.671  0.00  0.00    -0.306 N 
ATOM     13  H   UNL     1      -2.564  -7.412   3.437  0.00  0.00    +0.170 HD
ENDROOT
BRANCH   1  14
ATOM     14  C   UNL     1       0.061  -4.251  -0.021  0.00  0.00    +0.194 C 
ATOM     15  O   UNL     1       0.079  -4.848  -1.080  0.00  0.00    -0.287 OA
BRANCH  14  20
ATOM     16  C   UNL     1      -0.524   1.473   0.044  0.00  0.00    +0.044 C 
ATOM     17  C   UNL     1      -0.371  -0.026   0.027  0.00  0.00    -0.050 A 
ATOM     18  C   UNL     1      -0.236  -0.691  -1.179  0.00  0.00    +0.004 A 
ATOM     19  C   UNL     1      -0.095  -2.062  -1.202  0.00  0.00    +0.012 A 
ATOM     20  C   UNL     1      -0.089  -2.781  -0.005  0.00  0.00    +0.022 A 
ATOM     21  C   UNL     1      -0.226  -2.103   1.209  0.00  0.00    +0.012 A 
ATOM     22  C   UNL     1      -0.361  -0.731   1.218  0.00  0.00    +0.004 A 
ENDBRANCH  14  20
ENDBRANCH   1  14
TORSDOF 2
