REMARK  Name = ZINC13389407
REMARK  4 active torsions:
REMARK  status: ('A' for Active; 'I' for Inactive)
REMARK    1  A    between atoms: C_1  and  O_2
REMARK    2  A    between atoms: O_2  and  C_3
REMARK    3  A    between atoms: C_6  and  C_12
REMARK    4  A    between atoms: C_8  and  N_9
REMARK                            x       y       z     vdW  Elec       q    Type
REMARK                         _______ _______ _______ _____ _____    ______ ____
ROOT
ATOM      1  C   UNL     1       2.433  -2.816   0.037  0.00  0.00    +0.105 C 
ATOM      2  C   UNL     1       3.609  -2.464  -0.850  0.00  0.00    +0.029 C 
ATOM      3  C   UNL     1       4.844  -3.371  -0.801  0.00  0.00    +0.033 C 
ATOM      4  C   UNL     1       5.962  -2.381  -1.140  0.00  0.00    -0.030 C 
ATOM      5  C   UNL     1       5.599  -1.151  -0.793  0.00  0.00    -0.023 C 
ATOM      6  C   UNL     1       4.254  -1.215  -0.172  0.00  0.00    +0.049 C 
ATOM      7  C   UNL     1       3.271  -0.115  -0.279  0.00  0.00    -0.017 A 
ATOM      8  C   UNL     1       3.665   1.200  -0.414  0.00  0.00    +0.006 A 
ATOM      9  C   UNL     1       2.726   2.212  -0.473  0.00  0.00    +0.003 A 
ATOM     10  C   UNL     1       1.380   1.903  -0.396  0.00  0.00    +0.040 A 
ATOM     11  C   UNL     1       0.977   0.590  -0.270  0.00  0.00    +0.144 A 
ATOM     12  C   UNL     1       1.915  -0.445  -0.217  0.00  0.00    +0.067 A 
ATOM     13  N   UNL     1       1.432  -1.750  -0.126  0.00  0.00    -0.334 N 
ATOM     14  F   UNL     1      -0.341   0.301  -0.196  0.00  0.00    -0.204 F 
ATOM     15  H   UNL     1       0.711  -1.821   0.576  0.00  0.00    +0.147 HD
ENDROOT
BRANCH   1  19
ATOM     16  C   UNL     1       3.694  -3.020   4.115  0.00  0.00    +0.150 A 
ATOM     17  C   UNL     1       3.169  -1.840   3.608  0.00  0.00    +0.048 A 
ATOM     18  C   UNL     1       2.762  -1.777   2.290  0.00  0.00    +0.009 A 
ATOM     19  C   UNL     1       2.878  -2.888   1.475  0.00  0.00    -0.025 A 
ATOM     20  C   UNL     1       3.396  -4.066   1.979  0.00  0.00    +0.042 A 
ATOM     21  C   UNL     1       3.809  -4.133   3.296  0.00  0.00    +0.168 A 
BRANCH  21  22
ATOM     22  N   UNL     1       4.369  -5.393   3.834  0.00  0.00    +0.060 N 
ATOM     23  O   UNL     1       4.470  -6.371   3.114  0.00  0.00    -0.126 OA
ATOM     24  O   UNL     1       4.729  -5.453   4.996  0.00  0.00    -0.126 OA
ENDBRANCH  21  22
BRANCH  16  26
ATOM     25  C   UNL     1       3.946  -1.900   6.197  0.00  0.00    +0.277 C 
ATOM     26  O   UNL     1       4.095  -3.084   5.412  0.00  0.00    -0.493 OA
ENDBRANCH  16  26
ENDBRANCH   1  19
TORSDOF 3
