REMARK  Name = ZINC38712577
REMARK  3 active torsions:
REMARK  status: ('A' for Active; 'I' for Inactive)
REMARK    1  A    between atoms: C_1  and  C_2
REMARK    2  A    between atoms: C_2  and  C_3
REMARK    3  A    between atoms: C_9  and  C_24
REMARK                            x       y       z     vdW  Elec       q    Type
REMARK                         _______ _______ _______ _____ _____    ______ ____
ROOT
ATOM      1  C   UNL     1       0.731  -0.503   1.223  0.00  0.00    +0.103 A 
ATOM      2  N   UNL     1       0.270  -0.804   2.421  0.00  0.00    -0.145 NA
ATOM      3  N   UNL     1       1.022  -1.215   3.346  0.00  0.00    -0.125 NA
ATOM      4  C   UNL     1       2.327  -1.370   3.170  0.00  0.00    +0.191 A 
ATOM      5  S   UNL     1       2.469  -0.865   1.458  0.00  0.00    -0.035 S 
ATOM      6  N   UNL     1       3.303  -1.805   4.057  0.00  0.00    -0.230 N 
ATOM      7  C   UNL     1       3.083  -2.213   5.454  0.00  0.00    +0.153 C 
ATOM      8  C   UNL     1       4.427  -2.590   5.985  0.00  0.00    +0.072 A 
ATOM      9  C   UNL     1       4.845  -3.065   7.308  0.00  0.00    +0.199 A 
ATOM     10  O   UNL     1       4.058  -3.395   8.177  0.00  0.00    -0.287 OA
ATOM     11  C   UNL     1       6.318  -3.105   7.487  0.00  0.00    +0.064 A 
ATOM     12  C   UNL     1       6.871  -3.341   8.745  0.00  0.00    +0.015 A 
ATOM     13  C   UNL     1       8.229  -3.370   8.895  0.00  0.00    +0.001 A 
ATOM     14  C   UNL     1       9.057  -3.164   7.800  0.00  0.00    +0.004 A 
ATOM     15  C   UNL     1       8.529  -2.932   6.550  0.00  0.00    +0.047 A 
ATOM     16  C   UNL     1       7.146  -2.900   6.371  0.00  0.00    +0.139 A 
ATOM     17  O   UNL     1       6.648  -2.679   5.132  0.00  0.00    -0.450 OA
ATOM     18  C   UNL     1       5.335  -2.418   4.979  0.00  0.00    +0.199 A 
ATOM     19  C   UNL     1       4.619  -1.933   3.787  0.00  0.00    +0.289 C 
ATOM     20  O   UNL     1       5.138  -1.681   2.718  0.00  0.00    -0.266 OA
ENDROOT
BRANCH   7  21
ATOM     21  C   UNL     1       2.150  -3.396   5.508  0.00  0.00    -0.004 A 
ATOM     22  C   UNL     1       1.192  -3.489   6.506  0.00  0.00    +0.009 A 
ATOM     23  C   UNL     1       0.356  -4.595   6.518  0.00  0.00    +0.020 A 
ATOM     24  C   UNL     1       0.503  -5.561   5.540  0.00  0.00    +0.111 A 
ATOM     25  N   UNL     1       1.426  -5.439   4.606  0.00  0.00    -0.263 NA
ATOM     26  C   UNL     1       2.235  -4.399   4.561  0.00  0.00    +0.116 A 
ENDBRANCH   7  21
BRANCH   1  28
ATOM     27  C   UNL     1      -0.019   1.526   0.010  0.00  0.00    +0.011 C 
ATOM     28  C   UNL     1       0.002  -0.004   0.002  0.00  0.00    +0.061 C 
ENDBRANCH   1  28
TORSDOF 2
