REMARK  Name = ZINC67255453
REMARK  5 active torsions:
REMARK  status: ('A' for Active; 'I' for Inactive)
REMARK    1  A    between atoms: C_10  and  C_12
REMARK    2  A    between atoms: C_12  and  N_13
REMARK    3  A    between atoms: C_20  and  S_23
REMARK    4  A    between atoms: S_23  and  C_24
REMARK    5  A    between atoms: C_24  and  C_25
REMARK                            x       y       z     vdW  Elec       q    Type
REMARK                         _______ _______ _______ _____ _____    ______ ____
ROOT
ATOM      1  N   UNL     1       6.593   1.166  -0.059  0.00  0.00    -0.203 N 
ATOM      2  C   UNL     1       7.374   1.264  -1.155  0.00  0.00    +0.352 A 
ATOM      3  O   UNL     1       6.993   1.236  -2.313  0.00  0.00    -0.244 OA
ATOM      4  N   UNL     1       8.647   1.400  -0.743  0.00  0.00    -0.247 N 
ATOM      5  C   UNL     1       9.847   1.540  -1.414  0.00  0.00    +0.117 A 
ATOM      6  C   UNL     1      10.996   1.658  -0.735  0.00  0.00    +0.130 A 
ATOM      7  N   UNL     1      11.043   1.648   0.605  0.00  0.00    -0.244 NA
ATOM      8  C   UNL     1       9.949   1.520   1.328  0.00  0.00    +0.142 A 
ATOM      9  C   UNL     1       8.657   1.386   0.642  0.00  0.00    +0.194 A 
ATOM     10  N   UNL     1       7.429   1.251   1.065  0.00  0.00    -0.146 NA
ENDROOT
BRANCH   1  11
ATOM     11  C   UNL     1       5.137   1.006  -0.045  0.00  0.00    +0.245 C 
BRANCH  11  21
ATOM     12  C   UNL     1      -0.017   1.378   0.010  0.00  0.00    +0.000 A 
ATOM     13  C   UNL     1       1.174   2.082   0.002  0.00  0.00    +0.002 A 
ATOM     14  C   UNL     1       2.377   1.410  -0.013  0.00  0.00    +0.024 A 
ATOM     15  C   UNL     1       2.404   0.014  -0.022  0.00  0.00    +0.040 A 
ATOM     16  C   UNL     1       1.206  -0.682  -0.014  0.00  0.00    -0.024 A 
ATOM     17  C   UNL     1       0.002  -0.004   0.002  0.00  0.00    +0.005 A 
ATOM     18  C   UNL     1       1.510  -2.163  -0.025  0.00  0.00    +0.056 C 
ATOM     19  C   UNL     1       3.046  -2.243  -0.040  0.00  0.00    +0.118 C 
ATOM     20  N   UNL     1       3.503  -0.851  -0.037  0.00  0.00    -0.269 N 
ATOM     21  C   UNL     1       4.793  -0.461  -0.049  0.00  0.00    +0.241 C 
ATOM     22  O   UNL     1       5.677  -1.291  -0.062  0.00  0.00    -0.273 OA
ENDBRANCH  11  21
ENDBRANCH   1  11
BRANCH   8  23
ATOM     23  S   UNL     1      10.034   1.508   3.088  0.00  0.00    -0.098 S 
BRANCH  23  24
ATOM     24  C   UNL     1      11.803   1.697   3.443  0.00  0.00    +0.111 C 
BRANCH  24  25
ATOM     25  C   UNL     1      12.019   1.703   4.934  0.00  0.00    -0.037 A 
ATOM     26  C   UNL     1      11.982   2.896   5.633  0.00  0.00    +0.006 A 
ATOM     27  C   UNL     1      12.179   2.902   7.001  0.00  0.00    +0.020 A 
ATOM     28  C   UNL     1      12.414   1.714   7.671  0.00  0.00    +0.041 A 
ATOM     29  C   UNL     1      12.451   0.521   6.971  0.00  0.00    +0.020 A 
ATOM     30  C   UNL     1      12.248   0.516   5.604  0.00  0.00    +0.006 A 
ATOM     31 CL   UNL     1      12.663   1.721   9.389  0.00  0.00    -0.084 Cl
ENDBRANCH  24  25
ENDBRANCH  23  24
ENDBRANCH   8  23
TORSDOF 5
