REMARK  Name = ZINC64392900
REMARK  7 active torsions:
REMARK  status: ('A' for Active; 'I' for Inactive)
REMARK    1  A    between atoms: C_1  and  C_2
REMARK    2  A    between atoms: C_2  and  O_3
REMARK    3  A    between atoms: O_3  and  C_4
REMARK    4  A    between atoms: C_4  and  C_6
REMARK    5  A    between atoms: C_8  and  N_19
REMARK    6  A    between atoms: N_19  and  C_20
REMARK    7  A    between atoms: C_20  and  C_21
REMARK                            x       y       z     vdW  Elec       q    Type
REMARK                         _______ _______ _______ _____ _____    ______ ____
ROOT
ATOM      1  C   UNL     1       1.517  -2.407   2.214  0.00  0.00    +0.228 C 
ATOM      2  C   UNL     1       1.288  -3.882   2.485  0.00  0.00    +0.036 C 
ATOM      3  C   UNL     1       2.427  -4.678   2.677  0.00  0.00    +0.016 A 
ATOM      4  C   UNL     1       2.303  -6.056   2.933  0.00  0.00    +0.011 A 
ATOM      5  C   UNL     1       3.422  -6.812   3.116  0.00  0.00    +0.002 A 
ATOM      6  C   UNL     1       4.691  -6.249   3.055  0.00  0.00    +0.022 A 
ATOM      7  C   UNL     1       4.874  -4.910   2.808  0.00  0.00    +0.063 A 
ATOM      8  C   UNL     1       3.759  -4.077   2.611  0.00  0.00    +0.061 A 
ATOM      9  N   UNL     1       3.937  -2.770   2.369  0.00  0.00    -0.283 N 
ATOM     10  C   UNL     1       2.949  -1.924   2.173  0.00  0.00    +0.237 C 
ATOM     11  O   UNL     1       3.188  -0.750   1.958  0.00  0.00    -0.274 OA
ATOM     12 CL   UNL     1       6.478  -4.248   2.740  0.00  0.00    -0.082 Cl
ATOM     13  H   UNL     1       4.845  -2.429   2.336  0.00  0.00    +0.155 HD
ENDROOT
BRANCH   1  14
ATOM     14  C   UNL     1       0.879  -2.076   0.890  0.00  0.00    +0.325 C 
ATOM     15  O   UNL     1       1.002  -2.830  -0.046  0.00  0.00    -0.250 OA
BRANCH  14  16
ATOM     16  O   UNL     1       0.173  -0.943   0.749  0.00  0.00    -0.464 OA
BRANCH  16  18
ATOM     17  C   UNL     1      -1.164   0.635  -0.501  0.00  0.00    +0.048 C 
ATOM     18  C   UNL     1      -0.404  -0.692  -0.534  0.00  0.00    +0.229 C 
ENDBRANCH  16  18
ENDBRANCH  14  16
ENDBRANCH   1  14
BRANCH   2  19
ATOM     19  N   UNL     1       0.053  -4.400   2.540  0.00  0.00    -0.341 N 
ATOM     20  H   UNL     1      -0.066  -5.359   2.630  0.00  0.00    +0.146 HD
BRANCH  19  21
ATOM     21  C   UNL     1      -1.115  -3.520   2.463  0.00  0.00    +0.136 C 
BRANCH  21  22
ATOM     22  C   UNL     1      -2.370  -4.334   2.646  0.00  0.00    -0.030 A 
ATOM     23  C   UNL     1      -2.999  -4.890   1.547  0.00  0.00    +0.006 A 
ATOM     24  C   UNL     1      -4.150  -5.636   1.714  0.00  0.00    +0.020 A 
ATOM     25  C   UNL     1      -4.673  -5.827   2.981  0.00  0.00    +0.041 A 
ATOM     26  C   UNL     1      -4.043  -5.271   4.080  0.00  0.00    +0.020 A 
ATOM     27  C   UNL     1      -2.889  -4.529   3.912  0.00  0.00    +0.006 A 
ATOM     28 CL   UNL     1      -6.119  -6.764   3.191  0.00  0.00    -0.084 Cl
ENDBRANCH  21  22
ENDBRANCH  19  21
ENDBRANCH   2  19
TORSDOF 6
