REMARK  Name = ZINC59565367
REMARK  5 active torsions:
REMARK  status: ('A' for Active; 'I' for Inactive)
REMARK    1  A    between atoms: C_1  and  C_2
REMARK    2  A    between atoms: C_4  and  C_22
REMARK    3  A    between atoms: N_5  and  N_9
REMARK    4  A    between atoms: C_10  and  C_11
REMARK    5  A    between atoms: C_12  and  C_21
REMARK                            x       y       z     vdW  Elec       q    Type
REMARK                         _______ _______ _______ _____ _____    ______ ____
ROOT
ATOM      1  N   UNL     1       0.019  -4.152  -0.022  0.00  0.00    -0.171 NA
ATOM      2  C   UNL     1       1.143  -4.798  -0.129  0.00  0.00    +0.143 C 
ENDROOT
BRANCH   2   3
ATOM      3  C   UNL     1       1.139  -6.263  -0.248  0.00  0.00    +0.023 A 
ATOM      4  C   UNL     1       0.046  -7.076  -0.266  0.00  0.00    +0.023 A 
ATOM      5  N   UNL     1       0.441  -8.372  -0.389  0.00  0.00    -0.358 N 
ATOM      6  H   UNL     1      -0.159  -9.133  -0.425  0.00  0.00    +0.166 HD
ATOM      7  C   UNL     1       1.817  -8.450  -0.455  0.00  0.00    +0.047 A 
ATOM      8  C   UNL     1       2.317  -7.140  -0.376  0.00  0.00    +0.009 A 
ATOM      9  C   UNL     1       3.690  -6.913  -0.425  0.00  0.00    +0.010 A 
ATOM     10  C   UNL     1       4.554  -7.979  -0.554  0.00  0.00    +0.001 A 
ATOM     11  C   UNL     1       4.061  -9.273  -0.635  0.00  0.00    +0.002 A 
ATOM     12  C   UNL     1       2.705  -9.513  -0.581  0.00  0.00    +0.026 A 
ATOM     13  C   UNL     1      -1.383  -6.611  -0.165  0.00  0.00    +0.064 C 
ENDBRANCH   2   3
BRANCH   1  18
ATOM     14  C   UNL     1      -0.005   1.503   0.012  0.00  0.00    +0.044 C 
ATOM     15  C   UNL     1       0.005  -0.004  -0.007  0.00  0.00    -0.044 A 
ATOM     16  C   UNL     1      -0.371  -0.729   1.131  0.00  0.00    +0.026 A 
ATOM     17  C   UNL     1      -0.359  -2.083   1.104  0.00  0.00    +0.044 A 
ATOM     18  N   UNL     1       0.014  -2.751  -0.018  0.00  0.00    -0.201 N 
ATOM     19  C   UNL     1       0.381  -2.081  -1.127  0.00  0.00    +0.272 A 
ATOM     20  O   UNL     1       0.714  -2.696  -2.129  0.00  0.00    -0.266 OA
ATOM     21  C   UNL     1       0.375  -0.678  -1.136  0.00  0.00    +0.075 A 
ATOM     22  C   UNL     1      -0.765  -2.857   2.332  0.00  0.00    +0.066 C 
ENDBRANCH   1  18
TORSDOF 2
