REMARK  Name = ZINC35378267
REMARK  7 active torsions:
REMARK  status: ('A' for Active; 'I' for Inactive)
REMARK    1  A    between atoms: C_1  and  C_2
REMARK    2  A    between atoms: C_2  and  C_3
REMARK    3  A    between atoms: C_3  and  C_5
REMARK    4  A    between atoms: C_3  and  N_14
REMARK    5  A    between atoms: C_10  and  C_13
REMARK    6  A    between atoms: C_21  and  C_25
REMARK    7  A    between atoms: C_22  and  C_24
REMARK                            x       y       z     vdW  Elec       q    Type
REMARK                         _______ _______ _______ _____ _____    ______ ____
ROOT
ATOM      1  C   UNL     1       0.719  -0.497  -1.258  0.00  0.00    +0.177 C 
ENDROOT
BRANCH   1   2
ATOM      2  N   UNL     1       2.093   0.009  -1.226  0.00  0.00    -0.287 N 
ATOM      3  C   UNL     1       2.911  -0.318  -0.195  0.00  0.00    +0.206 A 
ATOM      4  N   UNL     1       4.142   0.105  -0.117  0.00  0.00    -0.202 NA
ATOM      5  C   UNL     1       4.670   0.895  -1.065  0.00  0.00    +0.234 A 
ATOM      6  C   UNL     1       3.876   1.268  -2.154  0.00  0.00    +0.107 A 
ATOM      7  C   UNL     1       2.545   0.798  -2.228  0.00  0.00    +0.266 A 
ATOM      8  O   UNL     1       1.825   1.098  -3.164  0.00  0.00    -0.267 OA
ATOM      9  C   UNL     1       4.724   2.113  -2.994  0.00  0.00    +0.005 A 
ATOM     10  C   UNL     1       5.912   2.181  -2.371  0.00  0.00    +0.108 A 
ATOM     11  O   UNL     1       5.874   1.462  -1.235  0.00  0.00    -0.442 OA
ATOM     12  C   UNL     1       7.109   2.949  -2.870  0.00  0.00    +0.086 C 
ATOM     13  C   UNL     1       4.343   2.774  -4.293  0.00  0.00    +0.048 C 
ENDBRANCH   1   2
BRANCH   1  14
ATOM     14  C   UNL     1       0.739  -2.004  -1.265  0.00  0.00    +0.239 C 
ATOM     15  O   UNL     1       1.703  -2.600  -0.833  0.00  0.00    -0.273 OA
ATOM     16  N   UNL     1      -0.315  -2.690  -1.752  0.00  0.00    -0.300 N 
ATOM     17  C   UNL     1      -1.439  -1.986  -2.383  0.00  0.00    +0.108 C 
ATOM     18  C   UNL     1      -2.740  -2.422  -1.701  0.00  0.00    +0.022 C 
ATOM     19  C   UNL     1      -2.848  -3.948  -1.748  0.00  0.00    -0.011 C 
ATOM     20  C   UNL     1      -1.672  -4.568  -0.989  0.00  0.00    +0.022 C 
ATOM     21  C   UNL     1      -0.357  -4.156  -1.667  0.00  0.00    +0.108 C 
ATOM     22  C   UNL     1      -4.162  -4.386  -1.098  0.00  0.00    +0.007 C 
ENDBRANCH   1  14
BRANCH   1  24
ATOM     23  C   UNL     1      -0.175   1.519  -0.084  0.00  0.00    +0.006 C 
ATOM     24  C   UNL     1      -0.036  -0.004  -0.021  0.00  0.00    +0.031 C 
ENDBRANCH   1  24
TORSDOF 3
