REMARK  Name = ZINC23391528
REMARK  4 active torsions:
REMARK  status: ('A' for Active; 'I' for Inactive)
REMARK    1  A    between atoms: N_8  and  C_13
REMARK    2  A    between atoms: C_13  and  C_14
REMARK    3  A    between atoms: C_14  and  O_16
REMARK    4  A    between atoms: O_16  and  C_17
REMARK                            x       y       z     vdW  Elec       q    Type
REMARK                         _______ _______ _______ _____ _____    ______ ____
ROOT
ATOM      1  C   UNL     1      -1.219   1.752   0.017  0.00  0.00    +0.024 A 
ATOM      2  C   UNL     1      -0.013   1.076   0.008  0.00  0.00    +0.049 A 
ATOM      3  C   UNL     1       1.175   1.785   0.000  0.00  0.00    +0.143 A 
ATOM      4  C   UNL     1       1.152   3.179   0.009  0.00  0.00    +0.080 A 
ATOM      5  C   UNL     1      -0.058   3.851   0.023  0.00  0.00    +0.047 A 
ATOM      6  C   UNL     1      -1.243   3.135   0.029  0.00  0.00    +0.043 A 
ATOM      7 CL   UNL     1      -2.762   3.976   0.047  0.00  0.00    -0.083 Cl
ATOM      8  N   UNL     1       2.364   3.885   0.003  0.00  0.00    -0.255 N 
ATOM      9  C   UNL     1       3.500   3.232  -0.327  0.00  0.00    +0.258 C 
ATOM     10  O   UNL     1       4.564   3.815  -0.310  0.00  0.00    -0.271 OA
ATOM     11  C   UNL     1       3.440   1.777  -0.716  0.00  0.00    +0.325 C 
ATOM     12  O   UNL     1       2.370   1.136  -0.017  0.00  0.00    -0.481 OA
ENDROOT
BRANCH   8  13
ATOM     13  C   UNL     1       2.397   5.308   0.348  0.00  0.00    +0.234 C 
BRANCH  13  14
ATOM     14  C   UNL     1       2.611   5.460   1.832  0.00  0.00    +0.325 C 
ATOM     15  O   UNL     1       2.724   4.480   2.530  0.00  0.00    -0.249 OA
BRANCH  14  16
ATOM     16  O   UNL     1       2.676   6.684   2.379  0.00  0.00    -0.460 OA
BRANCH  16  17
ATOM     17  C   UNL     1       2.884   6.755   3.814  0.00  0.00    +0.176 C 
ATOM     18  C   UNL     1       1.529   6.763   4.526  0.00  0.00    +0.044 C 
ATOM     19  C   UNL     1       1.748   6.837   6.038  0.00  0.00    +0.004 C 
ATOM     20  C   UNL     1       2.512   8.118   6.380  0.00  0.00    +0.000 C 
ATOM     21  C   UNL     1       3.866   8.110   5.669  0.00  0.00    +0.004 C 
ATOM     22  C   UNL     1       3.647   8.036   4.157  0.00  0.00    +0.044 C 
ENDBRANCH  16  17
ENDBRANCH  14  16
ENDBRANCH  13  14
ENDBRANCH   8  13
TORSDOF 4
