REMARK  Name = ZINC39275512
REMARK  3 active torsions:
REMARK  status: ('A' for Active; 'I' for Inactive)
REMARK    1  A    between atoms: N_9  and  C_12
REMARK    2  A    between atoms: C_12  and  C_13
REMARK    3  A    between atoms: N_15  and  C_16
REMARK                            x       y       z     vdW  Elec       q    Type
REMARK                         _______ _______ _______ _____ _____    ______ ____
ROOT
ATOM      1  C   UNL     1       2.864  -4.100  -0.224  0.00  0.00    +0.224 C 
ENDROOT
BRANCH   1  10
ATOM      2  C   UNL     1       0.691   1.652  -0.350  0.00  0.00    +0.001 A 
ATOM      3  C   UNL     1       1.942   2.247  -0.314  0.00  0.00    +0.002 A 
ATOM      4  C   UNL     1       3.088   1.477  -0.246  0.00  0.00    +0.025 A 
ATOM      5  C   UNL     1       2.982   0.100  -0.212  0.00  0.00    +0.055 A 
ATOM      6  C   UNL     1       1.710  -0.507  -0.246  0.00  0.00    +0.060 A 
ATOM      7  C   UNL     1       0.566   0.277  -0.316  0.00  0.00    +0.015 A 
ATOM      8  C   UNL     1       1.673  -1.982  -0.198  0.00  0.00    +0.264 C 
ATOM      9  O   UNL     1       0.632  -2.580  -0.003  0.00  0.00    -0.269 OA
ATOM     10  N   UNL     1       2.839  -2.644  -0.379  0.00  0.00    -0.208 N 
ATOM     11  N   UNL     1       3.989  -1.992  -0.702  0.00  0.00    -0.158 NA
ATOM     12  N   UNL     1       4.084  -0.744  -0.149  0.00  0.00    -0.264 N 
ATOM     13  H   UNL     1       4.115  -1.955  -1.702  0.00  0.00    +0.168 HD
ATOM     14  H   UNL     1       4.904  -0.454   0.279  0.00  0.00    +0.168 HD
ENDBRANCH   1  10
BRANCH   1  15
ATOM     15  C   UNL     1       2.572  -4.752  -1.551  0.00  0.00    +0.236 C 
ATOM     16  O   UNL     1       2.363  -4.067  -2.530  0.00  0.00    -0.274 OA
ATOM     17  N   UNL     1       2.542  -6.096  -1.650  0.00  0.00    -0.284 N 
ATOM     18  H   UNL     1       2.781  -6.643  -0.885  0.00  0.00    +0.155 HD
BRANCH  17  19
ATOM     19  C   UNL     1       2.171  -6.695  -2.844  0.00  0.00    +0.034 C 
ATOM     20  C   UNL     1       3.024  -7.581  -3.467  0.00  0.00    +0.029 C 
ATOM     21  C   UNL     1       2.570  -8.080  -4.693  0.00  0.00    -0.016 C 
ATOM     22  C   UNL     1       2.762  -9.251  -5.332  0.00  0.00    +0.025 C 
ATOM     23  C   UNL     1       1.852  -9.354  -6.402  0.00  0.00    +0.106 C 
ATOM     24  N   UNL     1       1.143  -8.268  -6.551  0.00  0.00    -0.279 NA
ATOM     25  C   UNL     1       1.631  -7.290  -5.590  0.00  0.00    +0.158 C 
ATOM     26  C   UNL     1       0.577  -6.676  -4.718  0.00  0.00    +0.006 C 
ATOM     27  C   UNL     1       0.868  -6.393  -3.444  0.00  0.00    +0.021 C 
ENDBRANCH  17  19
ENDBRANCH   1  15
TORSDOF 3
