REMARK  Name = ZINC08662103
REMARK  6 active torsions:
REMARK  status: ('A' for Active; 'I' for Inactive)
REMARK    1  A    between atoms: C_1  and  C_2
REMARK    2  A    between atoms: C_8  and  N_10
REMARK    3  A    between atoms: C_11  and  C_13
REMARK    4  A    between atoms: N_18  and  S_20
REMARK    5  A    between atoms: S_20  and  N_23
REMARK    6  A    between atoms: C_26  and  C_29
REMARK                            x       y       z     vdW  Elec       q    Type
REMARK                         _______ _______ _______ _____ _____    ______ ____
ROOT
ATOM      1  C   UNL     1       4.209   0.649   2.377  0.00  0.00    +0.091 C 
ATOM      2  C   UNL     1       4.229   2.057   1.777  0.00  0.00    +0.015 C 
ATOM      3  C   UNL     1       5.669   2.574   1.735  0.00  0.00    +0.018 C 
ATOM      4  C   UNL     1       6.222   2.650   3.162  0.00  0.00    +0.110 C 
ATOM      5  N   UNL     1       6.072   1.333   3.797  0.00  0.00    -0.166 NA
ATOM      6  C   UNL     1       4.745   0.702   3.812  0.00  0.00    +0.123 C 
ENDROOT
BRANCH   1   8
ATOM      7  N   UNL     1       2.116  -0.004   1.231  0.00  0.00    -0.312 N 
ATOM      8  C   UNL     1       2.795   0.128   2.388  0.00  0.00    +0.218 C 
ATOM      9  O   UNL     1       2.268  -0.174   3.438  0.00  0.00    -0.275 OA
ATOM     10  H   UNL     1       2.538   0.237   0.392  0.00  0.00    +0.149 HD
BRANCH   7  17
ATOM     11  C   UNL     1      -0.019   1.526   0.010  0.00  0.00    +0.009 C 
ATOM     12  C   UNL     1       0.002  -0.004   0.002  0.00  0.00    +0.006 C 
ATOM     13  C   UNL     1       0.718  -0.497  -1.257  0.00  0.00    +0.005 C 
ATOM     14  C   UNL     1       0.739  -2.027  -1.265  0.00  0.00    +0.000 C 
ATOM     15  C   UNL     1       1.479  -2.534  -0.026  0.00  0.00    +0.002 C 
ATOM     16  C   UNL     1       0.763  -2.041   1.233  0.00  0.00    +0.022 C 
ATOM     17  C   UNL     1       0.742  -0.511   1.242  0.00  0.00    +0.076 C 
ENDBRANCH   7  17
ENDBRANCH   1   8
BRANCH   5  18
ATOM     18  S   UNL     1       7.374   0.575   4.484  0.00  0.00    +0.100 S 
ATOM     19  O   UNL     1       7.077  -0.815   4.491  0.00  0.00    -0.141 OA
ATOM     20  O   UNL     1       8.532   1.103   3.851  0.00  0.00    -0.141 OA
BRANCH  18  21
ATOM     21  N   UNL     1       7.440   1.053   6.068  0.00  0.00    -0.166 NA
ATOM     22  C   UNL     1       8.204   2.246   6.458  0.00  0.00    +0.111 C 
ATOM     23  C   UNL     1       9.184   1.862   7.570  0.00  0.00    +0.020 C 
ATOM     24  C   UNL     1       8.415   1.205   8.718  0.00  0.00    -0.012 C 
ATOM     25  C   UNL     1       7.734  -0.070   8.214  0.00  0.00    +0.020 C 
ATOM     26  C   UNL     1       6.732   0.296   7.109  0.00  0.00    +0.111 C 
ATOM     27  C   UNL     1       9.387   0.851   9.846  0.00  0.00    +0.007 C 
ENDBRANCH  18  21
ENDBRANCH   5  18
TORSDOF 4
