REMARK  Name = ZINC09292314
REMARK  6 active torsions:
REMARK  status: ('A' for Active; 'I' for Inactive)
REMARK    1  A    between atoms: C_1  and  O_2
REMARK    2  A    between atoms: O_2  and  C_3
REMARK    3  A    between atoms: C_6  and  C_11
REMARK    4  A    between atoms: C_8  and  O_9
REMARK    5  A    between atoms: O_9  and  C_10
REMARK    6  A    between atoms: C_22  and  C_24
REMARK                            x       y       z     vdW  Elec       q    Type
REMARK                         _______ _______ _______ _____ _____    ______ ____
ROOT
ATOM      1  C   UNL     1       2.424  -2.879   3.930  0.00  0.00    +0.159 C 
ATOM      2  C   UNL     1       1.684  -2.623   5.225  0.00  0.00    +0.027 C 
ATOM      3  C   UNL     1       2.312  -1.915   6.185  0.00  0.00    +0.083 C 
ATOM      4  C   UNL     1       1.577  -1.681   7.454  0.00  0.00    +0.042 A 
ATOM      5  C   UNL     1       1.990  -0.716   8.363  0.00  0.00    +0.013 A 
ATOM      6  C   UNL     1       1.275  -0.529   9.531  0.00  0.00    +0.001 A 
ATOM      7  C   UNL     1       0.155  -1.299   9.793  0.00  0.00    +0.004 A 
ATOM      8  C   UNL     1      -0.261  -2.263   8.894  0.00  0.00    +0.046 A 
ATOM      9  C   UNL     1       0.446  -2.462   7.720  0.00  0.00    +0.131 A 
ATOM     10  O   UNL     1       0.063  -3.405   6.823  0.00  0.00    -0.479 OA
ATOM     11  C   UNL     1       0.288  -3.131   5.439  0.00  0.00    +0.237 C 
ATOM     12  N   UNL     1       3.567  -1.434   6.005  0.00  0.00    -0.213 NA
ATOM     13  C   UNL     1       4.278  -1.609   4.916  0.00  0.00    +0.237 C 
ATOM     14  N   UNL     1       3.776  -2.314   3.845  0.00  0.00    -0.208 N 
ATOM     15  N   UNL     1       4.772  -2.312   2.866  0.00  0.00    -0.251 N 
ATOM     16  C   UNL     1       5.818  -1.609   3.381  0.00  0.00    +0.203 C 
ATOM     17  N   UNL     1       5.522  -1.206   4.577  0.00  0.00    -0.205 NA
ATOM     18  H   UNL     1       4.728  -2.729   1.991  0.00  0.00    +0.171 HD
ENDROOT
BRANCH  11  19
ATOM     19  C   UNL     1      -0.698  -2.093   4.969  0.00  0.00    +0.032 A 
ATOM     20  C   UNL     1      -0.389  -0.749   5.074  0.00  0.00    +0.010 A 
ATOM     21  C   UNL     1      -1.292   0.204   4.643  0.00  0.00    +0.001 A 
ATOM     22  C   UNL     1      -2.507  -0.185   4.108  0.00  0.00    +0.003 A 
ATOM     23  C   UNL     1      -2.818  -1.527   4.003  0.00  0.00    +0.039 A 
ATOM     24  C   UNL     1      -1.911  -2.483   4.428  0.00  0.00    +0.130 A 
ATOM     25  F   UNL     1      -2.212  -3.796   4.321  0.00  0.00    -0.205 F 
ENDBRANCH  11  19
BRANCH   1  29
ATOM     26  C   UNL     1       0.102  -1.260   0.724  0.00  0.00    +0.162 A 
ATOM     27  C   UNL     1       0.942  -0.439   1.459  0.00  0.00    +0.050 A 
ATOM     28  C   UNL     1       1.691  -0.965   2.494  0.00  0.00    +0.009 A 
ATOM     29  C   UNL     1       1.604  -2.311   2.800  0.00  0.00    -0.017 A 
ATOM     30  C   UNL     1       0.768  -3.136   2.071  0.00  0.00    +0.055 A 
ATOM     31  C   UNL     1       0.010  -2.614   1.036  0.00  0.00    +0.162 A 
BRANCH  26  33
ATOM     32  C   UNL     1      -0.492   0.653  -0.558  0.00  0.00    +0.277 C 
ATOM     33  O   UNL     1      -0.636  -0.744  -0.295  0.00  0.00    -0.491 OA
ENDBRANCH  26  33
BRANCH  31  34
ATOM     34  O   UNL     1      -0.817  -3.423   0.322  0.00  0.00    -0.491 OA
ATOM     35  C   UNL     1      -0.860  -4.801   0.697  0.00  0.00    +0.277 C 
ENDBRANCH  31  34
ENDBRANCH   1  29
TORSDOF 4
