REMARK  Name = ZINC02835334
REMARK  7 active torsions:
REMARK  status: ('A' for Active; 'I' for Inactive)
REMARK    1  A    between atoms: C_1  and  C_2
REMARK    2  A    between atoms: C_2  and  N_23
REMARK    3  A    between atoms: C_3  and  C_4
REMARK    4  A    between atoms: C_3  and  C_10
REMARK    5  A    between atoms: C_4  and  C_6
REMARK    6  A    between atoms: N_12  and  N_22
REMARK    7  A    between atoms: C_26  and  C_29
REMARK                            x       y       z     vdW  Elec       q    Type
REMARK                         _______ _______ _______ _____ _____    ______ ____
ROOT
ATOM      1  C   UNL     1      -0.500   1.408   0.207  0.00  0.00    +0.061 C 
ATOM      2  C   UNL     1      -0.056  -0.032   0.235  0.00  0.00    +0.019 C 
ATOM      3  C   UNL     1       0.112  -0.682   1.446  0.00  0.00    +0.106 C 
ENDROOT
BRANCH   3   4
ATOM      4  C   UNL     1       0.403  -2.122   1.473  0.00  0.00    +0.271 C 
ATOM      5  O   UNL     1      -0.490  -2.919   1.691  0.00  0.00    -0.268 OA
ATOM      6  N   UNL     1       1.659  -2.559   1.257  0.00  0.00    -0.180 N 
ATOM      7  C   UNL     1       1.915  -3.917   1.180  0.00  0.00    +0.182 A 
ATOM      8  N   UNL     1       1.076  -4.921   1.286  0.00  0.00    -0.223 NA
ATOM      9  C   UNL     1       1.469  -6.210   1.190  0.00  0.00    +0.080 A 
ATOM     10  C   UNL     1       0.673  -7.375   1.285  0.00  0.00    +0.029 A 
ATOM     11  C   UNL     1       1.235  -8.618   1.164  0.00  0.00    +0.002 A 
ATOM     12  C   UNL     1       2.595  -8.781   0.945  0.00  0.00    +0.001 A 
ATOM     13  C   UNL     1       3.404  -7.664   0.847  0.00  0.00    +0.017 A 
ATOM     14  C   UNL     1       2.849  -6.414   0.967  0.00  0.00    +0.041 A 
ATOM     15  S   UNL     1       3.472  -4.751   0.904  0.00  0.00    -0.051 S 
BRANCH   6  16
ATOM     16  N   UNL     1       2.680  -1.663   1.113  0.00  0.00    -0.245 NA
ATOM     17  H   UNL     1       3.549  -2.133   0.909  0.00  0.00    +0.141 HD
ATOM     18  H   UNL     1       2.463  -0.980   0.402  0.00  0.00    +0.141 HD
ENDBRANCH   6  16
ENDBRANCH   3   4
BRANCH   2  19
ATOM     19  N   UNL     1       0.178  -0.687  -0.919  0.00  0.00    -0.333 N 
ATOM     20  C   UNL     1       1.269  -0.267  -1.810  0.00  0.00    +0.105 C 
ATOM     21  C   UNL     1       0.698  -0.039  -3.213  0.00  0.00    +0.031 C 
ATOM     22  C   UNL     1      -0.038  -1.300  -3.672  0.00  0.00    +0.078 C 
ATOM     23  C   UNL     1      -1.200  -1.589  -2.719  0.00  0.00    +0.031 C 
ATOM     24  C   UNL     1      -0.648  -1.838  -1.307  0.00  0.00    +0.105 C 
BRANCH  22  25
ATOM     25  C   UNL     1      -0.571  -1.092  -5.066  0.00  0.00    +0.214 C 
ATOM     26  O   UNL     1      -0.381  -0.039  -5.636  0.00  0.00    -0.276 OA
ATOM     27  N   UNL     1      -1.259  -2.076  -5.678  0.00  0.00    -0.329 N 
ATOM     28  H   UNL     1      -1.411  -2.919  -5.221  0.00  0.00    +0.145 HD
ATOM     29  H   UNL     1      -1.602  -1.942  -6.575  0.00  0.00    +0.145 HD
ENDBRANCH  22  25
ENDBRANCH   2  19
BRANCH   3  30
ATOM     30  C   UNL     1       0.003   0.042   2.659  0.00  0.00    +0.272 C 
ATOM     31  O   UNL     1      -0.109   1.250   2.636  0.00  0.00    -0.282 OA
BRANCH  30  32
ATOM     32  C   UNL     1       0.026  -0.689   3.976  0.00  0.00    +0.456 C 
ATOM     33  F   UNL     1      -0.121   0.230   5.021  0.00  0.00    -0.163 F 
ATOM     34  F   UNL     1      -1.024  -1.612   4.016  0.00  0.00    -0.163 F 
ATOM     35  F   UNL     1       1.245  -1.362   4.115  0.00  0.00    -0.163 F 
ENDBRANCH  30  32
ENDBRANCH   3  30
TORSDOF 6
