REMARK  Name = ZINC36354037
REMARK  9 active torsions:
REMARK  status: ('A' for Active; 'I' for Inactive)
REMARK    1  A    between atoms: C_1  and  C_2
REMARK    2  A    between atoms: C_3  and  N_11
REMARK    3  A    between atoms: C_4  and  C_10
REMARK    4  A    between atoms: N_5  and  C_7
REMARK    5  A    between atoms: C_7  and  C_8
REMARK    6  A    between atoms: C_7  and  C_9
REMARK    7  A    between atoms: C_12  and  C_14
REMARK    8  A    between atoms: C_14  and  C_25
REMARK    9  A    between atoms: C_15  and  O_24
REMARK                            x       y       z     vdW  Elec       q    Type
REMARK                         _______ _______ _______ _____ _____    ______ ____
ROOT
ATOM      1  N   UNL     1      -0.220  -0.378  -2.465  0.00  0.00    -0.279 N 
ATOM      2  C   UNL     1       0.133   0.881  -2.793  0.00  0.00    +0.270 C 
ATOM      3  O   UNL     1       0.646   1.603  -1.964  0.00  0.00    -0.271 OA
ATOM      4  H   UNL     1      -0.571  -0.976  -3.143  0.00  0.00    +0.155 HD
ENDROOT
BRANCH   2   5
ATOM      5  C   UNL     1      -0.110   1.391  -4.190  0.00  0.00    +0.257 C 
ATOM      6  C   UNL     1      -0.221   2.893  -4.163  0.00  0.00    +0.242 C 
ATOM      7  N   UNL     1      -0.958   3.518  -5.032  0.00  0.00    -0.210 NA
ATOM      8  C   UNL     1      -1.653   2.808  -5.978  0.00  0.00    +0.109 A 
ATOM      9  C   UNL     1      -2.170   3.438  -7.106  0.00  0.00    +0.031 A 
ATOM     10  C   UNL     1      -2.868   2.701  -8.043  0.00  0.00    +0.002 A 
ATOM     11  C   UNL     1      -3.056   1.342  -7.864  0.00  0.00    +0.004 A 
ATOM     12  C   UNL     1      -2.545   0.706  -6.746  0.00  0.00    +0.048 A 
ATOM     13  C   UNL     1      -1.843   1.432  -5.802  0.00  0.00    +0.148 A 
ATOM     14  O   UNL     1      -1.324   0.829  -4.699  0.00  0.00    -0.465 OA
ATOM     15  C   UNL     1       1.057   0.983  -5.092  0.00  0.00    +0.076 C 
BRANCH   6  16
ATOM     16  O   UNL     1       0.453   3.597  -3.229  0.00  0.00    -0.492 OA
ATOM     17  H   UNL     1       0.323   4.553  -3.288  0.00  0.00    +0.294 HD
ENDBRANCH   6  16
ENDBRANCH   2   5
BRANCH   1  20
ATOM     18  C   UNL     1      -2.007   0.552  -0.089  0.00  0.00    +0.069 C 
ATOM     19  C   UNL     1      -0.864  -0.428  -0.045  0.00  0.00    +0.081 A 
ATOM     20  C   UNL     1      -0.079  -0.824  -1.137  0.00  0.00    +0.077 A 
ATOM     21  C   UNL     1       0.841  -1.715  -0.687  0.00  0.00    +0.058 A 
ATOM     22  N   UNL     1       0.640  -1.873   0.647  0.00  0.00    -0.264 N 
ATOM     23  N   UNL     1      -0.431  -1.051   1.021  0.00  0.00    -0.174 NA
ATOM     24  C   UNL     1       1.894  -2.404  -1.517  0.00  0.00    +0.067 C 
BRANCH  22  25
ATOM     25  C   UNL     1       1.409  -2.746   1.537  0.00  0.00    +0.101 C 
ATOM     26  C   UNL     1       2.064  -1.905   2.635  0.00  0.00    +0.032 C 
ATOM     27  C   UNL     1       0.475  -3.777   2.173  0.00  0.00    +0.032 C 
ENDBRANCH  22  25
ENDBRANCH   1  20
TORSDOF 4
