REMARK  Name = ZINC00211886
REMARK  3 active torsions:
REMARK  status: ('A' for Active; 'I' for Inactive)
REMARK    1  A    between atoms: C_1  and  O_2
REMARK    2  A    between atoms: O_2  and  C_3
REMARK    3  A    between atoms: C_16  and  C_19
REMARK                            x       y       z     vdW  Elec       q    Type
REMARK                         _______ _______ _______ _____ _____    ______ ____
ROOT
ATOM      1  C   UNL     1       1.149   3.168   0.008  0.00  0.00    +0.121 A 
ATOM      2  C   UNL     1       1.174   1.781   0.000  0.00  0.00    +0.047 A 
ATOM      3  C   UNL     1      -0.013   1.076   0.008  0.00  0.00    +0.027 A 
ATOM      4  C   UNL     1      -1.226   1.753   0.017  0.00  0.00    +0.034 A 
ATOM      5  C   UNL     1      -1.258   3.138   0.030  0.00  0.00    +0.006 A 
ATOM      6  C   UNL     1      -0.061   3.841   0.022  0.00  0.00    +0.053 A 
ATOM      7  C   UNL     1      -2.542   3.907   0.044  0.00  0.00    +0.155 C 
ATOM      8  C   UNL     1      -3.763   3.029  -0.283  0.00  0.00    +0.052 C 
ATOM      9  C   UNL     1      -4.921   3.831   0.367  0.00  0.00    +0.036 C 
ATOM     10  C   UNL     1      -4.220   4.734   1.401  0.00  0.00    +0.161 C 
ATOM     11  O   UNL     1      -2.816   4.424   1.359  0.00  0.00    -0.372 OA
ATOM     12  C   UNL     1      -3.651   1.692   0.457  0.00  0.00    +0.142 C 
ATOM     13  N   UNL     1      -2.420   1.019   0.031  0.00  0.00    -0.334 N 
ATOM     14  H   UNL     1      -2.431   0.087  -0.239  0.00  0.00    +0.147 HD
ENDROOT
BRANCH  12  15
ATOM     15  C   UNL     1      -3.604   1.939   1.943  0.00  0.00    +0.125 A 
ATOM     16  C   UNL     1      -4.639   1.822   2.794  0.00  0.00    +0.046 A 
ATOM     17  C   UNL     1      -4.150   2.143   4.081  0.00  0.00    +0.041 A 
ATOM     18  C   UNL     1      -2.847   2.444   3.939  0.00  0.00    +0.195 A 
ATOM     19  O   UNL     1      -2.521   2.319   2.642  0.00  0.00    -0.466 OA
ENDBRANCH  12  15
BRANCH   1  21
ATOM     20  C   UNL     1       3.526   3.110  -0.015  0.00  0.00    +0.277 C 
ATOM     21  O   UNL     1       2.315   3.868   0.000  0.00  0.00    -0.495 OA
ENDBRANCH   1  21
TORSDOF 2
