REMARK  Name = ZINC13942709
REMARK  6 active torsions:
REMARK  status: ('A' for Active; 'I' for Inactive)
REMARK    1  A    between atoms: C_4  and  C_7
REMARK    2  A    between atoms: C_7  and  C_8
REMARK    3  A    between atoms: C_14  and  C_16
REMARK    4  A    between atoms: C_16  and  C_18
REMARK    5  A    between atoms: C_16  and  N_27
REMARK    6  A    between atoms: C_18  and  C_20
REMARK                            x       y       z     vdW  Elec       q    Type
REMARK                         _______ _______ _______ _____ _____    ______ ____
ROOT
ATOM      1  C   UNL     1       3.623  -0.702  -0.086  0.00  0.00    +0.247 C 
ENDROOT
BRANCH   1   8
ATOM      2  C   UNL     1       7.856  -2.338  -2.281  0.00  0.00    -0.004 C 
ATOM      3  C   UNL     1       7.516  -0.965  -2.865  0.00  0.00    +0.023 C 
ATOM      4  C   UNL     1       6.003  -0.870  -3.089  0.00  0.00    +0.108 C 
ATOM      5  N   UNL     1       5.318  -1.174  -1.825  0.00  0.00    -0.299 N 
ATOM      6  C   UNL     1       5.644  -2.427  -1.129  0.00  0.00    +0.108 C 
ATOM      7  C   UNL     1       7.156  -2.507  -0.931  0.00  0.00    +0.023 C 
ATOM      8  C   UNL     1       4.413  -0.318  -1.311  0.00  0.00    +0.246 C 
ATOM      9  O   UNL     1       4.234   0.761  -1.834  0.00  0.00    -0.273 OA
BRANCH   2  10
ATOM     10  C   UNL     1       9.369  -2.450  -2.089  0.00  0.00    +0.038 C 
BRANCH  10  14
ATOM     11  C   UNL     1      10.353  -6.398  -0.789  0.00  0.00    +0.000 A 
ATOM     12  C   UNL     1      10.312  -6.105  -2.139  0.00  0.00    +0.000 A 
ATOM     13  C   UNL     1       9.995  -4.827  -2.560  0.00  0.00    +0.003 A 
ATOM     14  C   UNL     1       9.716  -3.843  -1.630  0.00  0.00    -0.047 A 
ATOM     15  C   UNL     1       9.761  -4.135  -0.280  0.00  0.00    +0.003 A 
ATOM     16  C   UNL     1      10.075  -5.414   0.141  0.00  0.00    +0.000 A 
ENDBRANCH  10  14
ENDBRANCH   2  10
ENDBRANCH   1   8
BRANCH   1  17
ATOM     17  N   UNL     1       2.941  -1.976  -0.325  0.00  0.00    -0.295 N 
ATOM     18  C   UNL     1       3.209  -3.042   0.473  0.00  0.00    +0.110 A 
ATOM     19  C   UNL     1       2.590  -4.229   0.273  0.00  0.00    +0.057 A 
ATOM     20  C   UNL     1       1.662  -4.367  -0.770  0.00  0.00    +0.027 A 
ATOM     21  C   UNL     1       1.395  -3.296  -1.571  0.00  0.00    +0.072 A 
ATOM     22  C   UNL     1       2.055  -2.078  -1.334  0.00  0.00    +0.252 A 
ATOM     23  O   UNL     1       1.825  -1.111  -2.043  0.00  0.00    -0.268 OA
ATOM     24 CL   UNL     1       2.945  -5.580   1.304  0.00  0.00    -0.082 Cl
ENDBRANCH   1  17
BRANCH   1  25
ATOM     25  C   UNL     1       2.603   0.366   0.209  0.00  0.00    +0.195 C 
ATOM     26  O   UNL     1       1.447   0.209  -0.122  0.00  0.00    -0.289 OA
BRANCH  25  27
ATOM     27  C   UNL     1       3.009   1.600   0.898  0.00  0.00    +0.020 A 
ATOM     28  C   UNL     1       4.358   1.829   1.193  0.00  0.00    +0.014 A 
ATOM     29  C   UNL     1       4.732   2.989   1.834  0.00  0.00    +0.039 A 
ATOM     30  C   UNL     1       3.774   3.925   2.197  0.00  0.00    +0.123 A 
ATOM     31  C   UNL     1       2.435   3.701   1.913  0.00  0.00    +0.039 A 
ATOM     32  C   UNL     1       2.048   2.548   1.267  0.00  0.00    +0.014 A 
ATOM     33  F   UNL     1       4.147   5.059   2.830  0.00  0.00    -0.205 F 
ENDBRANCH  25  27
ENDBRANCH   1  25
TORSDOF 6
