REMARK  Name = ZINC63479023
REMARK  4 active torsions:
REMARK  status: ('A' for Active; 'I' for Inactive)
REMARK    1  A    between atoms: C_4  and  O_7
REMARK    2  A    between atoms: O_7  and  C_8
REMARK    3  A    between atoms: C_11  and  N_14
REMARK    4  A    between atoms: C_15  and  C_17
REMARK                            x       y       z     vdW  Elec       q    Type
REMARK                         _______ _______ _______ _____ _____    ______ ____
ROOT
ATOM      1  N   UNL     1       3.057  -6.135   0.022  0.00  0.00    -0.284 N 
ATOM      2  C   UNL     1       4.145  -6.915   0.178  0.00  0.00    +0.234 C 
ATOM      3  O   UNL     1       5.250  -6.415   0.214  0.00  0.00    -0.274 OA
ATOM      4  H   UNL     1       2.180  -6.539  -0.071  0.00  0.00    +0.155 HD
ENDROOT
BRANCH   2   5
ATOM      5  C   UNL     1       3.990  -8.408   0.307  0.00  0.00    +0.161 C 
ATOM      6  C   UNL     1       5.231  -9.126  -0.172  0.00  0.00    +0.011 C 
ATOM      7  C   UNL     1       5.869  -9.860   0.761  0.00  0.00    +0.049 C 
ATOM      8  C   UNL     1       5.294  -9.878   2.114  0.00  0.00    +0.030 C 
ATOM      9  C   UNL     1       5.918 -10.627   3.126  0.00  0.00    +0.010 A 
ATOM     10  C   UNL     1       5.392 -10.663   4.427  0.00  0.00    +0.011 A 
ATOM     11  C   UNL     1       6.016 -11.397   5.391  0.00  0.00    +0.001 A 
ATOM     12  C   UNL     1       7.173 -12.114   5.101  0.00  0.00    +0.002 A 
ATOM     13  C   UNL     1       7.710 -12.101   3.848  0.00  0.00    +0.024 A 
ATOM     14  C   UNL     1       7.097 -11.357   2.828  0.00  0.00    +0.042 A 
ATOM     15  N   UNL     1       7.624 -11.344   1.597  0.00  0.00    -0.281 N 
ATOM     16  C   UNL     1       7.113 -10.673   0.584  0.00  0.00    +0.249 C 
ATOM     17  O   UNL     1       7.659 -10.717  -0.508  0.00  0.00    -0.270 OA
ATOM     18  S   UNL     1       3.929  -8.913   2.071  0.00  0.00    -0.107 S 
ATOM     19  H   UNL     1       8.431 -11.859   1.441  0.00  0.00    +0.155 HD
ENDBRANCH   2   5
BRANCH   1  23
ATOM     20  C   UNL     1       3.460  -1.986  -0.064  0.00  0.00    +0.129 A 
ATOM     21  C   UNL     1       4.447  -2.790  -0.616  0.00  0.00    +0.048 A 
ATOM     22  C   UNL     1       4.314  -4.164  -0.588  0.00  0.00    +0.027 A 
ATOM     23  C   UNL     1       3.192  -4.741  -0.007  0.00  0.00    +0.034 A 
ATOM     24  C   UNL     1       2.205  -3.936   0.546  0.00  0.00    +0.027 A 
ATOM     25  C   UNL     1       2.341  -2.562   0.522  0.00  0.00    +0.048 A 
BRANCH  20  26
ATOM     26  O   UNL     1       3.591  -0.633  -0.092  0.00  0.00    -0.456 OA
BRANCH  26  30
ATOM     27  C   UNL     1       2.902   1.306  -3.667  0.00  0.00    +0.000 A 
ATOM     28  C   UNL     1       3.156   2.039  -2.522  0.00  0.00    +0.004 A 
ATOM     29  C   UNL     1       3.387   1.392  -1.324  0.00  0.00    +0.046 A 
ATOM     30  C   UNL     1       3.364   0.006  -1.269  0.00  0.00    +0.128 A 
ATOM     31  C   UNL     1       3.107  -0.727  -2.420  0.00  0.00    +0.046 A 
ATOM     32  C   UNL     1       2.878  -0.075  -3.615  0.00  0.00    +0.004 A 
ENDBRANCH  26  30
ENDBRANCH  20  26
ENDBRANCH   1  23
TORSDOF 4
