REMARK  Name = ZINC23614843
REMARK  2 active torsions:
REMARK  status: ('A' for Active; 'I' for Inactive)
REMARK    1  A    between atoms: C_8  and  N_13
REMARK    2  A    between atoms: C_17  and  N_20
REMARK                            x       y       z     vdW  Elec       q    Type
REMARK                         _______ _______ _______ _____ _____    ______ ____
ROOT
ATOM      1  C   UNL     1      -1.235  -2.052   0.277  0.00  0.00    +0.039 A 
ATOM      2  C   UNL     1      -1.189  -0.674   0.280  0.00  0.00    +0.018 A 
ATOM      3  C   UNL     1       0.002  -0.004   0.002  0.00  0.00    +0.013 A 
ATOM      4  C   UNL     1       1.153  -0.719  -0.271  0.00  0.00    -0.011 A 
ATOM      5  C   UNL     1       1.093  -2.111  -0.281  0.00  0.00    +0.045 A 
ATOM      6  C   UNL     1      -0.088  -2.772  -0.009  0.00  0.00    +0.124 A 
ATOM      7  F   UNL     1      -0.123  -4.123  -0.023  0.00  0.00    -0.205 F 
ATOM      8  C   UNL     1       2.495  -0.104  -0.542  0.00  0.00    +0.104 C 
ATOM      9  C   UNL     1       2.421   1.321  -1.059  0.00  0.00    +0.038 C 
ATOM     10  C   UNL     1       1.740   2.204  -0.003  0.00  0.00    +0.076 C 
ATOM     11  S   UNL     1      -0.022   1.761   0.012  0.00  0.00    -0.125 S 
ENDROOT
BRANCH   8  12
ATOM     12  N   UNL     1       3.194  -0.924  -1.534  0.00  0.00    -0.322 N 
ATOM     13  C   UNL     1       3.922  -2.037  -1.129  0.00  0.00    +0.119 A 
ATOM     14  C   UNL     1       3.983  -2.365   0.222  0.00  0.00    +0.046 A 
ATOM     15  C   UNL     1       4.711  -3.475   0.612  0.00  0.00    +0.037 A 
ATOM     16  C   UNL     1       5.356  -4.221  -0.366  0.00  0.00    +0.144 A 
ATOM     17  C   UNL     1       5.253  -3.837  -1.688  0.00  0.00    +0.145 A 
ATOM     18  N   UNL     1       4.547  -2.777  -2.031  0.00  0.00    -0.238 NA
ATOM     19  H   UNL     1       3.142  -0.660  -2.601  0.00  0.00    +0.148 HD
BRANCH  16  20
ATOM     20  N   UNL     1       6.146  -5.417   0.006  0.00  0.00    +0.058 N 
ATOM     21  O   UNL     1       6.233  -5.750   1.174  0.00  0.00    -0.126 OA
ATOM     22  O   UNL     1       6.709  -6.067  -0.857  0.00  0.00    -0.126 OA
ENDBRANCH  16  20
ENDBRANCH   8  12
TORSDOF 2
