REMARK  Name = ZINC11617515
REMARK  11 active torsions:
REMARK  status: ('A' for Active; 'I' for Inactive)
REMARK    1  A    between atoms: C_1  and  C_2
REMARK    2  A    between atoms: C_5  and  N_8
REMARK    3  A    between atoms: C_9  and  S_13
REMARK    4  A    between atoms: S_13  and  C_14
REMARK    5  A    between atoms: C_14  and  C_16
REMARK    6  A    between atoms: C_14  and  C_17
REMARK    7  A    between atoms: N_19  and  C_20
REMARK    8  A    between atoms: C_23  and  C_26
REMARK    9  A    between atoms: C_26  and  C_27
REMARK   10  A    between atoms: C_26  and  C_28
REMARK   11  A    between atoms: C_26  and  C_29
REMARK                            x       y       z     vdW  Elec       q    Type
REMARK                         _______ _______ _______ _____ _____    ______ ____
ROOT
ATOM      1  C   UNL     1      -0.017   1.089   0.004  0.00  0.00    +0.137 C 
ATOM      2  C   UNL     1      -0.759   1.606  -1.230  0.00  0.00    +0.029 C 
ENDROOT
BRANCH   1   3
ATOM      3  C   UNL     1      -0.717   1.571   1.249  0.00  0.00    +0.230 C 
ATOM      4  O   UNL     1      -0.341   2.582   1.803  0.00  0.00    -0.274 OA
ATOM      5  N   UNL     1      -1.761   0.878   1.746  0.00  0.00    -0.285 N 
ATOM      6  H   UNL     1      -2.104   0.108   1.266  0.00  0.00    +0.155 HD
BRANCH   5   7
ATOM      7  C   UNL     1      -2.349   1.270   2.953  0.00  0.00    +0.033 A 
ATOM      8  C   UNL     1      -2.852   0.313   3.825  0.00  0.00    +0.023 A 
ATOM      9  C   UNL     1      -3.428   0.702   5.018  0.00  0.00    +0.006 A 
ATOM     10  C   UNL     1      -3.514   2.044   5.341  0.00  0.00    -0.042 A 
ATOM     11  C   UNL     1      -3.019   3.000   4.473  0.00  0.00    +0.006 A 
ATOM     12  C   UNL     1      -2.437   2.617   3.280  0.00  0.00    +0.023 A 
BRANCH  10  13
ATOM     13  C   UNL     1      -4.148   2.466   6.641  0.00  0.00    -0.013 C 
ATOM     14  C   UNL     1      -5.352   3.365   6.353  0.00  0.00    +0.015 C 
ATOM     15  C   UNL     1      -4.609   1.226   7.410  0.00  0.00    +0.015 C 
ATOM     16  C   UNL     1      -3.126   3.236   7.481  0.00  0.00    +0.015 C 
ENDBRANCH  10  13
ENDBRANCH   5   7
ENDBRANCH   1   3
BRANCH   1  17
ATOM     17  S   UNL     1       1.683   1.710  -0.010  0.00  0.00    -0.072 S 
BRANCH  17  19
ATOM     18  N   UNL     1       3.552   0.991  -1.962  0.00  0.00    -0.187 N 
ATOM     19  C   UNL     1       2.294   0.895  -1.449  0.00  0.00    +0.215 A 
ATOM     20  N   UNL     1       1.623   0.075  -2.228  0.00  0.00    -0.101 NA
ATOM     21  N   UNL     1       2.365  -0.340  -3.190  0.00  0.00    -0.022 NA
ATOM     22  N   UNL     1       3.547   0.165  -3.099  0.00  0.00    -0.038 NA
BRANCH  18  27
ATOM     23  C   UNL     1       7.880   4.059   0.057  0.00  0.00    +0.044 C 
ATOM     24  C   UNL     1       6.731   3.244  -0.479  0.00  0.00    -0.050 A 
ATOM     25  C   UNL     1       6.971   2.018  -1.071  0.00  0.00    +0.005 A 
ATOM     26  C   UNL     1       5.920   1.269  -1.563  0.00  0.00    +0.028 A 
ATOM     27  C   UNL     1       4.621   1.748  -1.463  0.00  0.00    +0.070 A 
ATOM     28  C   UNL     1       4.383   2.982  -0.872  0.00  0.00    +0.028 A 
ATOM     29  C   UNL     1       5.438   3.724  -0.378  0.00  0.00    +0.005 A 
ENDBRANCH  18  27
ENDBRANCH  17  19
ENDBRANCH   1  17
TORSDOF 6
