REMARK  Name = ZINC51676723
REMARK  6 active torsions:
REMARK  status: ('A' for Active; 'I' for Inactive)
REMARK    1  A    between atoms: C_3  and  C_6
REMARK    2  A    between atoms: C_6  and  C_8
REMARK    3  A    between atoms: C_6  and  N_25
REMARK    4  A    between atoms: C_8  and  N_9
REMARK    5  A    between atoms: C_16  and  C_19
REMARK    6  A    between atoms: N_21  and  C_22
REMARK                            x       y       z     vdW  Elec       q    Type
REMARK                         _______ _______ _______ _____ _____    ______ ____
ROOT
ATOM      1  N   UNL     1       5.686   2.078   1.234  0.00  0.00    -0.300 N 
ATOM      2  C   UNL     1       6.363   1.968   2.394  0.00  0.00    +0.302 C 
ATOM      3  O   UNL     1       5.762   1.754   3.429  0.00  0.00    -0.253 OA
ATOM      4  N   UNL     1       7.704   2.095   2.407  0.00  0.00    -0.285 N 
ATOM      5  C   UNL     1       8.433   2.464   1.186  0.00  0.00    +0.109 C 
ATOM      6  C   UNL     1       9.530   1.425   0.933  0.00  0.00    +0.020 C 
ATOM      7  C   UNL     1      10.411   1.305   2.179  0.00  0.00    +0.016 C 
ATOM      8  C   UNL     1       9.563   0.834   3.362  0.00  0.00    +0.092 C 
ATOM      9  C   UNL     1       8.466   1.872   3.644  0.00  0.00    +0.122 C 
ATOM     10  H   UNL     1       6.156   2.317   0.419  0.00  0.00    +0.150 HD
ENDROOT
BRANCH   8  11
ATOM     11  C   UNL     1      10.437   0.685   4.580  0.00  0.00    +0.218 C 
ATOM     12  O   UNL     1      11.623   0.931   4.509  0.00  0.00    -0.275 OA
ATOM     13  N   UNL     1       9.902   0.277   5.748  0.00  0.00    -0.312 N 
ATOM     14  H   UNL     1       8.954   0.080   5.804  0.00  0.00    +0.149 HD
BRANCH  13  15
ATOM     15  C   UNL     1      10.753   0.132   6.932  0.00  0.00    +0.073 C 
ATOM     16  C   UNL     1      10.554  -1.115   7.795  0.00  0.00    +0.024 C 
ATOM     17  C   UNL     1      10.082   0.249   8.302  0.00  0.00    +0.024 C 
ENDBRANCH  13  15
ENDBRANCH   8  11
BRANCH   1  18
ATOM     18  C   UNL     1       4.242   1.838   1.202  0.00  0.00    +0.095 C 
BRANCH  18  19
ATOM     19  C   UNL     1       3.744   1.908  -0.243  0.00  0.00    -0.013 C 
BRANCH  19  20
ATOM     20  N   UNL     1       2.321   1.546  -0.290  0.00  0.00    +0.386 N 
ATOM     21  C   UNL     1       1.865   1.443  -1.699  0.00  0.00    -0.078 C 
ATOM     22  C   UNL     1       0.605   0.546  -1.599  0.00  0.00    -0.020 C 
ATOM     23  C   UNL     1       0.994  -0.475  -0.506  0.00  0.00    -0.020 C 
ATOM     24  C   UNL     1       2.116   0.206   0.300  0.00  0.00    -0.078 C 
ATOM     25  H   UNL     1       1.772   2.232   0.205  0.00  0.00    -0.081 HD
ENDBRANCH  19  20
BRANCH  19  28
ATOM     26  C   UNL     1       4.866   5.134  -1.929  0.00  0.00    +0.008 A 
ATOM     27  C   UNL     1       4.904   3.801  -1.567  0.00  0.00    +0.009 A 
ATOM     28  C   UNL     1       3.925   3.308  -0.770  0.00  0.00    -0.022 A 
ATOM     29  S   UNL     1       2.903   4.748  -0.507  0.00  0.00    -0.103 S 
ATOM     30  C   UNL     1       3.851   5.910  -1.476  0.00  0.00    +0.045 A 
ENDBRANCH  19  28
ENDBRANCH  18  19
ENDBRANCH   1  18
TORSDOF 6
