REMARK  Name = ZINC01362166
REMARK  5 active torsions:
REMARK  status: ('A' for Active; 'I' for Inactive)
REMARK    1  A    between atoms: C_1  and  C_2
REMARK    2  A    between atoms: N_8  and  C_15
REMARK    3  A    between atoms: C_11  and  C_14
REMARK    4  A    between atoms: C_15  and  C_16
REMARK    5  A    between atoms: C_22  and  C_25
REMARK                            x       y       z     vdW  Elec       q    Type
REMARK                         _______ _______ _______ _____ _____    ______ ____
ROOT
ATOM      1  C   UNL     1       2.930  -4.873  -2.917  0.00  0.00    +0.044 C 
ATOM      2  C   UNL     1       4.104  -4.038  -2.475  0.00  0.00    -0.048 A 
ATOM      3  C   UNL     1       5.217  -4.648  -1.926  0.00  0.00    +0.007 A 
ATOM      4  C   UNL     1       6.299  -3.889  -1.519  0.00  0.00    +0.048 A 
ATOM      5  C   UNL     1       6.267  -2.512  -1.660  0.00  0.00    +0.143 A 
ATOM      6  C   UNL     1       5.145  -1.897  -2.213  0.00  0.00    +0.079 A 
ATOM      7  C   UNL     1       4.065  -2.663  -2.619  0.00  0.00    +0.030 A 
ATOM      8  N   UNL     1       5.126  -0.502  -2.350  0.00  0.00    -0.256 N 
ATOM      9  C   UNL     1       6.288   0.181  -2.252  0.00  0.00    +0.261 C 
ATOM     10  O   UNL     1       6.292   1.391  -2.342  0.00  0.00    -0.271 OA
ATOM     11  C   UNL     1       7.577  -0.565  -2.024  0.00  0.00    +0.256 C 
ATOM     12  O   UNL     1       7.322  -1.750  -1.266  0.00  0.00    -0.478 OA
ATOM     13  C   UNL     1       8.557   0.328  -1.259  0.00  0.00    +0.062 C 
ENDROOT
BRANCH   8  14
ATOM     14  C   UNL     1       3.868   0.204  -2.602  0.00  0.00    +0.209 C 
BRANCH  14  15
ATOM     15  C   UNL     1       3.231   0.581  -1.289  0.00  0.00    +0.233 C 
ATOM     16  O   UNL     1       3.776   0.289  -0.246  0.00  0.00    -0.274 OA
ATOM     17  N   UNL     1       2.057   1.242  -1.275  0.00  0.00    -0.300 N 
ATOM     18  C   UNL     1       1.385   1.603  -2.531  0.00  0.00    +0.108 C 
ATOM     19  C   UNL     1      -0.051   1.072  -2.492  0.00  0.00    +0.019 C 
ATOM     20  C   UNL     1      -0.749   1.593  -1.234  0.00  0.00    +0.006 C 
ATOM     21  C   UNL     1      -0.013   1.086   0.008  0.00  0.00    +0.003 C 
ATOM     22  C   UNL     1       1.424   1.617  -0.003  0.00  0.00    +0.111 C 
ATOM     23  C   UNL     1      -0.730   1.580   1.266  0.00  0.00    +0.009 C 
ENDBRANCH  14  15
ENDBRANCH   8  14
TORSDOF 2
