REMARK  Name = ZINC16076572
REMARK  7 active torsions:
REMARK  status: ('A' for Active; 'I' for Inactive)
REMARK    1  A    between atoms: C_1  and  C_2
REMARK    2  A    between atoms: C_2  and  C_3
REMARK    3  A    between atoms: C_3  and  N_4
REMARK    4  A    between atoms: N_16  and  C_19
REMARK    5  A    between atoms: C_19  and  N_54
REMARK    6  A    between atoms: C_20  and  N_54
REMARK    7  A    between atoms: C_21  and  N_54
REMARK                            x       y       z     vdW  Elec       q    Type
REMARK                         _______ _______ _______ _____ _____    ______ ____
ROOT
ATOM      1  N   UNL     1      -1.185   1.881   0.018  0.00  0.00    -0.277 N 
ATOM      2  C   UNL     1      -0.014   1.212   0.009  0.00  0.00    +0.263 A 
ATOM      3  O   UNL     1       0.002  -0.004   0.002  0.00  0.00    -0.267 OA
ATOM      4  C   UNL     1       1.246   1.978   0.001  0.00  0.00    +0.064 A 
ATOM      5  C   UNL     1       2.482   1.334  -0.015  0.00  0.00    +0.015 A 
ATOM      6  C   UNL     1       3.640   2.083  -0.022  0.00  0.00    +0.001 A 
ATOM      7  C   UNL     1       3.579   3.468  -0.014  0.00  0.00    +0.002 A 
ATOM      8  C   UNL     1       2.360   4.117   0.001  0.00  0.00    +0.027 A 
ATOM      9  C   UNL     1       1.185   3.380   0.009  0.00  0.00    +0.064 A 
ATOM     10  N   UNL     1      -0.057   4.011   0.023  0.00  0.00    -0.257 N 
ATOM     11  C   UNL     1      -1.217   3.268   0.030  0.00  0.00    +0.238 A 
ATOM     12  N   UNL     1      -2.232   4.090   0.044  0.00  0.00    -0.133 NA
ATOM     13  N   UNL     1      -1.734   5.399   0.046  0.00  0.00    -0.255 N 
ATOM     14  C   UNL     1      -0.388   5.319   0.033  0.00  0.00    +0.182 A 
ATOM     15  S   UNL     1       0.703   6.638   0.030  0.00  0.00    -0.011 S 
ENDROOT
BRANCH   1  16
ATOM     16  C   UNL     1      -2.443   1.131   0.020  0.00  0.00    +0.128 C 
BRANCH  16  18
ATOM     17  C   UNL     1      -4.189   0.078   1.464  0.00  0.00    +0.005 C 
ATOM     18  C   UNL     1      -2.875   0.862   1.463  0.00  0.00    +0.018 C 
ENDBRANCH  16  18
ENDBRANCH   1  16
BRANCH  13  19
ATOM     19  C   UNL     1      -2.529   6.629   0.060  0.00  0.00    +0.072 C 
BRANCH  19  21
ATOM     20  C   UNL     1      -3.677   6.078  -1.999  0.00  0.00    -0.093 C 
ATOM     21  N   UNL     1      -2.783   7.049  -1.334  0.00  0.00    +0.393 N 
ATOM     22  H   UNL     1      -1.890   7.081  -1.841  0.00  0.00    -0.079 HD
BRANCH  21  23
ATOM     23  C   UNL     1      -3.395   8.394  -1.353  0.00  0.00    -0.066 C 
ATOM     24  C   UNL     1      -4.765   8.370  -0.673  0.00  0.00    -0.015 C 
ATOM     25  C   UNL     1      -5.376   9.772  -0.708  0.00  0.00    -0.002 C 
ATOM     26  C   UNL     1      -5.537  10.223  -2.161  0.00  0.00    -0.000 C 
ATOM     27  C   UNL     1      -4.167  10.247  -2.841  0.00  0.00    -0.002 C 
ATOM     28  C   UNL     1      -3.555   8.845  -2.807  0.00  0.00    -0.015 C 
ENDBRANCH  21  23
ENDBRANCH  19  21
ENDBRANCH  13  19
TORSDOF 5
