REMARK  Name = ZINC49337514
REMARK  3 active torsions:
REMARK  status: ('A' for Active; 'I' for Inactive)
REMARK    1  A    between atoms: N_12  and  C_13
REMARK    2  A    between atoms: C_13  and  C_14
REMARK    3  A    between atoms: C_16  and  C_19
REMARK                            x       y       z     vdW  Elec       q    Type
REMARK                         _______ _______ _______ _____ _____    ______ ____
ROOT
ATOM      1  C   UNL     1      -0.017   1.380   0.010  0.00  0.00    +0.003 A 
ATOM      2  C   UNL     1       1.163   2.102   0.002  0.00  0.00    +0.024 A 
ATOM      3  C   UNL     1       2.385   1.445  -0.013  0.00  0.00    +0.049 A 
ATOM      4  C   UNL     1       2.403   0.040  -0.021  0.00  0.00    +0.062 A 
ATOM      5  C   UNL     1       1.208  -0.680  -0.013  0.00  0.00    +0.031 A 
ATOM      6  C   UNL     1       0.002  -0.004   0.002  0.00  0.00    +0.016 A 
ATOM      7 BR   UNL     1       1.237  -2.571  -0.023  0.00  0.00    -0.049 Br
ATOM      8  C   UNL     1       3.821  -0.363  -0.037  0.00  0.00    +0.251 C 
ATOM      9  O   UNL     1       4.269  -1.491  -0.048  0.00  0.00    -0.282 OA
ATOM     10  C   UNL     1       4.587   0.926  -0.038  0.00  0.00    +0.292 C 
ATOM     11  O   UNL     1       5.794   1.043  -0.050  0.00  0.00    -0.266 OA
ATOM     12  N   UNL     1       3.691   1.929  -0.024  0.00  0.00    -0.257 N 
ENDROOT
BRANCH  12  13
ATOM     13  C   UNL     1       4.044   3.351  -0.020  0.00  0.00    +0.193 C 
BRANCH  13  14
ATOM     14  C   UNL     1       4.180   3.831   1.403  0.00  0.00    +0.189 A 
ATOM     15  N   UNL     1       3.192   4.336   2.150  0.00  0.00    -0.194 NA
ATOM     16  C   UNL     1       3.643   4.654   3.332  0.00  0.00    +0.231 A 
ATOM     17  O   UNL     1       4.948   4.358   3.376  0.00  0.00    -0.338 OA
ATOM     18  N   UNL     1       5.276   3.816   2.105  0.00  0.00    -0.060 NA
BRANCH  16  19
ATOM     19  C   UNL     1       2.834   5.251   4.454  0.00  0.00    +0.078 C 
ATOM     20  C   UNL     1       3.593   5.737   5.691  0.00  0.00    +0.014 C 
ATOM     21  C   UNL     1       2.750   4.462   5.762  0.00  0.00    +0.014 C 
ENDBRANCH  16  19
ENDBRANCH  13  14
ENDBRANCH  12  13
TORSDOF 3
