REMARK  Name = ZINC07860902
REMARK  5 active torsions:
REMARK  status: ('A' for Active; 'I' for Inactive)
REMARK    1  A    between atoms: C_1  and  C_2
REMARK    2  A    between atoms: C_2  and  C_4
REMARK    3  A    between atoms: C_2  and  S_6
REMARK    4  A    between atoms: S_6  and  C_7
REMARK    5  A    between atoms: N_17  and  C_18
REMARK                            x       y       z     vdW  Elec       q    Type
REMARK                         _______ _______ _______ _____ _____    ______ ____
ROOT
ATOM      1  C   UNL     1      -0.961   3.780   1.142  0.00  0.00    +0.174 A 
ATOM      2  N   UNL     1      -0.425   4.217   0.029  0.00  0.00    -0.223 NA
ATOM      3  C   UNL     1      -0.324   5.535  -0.237  0.00  0.00    +0.079 A 
ATOM      4  C   UNL     1       0.248   6.001  -1.424  0.00  0.00    +0.028 A 
ATOM      5  C   UNL     1       0.330   7.346  -1.653  0.00  0.00    +0.002 A 
ATOM      6  C   UNL     1      -0.146   8.259  -0.721  0.00  0.00    +0.001 A 
ATOM      7  C   UNL     1      -0.711   7.834   0.449  0.00  0.00    +0.015 A 
ATOM      8  C   UNL     1      -0.808   6.468   0.708  0.00  0.00    +0.065 A 
ATOM      9  C   UNL     1      -1.405   5.953   1.948  0.00  0.00    +0.263 A 
ATOM     10  O   UNL     1      -1.839   6.706   2.800  0.00  0.00    -0.267 OA
ATOM     11  N   UNL     1      -1.458   4.610   2.106  0.00  0.00    -0.284 N 
ENDROOT
BRANCH  11  12
ATOM     12  C   UNL     1      -2.047   4.043   3.321  0.00  0.00    +0.093 C 
ATOM     13  C   UNL     1      -1.619   4.644   4.661  0.00  0.00    +0.027 C 
ATOM     14  C   UNL     1      -1.124   3.255   4.253  0.00  0.00    +0.027 C 
ENDBRANCH  11  12
BRANCH   1  15
ATOM     15  S   UNL     1      -1.050   2.040   1.404  0.00  0.00    -0.069 S 
BRANCH  15  17
ATOM     16  C   UNL     1       1.180   1.888  -0.167  0.00  0.00    +0.035 C 
ATOM     17  C   UNL     1      -0.286   1.451  -0.128  0.00  0.00    +0.153 C 
BRANCH  17  18
ATOM     18  C   UNL     1      -0.362  -0.018  -0.181  0.00  0.00    +0.077 C 
ATOM     19  N   UNL     1      -0.420  -1.152  -0.222  0.00  0.00    -0.195 NA
ENDBRANCH  17  18
ENDBRANCH  15  17
ENDBRANCH   1  15
TORSDOF 4
