REMARK  Name = ZINC08500016
REMARK  4 active torsions:
REMARK  status: ('A' for Active; 'I' for Inactive)
REMARK    1  A    between atoms: C_1  and  C_2
REMARK    2  A    between atoms: C_5  and  C_19
REMARK    3  A    between atoms: C_6  and  S_9
REMARK    4  A    between atoms: S_9  and  N_12
REMARK                            x       y       z     vdW  Elec       q    Type
REMARK                         _______ _______ _______ _____ _____    ______ ____
ROOT
ATOM      1  S   UNL     1      -0.587  -2.868  -2.713  0.00  0.00    +0.063 S 
ATOM      2  O   UNL     1      -0.166  -1.998  -3.755  0.00  0.00    -0.153 OA
ATOM      3  O   UNL     1      -0.085  -4.190  -2.575  0.00  0.00    -0.153 OA
ENDROOT
BRANCH   1   9
ATOM      4  C   UNL     1       0.664   1.431  -0.012  0.00  0.00    +0.045 C 
ATOM      5  C   UNL     1       0.329  -0.039  -0.009  0.00  0.00    -0.029 A 
ATOM      6  C   UNL     1       0.288  -0.736   1.184  0.00  0.00    +0.025 A 
ATOM      7  C   UNL     1      -0.019  -2.084   1.187  0.00  0.00    +0.046 A 
ATOM      8  C   UNL     1      -0.286  -2.736  -0.004  0.00  0.00    -0.004 A 
ATOM      9  C   UNL     1      -0.247  -2.039  -1.196  0.00  0.00    +0.128 A 
ATOM     10  C   UNL     1       0.056  -0.689  -1.199  0.00  0.00    +0.071 A 
ATOM     11 CL   UNL     1       0.100   0.189  -2.696  0.00  0.00    -0.081 Cl
ATOM     12  C   UNL     1      -0.621  -4.205  -0.001  0.00  0.00    +0.047 C 
ATOM     13 CL   UNL     1      -0.070  -2.960   2.685  0.00  0.00    -0.083 Cl
ENDBRANCH   1   9
BRANCH   1  14
ATOM     14  N   UNL     1      -2.233  -2.998  -2.842  0.00  0.00    -0.166 NA
ATOM     15  C   UNL     1      -2.953  -4.167  -2.311  0.00  0.00    +0.128 C 
ATOM     16  C   UNL     1      -3.923  -3.674  -1.228  0.00  0.00    +0.121 C 
ATOM     17  N   UNL     1      -4.668  -2.512  -1.693  0.00  0.00    -0.313 N 
ATOM     18  C   UNL     1      -4.272  -1.703  -2.677  0.00  0.00    +0.229 C 
ATOM     19  O   UNL     1      -4.939  -0.721  -2.922  0.00  0.00    -0.274 OA
ATOM     20  C   UNL     1      -3.035  -1.952  -3.496  0.00  0.00    +0.205 C 
ATOM     21  H   UNL     1      -5.511  -2.313  -1.258  0.00  0.00    +0.149 HD
ENDBRANCH   1  14
TORSDOF 2
