REMARK  Name = ZINC64986391
REMARK  9 active torsions:
REMARK  status: ('A' for Active; 'I' for Inactive)
REMARK    1  A    between atoms: C_1  and  C_2
REMARK    2  A    between atoms: C_9  and  C_24
REMARK    3  A    between atoms: N_12  and  S_13
REMARK    4  A    between atoms: S_13  and  C_16
REMARK    5  A    between atoms: C_19  and  O_22
REMARK    6  A    between atoms: O_22  and  C_23
REMARK    7  A    between atoms: N_26  and  C_27
REMARK    8  A    between atoms: C_31  and  C_34
REMARK    9  A    between atoms: C_32  and  C_33
REMARK                            x       y       z     vdW  Elec       q    Type
REMARK                         _______ _______ _______ _____ _____    ______ ____
ROOT
ATOM      1  C   UNL     1      -1.028   1.149  -0.235  0.00  0.00    +0.044 C 
ATOM      2  C   UNL     1      -0.712  -0.323  -0.165  0.00  0.00    -0.047 A 
ATOM      3  C   UNL     1      -0.624  -1.064  -1.329  0.00  0.00    +0.005 A 
ATOM      4  C   UNL     1      -0.332  -2.414  -1.269  0.00  0.00    +0.029 A 
ATOM      5  C   UNL     1      -0.129  -3.023  -0.041  0.00  0.00    +0.093 A 
ATOM      6  C   UNL     1      -0.220  -2.279   1.133  0.00  0.00    +0.144 A 
ATOM      7  C   UNL     1      -0.506  -0.924   1.063  0.00  0.00    +0.051 A 
ATOM      8  O   UNL     1      -0.032  -2.865   2.345  0.00  0.00    -0.476 OA
ATOM      9  C   UNL     1       0.678  -4.106   2.382  0.00  0.00    +0.278 C 
ATOM     10  C   UNL     1       0.071  -5.054   1.337  0.00  0.00    +0.186 C 
ATOM     11  N   UNL     1       0.172  -4.393   0.025  0.00  0.00    -0.195 N 
ENDROOT
BRANCH   9  12
ATOM     12  C   UNL     1       0.556  -4.717   3.754  0.00  0.00    +0.260 C 
ATOM     13  O   UNL     1      -0.150  -4.194   4.590  0.00  0.00    -0.271 OA
ATOM     14  N   UNL     1       1.232  -5.844   4.052  0.00  0.00    -0.282 N 
ATOM     15  H   UNL     1       1.844  -6.228   3.405  0.00  0.00    +0.155 HD
BRANCH  14  16
ATOM     16  C   UNL     1       1.050  -6.461   5.295  0.00  0.00    +0.037 A 
ATOM     17  C   UNL     1       0.696  -5.702   6.403  0.00  0.00    +0.023 A 
ATOM     18  C   UNL     1       0.517  -6.314   7.628  0.00  0.00    +0.002 A 
ATOM     19  C   UNL     1       0.692  -7.680   7.752  0.00  0.00    +0.004 A 
ATOM     20  C   UNL     1       1.044  -8.438   6.651  0.00  0.00    -0.046 A 
ATOM     21  C   UNL     1       1.218  -7.833   5.421  0.00  0.00    -0.026 A 
ATOM     22  C   UNL     1       1.596  -8.661   4.220  0.00  0.00    +0.046 C 
ATOM     23  C   UNL     1       1.234  -9.927   6.791  0.00  0.00    +0.044 C 
ENDBRANCH  14  16
ENDBRANCH   9  12
BRANCH  11  24
ATOM     24  S   UNL     1       0.623  -5.236  -1.327  0.00  0.00    +0.075 S 
ATOM     25  O   UNL     1       1.255  -4.305  -2.195  0.00  0.00    -0.150 OA
ATOM     26  O   UNL     1       1.273  -6.415  -0.872  0.00  0.00    -0.150 OA
BRANCH  24  27
ATOM     27  C   UNL     1      -0.854  -5.756  -2.135  0.00  0.00    +0.109 A 
ATOM     28  C   UNL     1      -1.427  -6.972  -1.811  0.00  0.00    +0.032 A 
ATOM     29  C   UNL     1      -2.584  -7.382  -2.443  0.00  0.00    +0.047 A 
ATOM     30  C   UNL     1      -3.173  -6.572  -3.404  0.00  0.00    +0.120 A 
ATOM     31  C   UNL     1      -2.596  -5.352  -3.727  0.00  0.00    +0.047 A 
ATOM     32  C   UNL     1      -1.441  -4.944  -3.088  0.00  0.00    +0.032 A 
BRANCH  30  33
ATOM     33  O   UNL     1      -4.312  -6.973  -4.027  0.00  0.00    -0.495 OA
ATOM     34  C   UNL     1      -4.862  -6.088  -5.005  0.00  0.00    +0.277 C 
ENDBRANCH  30  33
ENDBRANCH  24  27
ENDBRANCH  11  24
TORSDOF 5
