REMARK  Name = ZINC04131439
REMARK  9 active torsions:
REMARK  status: ('A' for Active; 'I' for Inactive)
REMARK    1  A    between atoms: C_1  and  C_2
REMARK    2  A    between atoms: C_12  and  C_14
REMARK    3  A    between atoms: C_16  and  C_29
REMARK    4  A    between atoms: C_17  and  N_28
REMARK    5  A    between atoms: C_19  and  C_27
REMARK    6  A    between atoms: C_20  and  C_21
REMARK    7  A    between atoms: C_21  and  O_23
REMARK    8  A    between atoms: O_23  and  C_24
REMARK    9  A    between atoms: C_24  and  C_25
REMARK                            x       y       z     vdW  Elec       q    Type
REMARK                         _______ _______ _______ _____ _____    ______ ____
ROOT
ATOM      1  C   UNL     1      -0.668   2.193   3.646  0.00  0.00    +0.110 C 
ATOM      2  C   UNL     1      -2.164   2.092   3.523  0.00  0.00    +0.098 C 
ATOM      3  C   UNL     1      -2.750   1.927   2.312  0.00  0.00    +0.198 C 
ATOM      4  O   UNL     1      -2.027   1.854   1.179  0.00  0.00    -0.445 OA
ATOM      5  C   UNL     1      -0.722   1.555   1.252  0.00  0.00    +0.115 C 
ATOM      6  C   UNL     1      -0.019   1.694   2.383  0.00  0.00    +0.087 C 
ATOM      7  C   UNL     1      -0.021   1.050   0.018  0.00  0.00    +0.087 C 
ENDROOT
BRANCH   1  19
ATOM      8  C   UNL     1       0.371   8.676   3.328  0.00  0.00    +0.046 C 
ATOM      9  C   UNL     1       0.737   7.660   4.379  0.00  0.00    -0.026 A 
ATOM     10  C   UNL     1       1.411   8.052   5.516  0.00  0.00    +0.005 A 
ATOM     11  C   UNL     1       1.754   7.125   6.491  0.00  0.00    +0.001 A 
ATOM     12  C   UNL     1       1.429   5.807   6.342  0.00  0.00    +0.010 A 
ATOM     13  C   UNL     1       0.746   5.386   5.197  0.00  0.00    -0.001 A 
ATOM     14  C   UNL     1       0.396   6.322   4.205  0.00  0.00    +0.052 A 
ATOM     15  N   UNL     1      -0.277   5.902   3.078  0.00  0.00    -0.322 N 
ATOM     16  H   UNL     1      -0.528   6.569   2.376  0.00  0.00    +0.169 HD
ATOM     17  C   UNL     1      -0.601   4.608   2.908  0.00  0.00    +0.253 A 
ATOM     18  O   UNL     1      -1.192   4.272   1.896  0.00  0.00    -0.268 OA
ATOM     19  C   UNL     1      -0.279   3.631   3.874  0.00  0.00    +0.030 A 
ATOM     20  C   UNL     1       0.383   3.981   5.005  0.00  0.00    +0.020 A 
ENDBRANCH   1  19
BRANCH   3  21
ATOM     21  N   UNL     1      -4.118   1.838   2.239  0.00  0.00    -0.328 N 
ATOM     22  H   UNL     1      -4.651   1.893   3.047  0.00  0.00    +0.145 HD
ATOM     23  H   UNL     1      -4.551   1.719   1.379  0.00  0.00    +0.145 HD
ENDBRANCH   3  21
BRANCH   6  24
ATOM     24  C   UNL     1       1.359   1.367   2.391  0.00  0.00    +0.340 C 
ATOM     25  O   UNL     1       1.919   1.066   1.353  0.00  0.00    -0.245 OA
BRANCH  24  26
ATOM     26  O   UNL     1       2.051   1.389   3.549  0.00  0.00    -0.457 OA
BRANCH  26  27
ATOM     27  C   UNL     1       3.437   1.048   3.483  0.00  0.00    +0.259 C 
BRANCH  27  28
ATOM     28  C   UNL     1       4.040   1.127   4.862  0.00  0.00    +0.006 C 
ATOM     29  C   UNL     1       4.831   0.172   5.287  0.00  0.00    +0.007 C 
ENDBRANCH  27  28
ENDBRANCH  26  27
ENDBRANCH  24  26
ENDBRANCH   6  24
BRANCH   2  30
ATOM     30  C   UNL     1      -2.978   2.171   4.698  0.00  0.00    +0.101 C 
ATOM     31  N   UNL     1      -3.624   2.234   5.631  0.00  0.00    -0.191 NA
ENDBRANCH   2  30
TORSDOF 7
