REMARK  Name = ZINC62817867
REMARK  3 active torsions:
REMARK  status: ('A' for Active; 'I' for Inactive)
REMARK    1  A    between atoms: C_1  and  C_2
REMARK    2  A    between atoms: C_9  and  C_11
REMARK    3  A    between atoms: C_13  and  N_19
REMARK                            x       y       z     vdW  Elec       q    Type
REMARK                         _______ _______ _______ _____ _____    ______ ____
ROOT
ATOM      1  C   UNL     1      -0.508  -3.856   2.826  0.00  0.00    +0.041 A 
ATOM      2  C   UNL     1      -0.092  -4.788   3.779  0.00  0.00    +0.047 A 
ATOM      3  C   UNL     1      -0.916  -5.841   4.116  0.00  0.00    +0.147 A 
ATOM      4  C   UNL     1      -2.155  -5.976   3.511  0.00  0.00    +0.089 A 
ATOM      5  C   UNL     1      -2.574  -5.055   2.564  0.00  0.00    +0.062 A 
ATOM      6  C   UNL     1      -1.760  -3.993   2.224  0.00  0.00    +0.034 A 
ATOM      7 CL   UNL     1      -4.128  -5.232   1.811  0.00  0.00    -0.082 Cl
ATOM      8 CL   UNL     1      -3.186  -7.305   3.940  0.00  0.00    -0.080 Cl
ENDROOT
BRANCH   1  16
ATOM      9  C   UNL     1      -2.854   0.601   0.795  0.00  0.00    +0.009 C 
ATOM     10  C   UNL     1      -1.782   0.196   1.809  0.00  0.00    +0.012 C 
ATOM     11  C   UNL     1      -0.382   0.667   1.353  0.00  0.00    +0.101 C 
ATOM     12  C   UNL     1       0.543  -0.452   1.777  0.00  0.00    +0.222 C 
ATOM     13  O   UNL     1       1.749  -0.363   1.859  0.00  0.00    -0.275 OA
ATOM     14  N   UNL     1      -0.167  -1.560   2.050  0.00  0.00    -0.238 N 
ATOM     15  C   UNL     1      -1.604  -1.338   1.843  0.00  0.00    +0.120 C 
ATOM     16  C   UNL     1       0.370  -2.726   2.462  0.00  0.00    +0.253 C 
ATOM     17  O   UNL     1       1.577  -2.846   2.534  0.00  0.00    -0.270 OA
ENDBRANCH   1  16
BRANCH   3  18
ATOM     18  N   UNL     1      -0.475  -6.830   5.125  0.00  0.00    +0.058 N 
ATOM     19  O   UNL     1       0.606  -6.714   5.654  0.00  0.00    -0.126 OA
ATOM     20  O   UNL     1      -1.197  -7.754   5.421  0.00  0.00    -0.126 OA
ENDBRANCH   3  18
TORSDOF 2
