REMARK  Name = ZINC04483611
REMARK  4 active torsions:
REMARK  status: ('A' for Active; 'I' for Inactive)
REMARK    1  A    between atoms: C_1  and  C_2
REMARK    2  A    between atoms: C_5  and  N_8
REMARK    3  A    between atoms: N_17  and  C_20
REMARK    4  A    between atoms: C_20  and  C_21
REMARK                            x       y       z     vdW  Elec       q    Type
REMARK                         _______ _______ _______ _____ _____    ______ ____
ROOT
ATOM      1  N   UNL     1      -0.229  -4.067  -0.056  0.00  0.00    -0.207 N 
ATOM      2  C   UNL     1      -0.185  -4.820  -1.161  0.00  0.00    +0.255 C 
ATOM      3  O   UNL     1      -0.299  -4.408  -2.295  0.00  0.00    -0.272 OA
ATOM      4  C   UNL     1       0.029  -6.266  -0.774  0.00  0.00    +0.246 C 
ATOM      5  C   UNL     1       0.111  -6.214   0.776  0.00  0.00    +0.216 C 
ATOM      6  C   UNL     1      -0.070  -4.746   1.086  0.00  0.00    +0.251 C 
ATOM      7  O   UNL     1      -0.074  -4.260   2.197  0.00  0.00    -0.273 OA
ATOM      8  N   UNL     1      -1.097  -6.959   1.177  0.00  0.00    -0.219 N 
ATOM      9  N   UNL     1      -1.744  -7.369   0.011  0.00  0.00    -0.082 NA
ATOM     10  N   UNL     1      -1.190  -7.036  -1.049  0.00  0.00    -0.156 NA
ENDROOT
BRANCH   1  15
ATOM     11  C   UNL     1      -1.001   1.554  -0.204  0.00  0.00    +0.044 C 
ATOM     12  C   UNL     1      -0.796   0.062  -0.165  0.00  0.00    -0.050 A 
ATOM     13  C   UNL     1       0.415  -0.458   0.254  0.00  0.00    +0.005 A 
ATOM     14  C   UNL     1       0.606  -1.825   0.291  0.00  0.00    +0.024 A 
ATOM     15  C   UNL     1      -0.420  -2.678  -0.092  0.00  0.00    +0.044 A 
ATOM     16  C   UNL     1      -1.635  -2.154  -0.511  0.00  0.00    +0.024 A 
ATOM     17  C   UNL     1      -1.821  -0.786  -0.542  0.00  0.00    +0.005 A 
ENDBRANCH   1  15
BRANCH   8  18
ATOM     18  C   UNL     1      -1.536  -7.221   2.549  0.00  0.00    +0.163 C 
BRANCH  18  19
ATOM     19  C   UNL     1      -0.884  -8.483   3.053  0.00  0.00    -0.028 A 
ATOM     20  C   UNL     1      -1.462  -9.711   2.791  0.00  0.00    +0.008 A 
ATOM     21  C   UNL     1      -0.864 -10.869   3.252  0.00  0.00    +0.038 A 
ATOM     22  C   UNL     1       0.313 -10.798   3.977  0.00  0.00    +0.123 A 
ATOM     23  C   UNL     1       0.891  -9.567   4.240  0.00  0.00    +0.038 A 
ATOM     24  C   UNL     1       0.294  -8.411   3.773  0.00  0.00    +0.008 A 
ATOM     25  F   UNL     1       0.898 -11.929   4.429  0.00  0.00    -0.205 F 
ENDBRANCH  18  19
ENDBRANCH   8  18
TORSDOF 3
