REMARK  Name = ZINC04786941
REMARK  6 active torsions:
REMARK  status: ('A' for Active; 'I' for Inactive)
REMARK    1  A    between atoms: C_1  and  C_2
REMARK    2  A    between atoms: C_2  and  C_4
REMARK    3  A    between atoms: C_2  and  S_6
REMARK    4  A    between atoms: S_6  and  C_7
REMARK    5  A    between atoms: C_10  and  C_13
REMARK    6  A    between atoms: N_11  and  N_12
REMARK                            x       y       z     vdW  Elec       q    Type
REMARK                         _______ _______ _______ _____ _____    ______ ____
ROOT
ATOM      1  C   UNL     1       1.644   1.905   2.587  0.00  0.00    +0.210 A 
ATOM      2  N   UNL     1       2.025   2.596   1.536  0.00  0.00    -0.121 NA
ATOM      3  N   UNL     1       3.234   3.003   1.689  0.00  0.00    -0.127 NA
ATOM      4  C   UNL     1       3.700   2.597   2.848  0.00  0.00    +0.183 A 
ATOM      5  N   UNL     1       2.694   1.886   3.460  0.00  0.00    -0.224 N 
ENDROOT
BRANCH   4   6
ATOM      6  C   UNL     1       5.049   2.860   3.393  0.00  0.00    +0.035 A 
ATOM      7  C   UNL     1       5.797   1.819   3.945  0.00  0.00    +0.013 A 
ATOM      8  C   UNL     1       7.055   2.071   4.452  0.00  0.00    +0.001 A 
ATOM      9  C   UNL     1       7.576   3.352   4.415  0.00  0.00    +0.001 A 
ATOM     10  C   UNL     1       6.840   4.389   3.869  0.00  0.00    +0.016 A 
ATOM     11  C   UNL     1       5.582   4.150   3.353  0.00  0.00    +0.029 A 
ATOM     12 BR   UNL     1       4.581   5.567   2.601  0.00  0.00    -0.050 Br
ENDBRANCH   4   6
BRANCH   5  13
ATOM     13  N   UNL     1       2.738   1.284   4.686  0.00  0.00    -0.295 N 
ATOM     14  H   UNL     1       3.147   0.364   4.622  0.00  0.00    +0.163 HD
ATOM     15  H   UNL     1       3.236   1.856   5.352  0.00  0.00    +0.163 HD
ENDBRANCH   5  13
BRANCH   1  16
ATOM     16  S   UNL     1       0.070   1.151   2.829  0.00  0.00    -0.066 S 
BRANCH  16  18
ATOM     17  C   UNL     1      -0.027   0.945   0.106  0.00  0.00    +0.035 C 
ATOM     18  C   UNL     1      -0.742   1.617   1.280  0.00  0.00    +0.153 C 
BRANCH  18  19
ATOM     19  C   UNL     1      -2.148   1.182   1.313  0.00  0.00    +0.077 C 
ATOM     20  N   UNL     1      -3.233   0.845   1.338  0.00  0.00    -0.195 NA
ENDBRANCH  18  19
ENDBRANCH  16  18
ENDBRANCH   1  16
TORSDOF 5
