REMARK  Name = ZINC41819340
REMARK  6 active torsions:
REMARK  status: ('A' for Active; 'I' for Inactive)
REMARK    1  A    between atoms: C_4  and  C_7
REMARK    2  A    between atoms: C_7  and  C_8
REMARK    3  A    between atoms: C_8  and  C_10
REMARK    4  A    between atoms: C_8  and  N_22
REMARK    5  A    between atoms: N_12  and  C_13
REMARK    6  A    between atoms: C_16  and  N_20
REMARK                            x       y       z     vdW  Elec       q    Type
REMARK                         _______ _______ _______ _____ _____    ______ ____
ROOT
ATOM      1  C   UNL     1       5.526  -1.672   1.383  0.00  0.00    +0.242 C 
ATOM      2  O   UNL     1       6.100  -1.907   0.340  0.00  0.00    -0.273 OA
ATOM      3  N   UNL     1       6.011  -2.158   2.543  0.00  0.00    -0.284 N 
ATOM      4  H   UNL     1       5.598  -1.907   3.384  0.00  0.00    +0.155 HD
ENDROOT
BRANCH   3   5
ATOM      5  C   UNL     1       7.111  -3.025   2.534  0.00  0.00    +0.036 A 
ATOM      6  C   UNL     1       8.023  -3.001   3.581  0.00  0.00    +0.045 A 
ATOM      7  C   UNL     1       9.108  -3.856   3.573  0.00  0.00    +0.065 A 
ATOM      8  C   UNL     1       9.287  -4.741   2.517  0.00  0.00    +0.062 A 
ATOM      9  C   UNL     1       8.374  -4.765   1.469  0.00  0.00    +0.065 A 
ATOM     10  C   UNL     1       7.286  -3.913   1.481  0.00  0.00    +0.045 A 
ATOM     11 CL   UNL     1       8.598  -5.870   0.149  0.00  0.00    -0.082 Cl
ATOM     12 CL   UNL     1      10.248  -3.825   4.882  0.00  0.00    -0.082 Cl
BRANCH   8  13
ATOM     13  N   UNL     1      10.387  -5.608   2.508  0.00  0.00    -0.356 N 
ATOM     14  H   UNL     1      11.024  -5.591   3.239  0.00  0.00    +0.142 HD
ATOM     15  H   UNL     1      10.511  -6.225   1.770  0.00  0.00    +0.142 HD
ENDBRANCH   8  13
ENDBRANCH   3   5
BRANCH   1  16
ATOM     16  C   UNL     1       4.273  -0.835   1.381  0.00  0.00    +0.201 C 
BRANCH  16  17
ATOM     17  N   UNL     1       4.481   0.358   2.205  0.00  0.00    -0.220 N 
ATOM     18  C   UNL     1       5.626   1.054   2.330  0.00  0.00    +0.245 A 
ATOM     19  N   UNL     1       5.379   2.040   3.157  0.00  0.00    -0.117 NA
ATOM     20  N   UNL     1       4.146   1.955   3.521  0.00  0.00    -0.023 NA
ATOM     21  N   UNL     1       3.599   0.943   2.944  0.00  0.00    -0.043 NA
ENDBRANCH  16  17
BRANCH  16  22
ATOM     22  C   UNL     1       3.943  -0.414  -0.052  0.00  0.00    +0.071 C 
BRANCH  22  26
ATOM     23  C   UNL     1       0.209   1.660  -0.105  0.00  0.00    +0.000 A 
ATOM     24  C   UNL     1       1.386   2.361   0.077  0.00  0.00    +0.000 A 
ATOM     25  C   UNL     1       2.595   1.690   0.095  0.00  0.00    +0.004 A 
ATOM     26  C   UNL     1       2.626   0.318  -0.070  0.00  0.00    -0.045 A 
ATOM     27  C   UNL     1       1.448  -0.383  -0.251  0.00  0.00    +0.004 A 
ATOM     28  C   UNL     1       0.240   0.288  -0.270  0.00  0.00    +0.000 A 
ENDBRANCH  22  26
ENDBRANCH  16  22
ENDBRANCH   1  16
TORSDOF 6
