REMARK  Name = ZINC00061954
REMARK  4 active torsions:
REMARK  status: ('A' for Active; 'I' for Inactive)
REMARK    1  A    between atoms: C_6  and  C_7
REMARK    2  A    between atoms: N_8  and  N_9
REMARK    3  A    between atoms: C_10  and  C_12
REMARK    4  A    between atoms: C_15  and  O_18
REMARK                            x       y       z     vdW  Elec       q    Type
REMARK                         _______ _______ _______ _____ _____    ______ ____
ROOT
ATOM      1  N   UNL     1       2.426  -2.814  -0.036  0.00  0.00    -0.203 N 
ATOM      2  C   UNL     1       1.248  -2.160  -0.021  0.00  0.00    +0.263 C 
ATOM      3  O   UNL     1       0.205  -2.785  -0.014  0.00  0.00    -0.268 OA
ATOM      4  H   UNL     1       3.258  -2.315  -0.041  0.00  0.00    +0.178 HD
ENDROOT
BRANCH   2   5
ATOM      5  C   UNL     1       1.223  -0.684  -0.013  0.00  0.00    +0.039 A 
ATOM      6  C   UNL     1       0.002  -0.004   0.002  0.00  0.00    +0.016 A 
ATOM      7  C   UNL     1      -0.017   1.373   0.010  0.00  0.00    +0.046 A 
ATOM      8  C   UNL     1       1.176   2.086   0.002  0.00  0.00    +0.117 A 
ATOM      9  C   UNL     1       2.393   1.413  -0.013  0.00  0.00    +0.046 A 
ATOM     10  C   UNL     1       2.420   0.036  -0.021  0.00  0.00    +0.016 A 
BRANCH   8  11
ATOM     11  O   UNL     1       1.154   3.443   0.010  0.00  0.00    -0.507 OA
ATOM     12  H   UNL     1       1.156   3.831   0.895  0.00  0.00    +0.292 HD
ENDBRANCH   8  11
ENDBRANCH   2   5
BRANCH   1  14
ATOM     13  C   UNL     1       3.584  -4.845  -0.057  0.00  0.00    +0.138 C 
ATOM     14  N   UNL     1       2.449  -4.215  -0.043  0.00  0.00    -0.187 NA
BRANCH  13  20
ATOM     15  C   UNL     1       2.413  -7.041  -0.051  0.00  0.00    +0.010 A 
ATOM     16  C   UNL     1       2.443  -8.419  -0.064  0.00  0.00    +0.016 A 
ATOM     17  C   UNL     1       3.655  -9.088  -0.080  0.00  0.00    +0.018 A 
ATOM     18  C   UNL     1       4.844  -8.379  -0.087  0.00  0.00    +0.016 A 
ATOM     19  C   UNL     1       4.828  -7.000  -0.080  0.00  0.00    +0.010 A 
ATOM     20  C   UNL     1       3.608  -6.319  -0.065  0.00  0.00    -0.005 A 
ATOM     21 BR   UNL     1       3.687 -10.979  -0.089  0.00  0.00    -0.050 Br
ENDBRANCH  13  20
ENDBRANCH   1  14
TORSDOF 4
