REMARK  Name = ZINC48564517
REMARK  2 active torsions:
REMARK  status: ('A' for Active; 'I' for Inactive)
REMARK    1  A    between atoms: C_6  and  N_7
REMARK    2  A    between atoms: C_8  and  C_10
REMARK                            x       y       z     vdW  Elec       q    Type
REMARK                         _______ _______ _______ _____ _____    ______ ____
ROOT
ATOM      1  C   UNL     1      -0.010   1.382   0.013  0.00  0.00    +0.027 A 
ATOM      2  C   UNL     1       1.176   2.089   0.012  0.00  0.00    +0.050 A 
ATOM      3  C   UNL     1       2.386   1.414   0.007  0.00  0.00    +0.157 A 
ATOM      4  C   UNL     1       2.403   0.018   0.002  0.00  0.00    +0.089 A 
ATOM      5  C   UNL     1       1.213  -0.690   0.003  0.00  0.00    +0.052 A 
ATOM      6  C   UNL     1       0.004  -0.008   0.009  0.00  0.00    +0.036 A 
ATOM      7  N   UNL     1       3.744  -0.364  -0.003  0.00  0.00    -0.288 N 
ATOM      8  H   UNL     1       4.081  -1.274  -0.007  0.00  0.00    +0.172 HD
ATOM      9  C   UNL     1       4.486   0.761  -0.001  0.00  0.00    +0.419 A 
ATOM     10  O   UNL     1       5.702   0.800  -0.004  0.00  0.00    -0.223 OA
ATOM     11  O   UNL     1       3.677   1.831   0.005  0.00  0.00    -0.408 OA
ENDROOT
BRANCH   6  12
ATOM     12  N   UNL     1      -1.201  -0.720   0.010  0.00  0.00    -0.281 N 
ATOM     13  C   UNL     1      -1.298  -1.883  -0.665  0.00  0.00    +0.256 C 
ATOM     14  O   UNL     1      -0.315  -2.356  -1.205  0.00  0.00    -0.269 OA
ATOM     15  H   UNL     1      -1.966  -0.377   0.497  0.00  0.00    +0.155 HD
BRANCH  13  16
ATOM     16  C   UNL     1      -2.585  -2.576  -0.748  0.00  0.00    +0.088 A 
ATOM     17  C   UNL     1      -2.895  -3.772  -1.380  0.00  0.00    +0.037 A 
ATOM     18  C   UNL     1      -4.206  -4.176  -1.283  0.00  0.00    +0.023 A 
ATOM     19  C   UNL     1      -5.084  -3.403  -0.597  0.00  0.00    +0.047 A 
ATOM     20  S   UNL     1      -4.160  -2.109  -0.056  0.00  0.00    -0.091 S 
ATOM     21 BR   UNL     1      -1.598  -4.782  -2.316  0.00  0.00    -0.049 Br
ENDBRANCH  13  16
ENDBRANCH   6  12
TORSDOF 2
