REMARK  Name = ZINC38755563
REMARK  6 active torsions:
REMARK  status: ('A' for Active; 'I' for Inactive)
REMARK    1  A    between atoms: C_1  and  C_2
REMARK    2  A    between atoms: C_3  and  C_26
REMARK    3  A    between atoms: C_9  and  C_13
REMARK    4  A    between atoms: C_13  and  C_14
REMARK    5  A    between atoms: C_18  and  C_25
REMARK    6  A    between atoms: C_21  and  C_24
REMARK                            x       y       z     vdW  Elec       q    Type
REMARK                         _______ _______ _______ _____ _____    ______ ____
ROOT
ATOM      1  C   UNL     1      -3.864  -5.603   0.858  0.00  0.00    +0.051 C 
ATOM      2  C   UNL     1      -2.384  -5.457   1.097  0.00  0.00    +0.035 A 
ATOM      3  C   UNL     1      -1.530  -6.468   0.762  0.00  0.00    +0.049 A 
ATOM      4  N   UNL     1      -0.229  -6.321   0.997  0.00  0.00    -0.228 NA
ATOM      5  C   UNL     1       0.254  -5.224   1.536  0.00  0.00    +0.172 A 
ATOM      6  N   UNL     1      -0.527  -4.153   1.868  0.00  0.00    -0.283 N 
ATOM      7  C   UNL     1      -1.873  -4.282   1.660  0.00  0.00    +0.258 A 
ATOM      8  O   UNL     1      -2.628  -3.375   1.969  0.00  0.00    -0.267 OA
ATOM      9  C   UNL     1       0.143  -2.958   2.393  0.00  0.00    +0.112 C 
ATOM     10  C   UNL     1       1.536  -3.283   2.981  0.00  0.00    +0.103 C 
ATOM     11  S   UNL     1       1.922  -4.783   1.983  0.00  0.00    -0.086 S 
ATOM     12  C   UNL     1      -2.054  -7.734   0.134  0.00  0.00    +0.066 C 
ENDROOT
BRANCH   9  13
ATOM     13  C   UNL     1      -0.726  -2.343   3.492  0.00  0.00    +0.122 C 
BRANCH  13  14
ATOM     14  C   UNL     1      -0.077  -1.081   3.999  0.00  0.00    +0.218 C 
ATOM     15  O   UNL     1       0.919  -0.651   3.457  0.00  0.00    -0.276 OA
ATOM     16  N   UNL     1      -0.603  -0.429   5.055  0.00  0.00    -0.301 N 
ATOM     17  C   UNL     1      -1.806  -0.940   5.726  0.00  0.00    +0.111 C 
ATOM     18  C   UNL     1      -1.514  -1.079   7.223  0.00  0.00    +0.004 C 
ATOM     19  C   UNL     1      -1.011   0.260   7.768  0.00  0.00    +0.009 C 
ATOM     20  C   UNL     1       0.287   0.647   7.056  0.00  0.00    +0.004 C 
ATOM     21  C   UNL     1       0.019   0.802   5.561  0.00  0.00    +0.111 C 
ATOM     22  C   UNL     1       0.807   1.969   7.624  0.00  0.00    +0.009 C 
ATOM     23  C   UNL     1      -0.444  -2.152   7.437  0.00  0.00    +0.009 C 
ENDBRANCH  13  14
ENDBRANCH   9  13
TORSDOF 2
