REMARK  Name = ZINC41654562
REMARK  3 active torsions:
REMARK  status: ('A' for Active; 'I' for Inactive)
REMARK    1  A    between atoms: C_4  and  C_8
REMARK    2  A    between atoms: N_20  and  C_23
REMARK    3  A    between atoms: C_23  and  C_24
REMARK                            x       y       z     vdW  Elec       q    Type
REMARK                         _______ _______ _______ _____ _____    ______ ____
ROOT
ATOM      1  C   UNL     1       3.691  -0.679  -0.038  0.00  0.00    +0.062 C 
ATOM      2  C   UNL     1       3.926  -1.674   0.854  0.00  0.00    +0.176 C 
ATOM      3  C   UNL     1       5.158  -2.470   0.963  0.00  0.00    +0.231 C 
ATOM      4  O   UNL     1       6.167  -2.381   0.285  0.00  0.00    -0.283 OA
ATOM      5  C   UNL     1       4.899  -3.401   2.077  0.00  0.00    +0.068 A 
ATOM      6  C   UNL     1       5.657  -4.406   2.678  0.00  0.00    +0.019 A 
ATOM      7  C   UNL     1       5.137  -5.119   3.719  0.00  0.00    +0.047 A 
ATOM      8  C   UNL     1       3.851  -4.848   4.186  0.00  0.00    +0.130 A 
ATOM      9  C   UNL     1       3.089  -3.853   3.600  0.00  0.00    +0.051 A 
ATOM     10  C   UNL     1       3.604  -3.117   2.537  0.00  0.00    +0.147 A 
ATOM     11  O   UNL     1       3.072  -2.110   1.810  0.00  0.00    -0.451 OA
ATOM     12  C   UNL     1       1.701  -3.545   4.100  0.00  0.00    +0.130 C 
ATOM     13  N   UNL     1       1.210  -4.667   4.912  0.00  0.00    -0.259 NA
ATOM     14  C   UNL     1       2.222  -5.053   5.909  0.00  0.00    +0.319 C 
ATOM     15  O   UNL     1       3.360  -5.579   5.222  0.00  0.00    -0.476 OA
ENDROOT
BRANCH   1  19
ATOM     16  C   UNL     1      -0.017   1.380   0.010  0.00  0.00    +0.004 A 
ATOM     17  C   UNL     1       1.167   2.097   0.002  0.00  0.00    +0.039 A 
ATOM     18  C   UNL     1       2.379   1.436  -0.013  0.00  0.00    +0.132 A 
ATOM     19  C   UNL     1       2.408   0.034  -0.021  0.00  0.00    +0.032 A 
ATOM     20  C   UNL     1       1.204  -0.683  -0.013  0.00  0.00    +0.051 A 
ATOM     21  C   UNL     1       0.002  -0.004   0.002  0.00  0.00    +0.021 A 
ATOM     22 CL   UNL     1       1.223  -2.418  -0.023  0.00  0.00    -0.083 Cl
ATOM     23  F   UNL     1       3.534   2.137  -0.022  0.00  0.00    -0.205 F 
ENDBRANCH   1  19
BRANCH  13  24
ATOM     24  C   UNL     1      -0.065  -4.329   5.560  0.00  0.00    +0.162 C 
BRANCH  24  25
ATOM     25  C   UNL     1      -0.658  -5.569   6.178  0.00  0.00    +0.119 A 
ATOM     26  C   UNL     1      -0.443  -6.003   7.433  0.00  0.00    +0.046 A 
ATOM     27  C   UNL     1      -1.190  -7.193   7.588  0.00  0.00    +0.041 A 
ATOM     28  C   UNL     1      -1.817  -7.416   6.419  0.00  0.00    +0.195 A 
ATOM     29  O   UNL     1      -1.496  -6.426   5.570  0.00  0.00    -0.467 OA
ENDBRANCH  24  25
ENDBRANCH  13  24
TORSDOF 3
