REMARK  Name = ZINC08889729
REMARK  7 active torsions:
REMARK  status: ('A' for Active; 'I' for Inactive)
REMARK    1  A    between atoms: C_1  and  C_2
REMARK    2  A    between atoms: C_2  and  C_21
REMARK    3  A    between atoms: N_5  and  C_9
REMARK    4  A    between atoms: C_9  and  C_10
REMARK    5  A    between atoms: N_12  and  C_13
REMARK    6  A    between atoms: C_24  and  O_27
REMARK    7  A    between atoms: O_27  and  C_28
REMARK                            x       y       z     vdW  Elec       q    Type
REMARK                         _______ _______ _______ _____ _____    ______ ____
ROOT
ATOM      1  C   UNL     1      -0.654   2.055   1.283  0.00  0.00    +0.047 C 
ATOM      2  C   UNL     1       0.014   1.526   0.012  0.00  0.00    +0.135 C 
ATOM      3  C   UNL     1       0.028   0.011   0.008  0.00  0.00    +0.251 C 
ATOM      4  O   UNL     1      -0.931  -0.731   0.022  0.00  0.00    -0.272 OA
ATOM      5  N   UNL     1       1.329  -0.341  -0.014  0.00  0.00    -0.215 N 
ATOM      6  C   UNL     1       2.130   0.730  -0.024  0.00  0.00    +0.310 C 
ATOM      7  O   UNL     1       3.344   0.666  -0.045  0.00  0.00    -0.252 OA
ATOM      8  N   UNL     1       1.442   1.886  -0.010  0.00  0.00    -0.281 N 
ATOM      9  H   UNL     1       1.814   2.782  -0.014  0.00  0.00    +0.152 HD
ENDROOT
BRANCH   2  10
ATOM     10  C   UNL     1      -0.685   2.054  -1.215  0.00  0.00    -0.015 A 
ATOM     11  C   UNL     1      -1.693   1.315  -1.806  0.00  0.00    +0.010 A 
ATOM     12  C   UNL     1      -2.339   1.798  -2.927  0.00  0.00    +0.046 A 
ATOM     13  C   UNL     1      -1.967   3.021  -3.467  0.00  0.00    +0.120 A 
ATOM     14  C   UNL     1      -0.951   3.758  -2.876  0.00  0.00    +0.046 A 
ATOM     15  C   UNL     1      -0.313   3.272  -1.751  0.00  0.00    +0.010 A 
BRANCH  13  16
ATOM     16  O   UNL     1      -2.596   3.496  -4.574  0.00  0.00    -0.495 OA
ATOM     17  C   UNL     1      -3.633   2.683  -5.130  0.00  0.00    +0.277 C 
ENDBRANCH  13  16
ENDBRANCH   2  10
BRANCH   5  18
ATOM     18  C   UNL     1       1.806  -1.726  -0.026  0.00  0.00    +0.214 C 
BRANCH  18  19
ATOM     19  C   UNL     1       1.947  -2.197  -1.451  0.00  0.00    +0.235 C 
ATOM     20  O   UNL     1       1.675  -1.449  -2.366  0.00  0.00    -0.274 OA
ATOM     21  N   UNL     1       2.375  -3.449  -1.708  0.00  0.00    -0.282 N 
ATOM     22  H   UNL     1       2.654  -4.025  -0.980  0.00  0.00    +0.155 HD
BRANCH  21  23
ATOM     23  C   UNL     1       2.417  -3.917  -3.028  0.00  0.00    +0.069 A 
ATOM     24  C   UNL     1       2.732  -3.049  -4.064  0.00  0.00    +0.027 A 
ATOM     25  C   UNL     1       2.779  -3.515  -5.364  0.00  0.00    +0.022 A 
ATOM     26  C   UNL     1       2.501  -4.843  -5.636  0.00  0.00    +0.044 A 
ATOM     27  C   UNL     1       2.181  -5.710  -4.606  0.00  0.00    +0.060 A 
ATOM     28  C   UNL     1       2.138  -5.251  -3.302  0.00  0.00    +0.146 A 
ATOM     29  F   UNL     1       1.825  -6.098  -2.297  0.00  0.00    -0.203 F 
ATOM     30 CL   UNL     1       2.554  -5.422  -7.271  0.00  0.00    -0.083 Cl
ENDBRANCH  21  23
ENDBRANCH  18  19
ENDBRANCH   5  18
TORSDOF 5
