REMARK  Name = ZINC65183013
REMARK  9 active torsions:
REMARK  status: ('A' for Active; 'I' for Inactive)
REMARK    1  A    between atoms: C_1  and  N_2
REMARK    2  A    between atoms: N_2  and  C_3
REMARK    3  A    between atoms: N_2  and  C_4
REMARK    4  A    between atoms: C_7  and  C_10
REMARK    5  A    between atoms: N_12  and  C_13
REMARK    6  A    between atoms: N_12  and  C_14
REMARK    7  A    between atoms: C_14  and  C_15
REMARK    8  A    between atoms: C_15  and  C_16
REMARK    9  A    between atoms: C_19  and  C_22
REMARK                            x       y       z     vdW  Elec       q    Type
REMARK                         _______ _______ _______ _____ _____    ______ ____
ROOT
ATOM      1  C   UNL     1      -2.259  -3.877  -8.615  0.00  0.00    +0.139 C 
ATOM      2  N   UNL     1      -1.385  -4.233  -9.485  0.00  0.00    -0.072 NA
ATOM      3  O   UNL     1      -1.992  -4.925 -10.561  0.00  0.00    -0.367 OA
ATOM      4  C   UNL     1      -3.397  -4.972 -10.269  0.00  0.00    +0.318 C 
ATOM      5  N   UNL     1      -3.524  -4.276  -8.978  0.00  0.00    -0.291 N 
ATOM      6  H   UNL     1      -4.343  -4.126  -8.480  0.00  0.00    +0.151 HD
ENDROOT
BRANCH   4   7
ATOM      7  C   UNL     1      -4.194  -4.248 -11.356  0.00  0.00    +0.165 C 
ATOM      8  C   UNL     1      -5.675  -4.323 -11.054  0.00  0.00    +0.012 C 
ATOM      9  C   UNL     1      -6.237  -4.978 -12.095  0.00  0.00    -0.002 A 
ATOM     10  C   UNL     1      -7.620  -5.365 -12.396  0.00  0.00    +0.029 A 
ATOM     11  C   UNL     1      -7.880  -6.030 -13.546  0.00  0.00    +0.042 A 
ATOM     12  C   UNL     1      -6.863  -6.359 -14.454  0.00  0.00    +0.022 A 
ATOM     13  C   UNL     1      -5.569  -6.037 -14.246  0.00  0.00    +0.027 A 
ATOM     14  C   UNL     1      -5.182  -5.337 -13.070  0.00  0.00    +0.043 A 
ATOM     15  N   UNL     1      -4.011  -4.919 -12.648  0.00  0.00    -0.373 N 
ATOM     16 CL   UNL     1      -9.516  -6.489 -13.906  0.00  0.00    -0.084 Cl
ATOM     17  H   UNL     1      -3.167  -5.034 -13.112  0.00  0.00    +0.160 HD
ENDBRANCH   4   7
BRANCH   1  18
ATOM     18  C   UNL     1      -1.939  -3.123  -7.350  0.00  0.00    +0.094 C 
BRANCH  18  19
ATOM     19  C   UNL     1      -0.434  -2.854  -7.285  0.00  0.00    +0.115 C 
BRANCH  19  22
ATOM     20  C   UNL     1       0.178  -2.794  -4.927  0.00  0.00    +0.246 C 
ATOM     21  O   UNL     1       0.277  -4.006  -4.950  0.00  0.00    -0.270 OA
ATOM     22  N   UNL     1      -0.122  -2.121  -6.055  0.00  0.00    -0.300 N 
ATOM     23  C   UNL     1      -0.137  -0.656  -6.052  0.00  0.00    +0.132 C 
BRANCH  20  27
ATOM     24  C   UNL     1       0.778  -0.684  -1.292  0.00  0.00    +0.029 A 
ATOM     25  C   UNL     1       1.264  -0.160  -2.487  0.00  0.00    +0.024 A 
ATOM     26  C   UNL     1       1.071  -0.842  -3.667  0.00  0.00    +0.015 A 
ATOM     27  C   UNL     1       0.387  -2.061  -3.664  0.00  0.00    +0.037 A 
ATOM     28  C   UNL     1      -0.100  -2.584  -2.462  0.00  0.00    +0.015 A 
ATOM     29  C   UNL     1       0.101  -1.900  -1.285  0.00  0.00    +0.024 A 
BRANCH  24  31
ATOM     30  C   UNL     1       0.469  -0.545   1.158  0.00  0.00    +0.129 C 
ATOM     31  N   UNL     1       0.974   0.007  -0.101  0.00  0.00    -0.336 N 
ATOM     32  C   UNL     1       1.686   1.288  -0.106  0.00  0.00    +0.129 C 
ENDBRANCH  24  31
ENDBRANCH  20  27
ENDBRANCH  19  22
ENDBRANCH  18  19
ENDBRANCH   1  18
TORSDOF 6
