REMARK  Name = ZINC46321334
REMARK  9 active torsions:
REMARK  status: ('A' for Active; 'I' for Inactive)
REMARK    1  A    between atoms: C_1  and  C_2
REMARK    2  A    between atoms: C_2  and  C_4
REMARK    3  A    between atoms: C_2  and  N_22
REMARK    4  A    between atoms: C_11  and  C_13
REMARK    5  A    between atoms: C_23  and  O_25
REMARK    6  A    between atoms: O_25  and  C_26
REMARK    7  A    between atoms: C_26  and  C_27
REMARK    8  A    between atoms: C_26  and  C_28
REMARK    9  A    between atoms: C_26  and  C_29
REMARK                            x       y       z     vdW  Elec       q    Type
REMARK                         _______ _______ _______ _____ _____    ______ ____
ROOT
ATOM      1  C   UNL     1      -1.782   0.192   0.545  0.00  0.00    +0.236 C 
ATOM      2  O   UNL     1      -2.090  -0.498   1.494  0.00  0.00    -0.274 OA
ATOM      3  N   UNL     1      -2.496   0.126  -0.596  0.00  0.00    -0.291 N 
ATOM      4  C   UNL     1      -2.072   0.873  -1.788  0.00  0.00    +0.108 C 
ATOM      5  C   UNL     1      -1.969  -0.098  -2.968  0.00  0.00    +0.019 C 
ATOM      6  C   UNL     1      -3.297  -0.840  -3.131  0.00  0.00    +0.004 C 
ATOM      7  C   UNL     1      -3.590  -1.648  -1.864  0.00  0.00    +0.029 C 
ATOM      8  C   UNL     1      -3.709  -0.699  -0.673  0.00  0.00    +0.132 C 
ENDROOT
BRANCH   8   9
ATOM      9  C   UNL     1      -3.857  -1.500   0.595  0.00  0.00    +0.100 A 
ATOM     10  N   UNL     1      -3.141  -2.513   0.987  0.00  0.00    -0.242 NA
ATOM     11  C   UNL     1      -3.375  -3.150   2.153  0.00  0.00    +0.079 A 
ATOM     12  C   UNL     1      -2.710  -4.251   2.732  0.00  0.00    +0.029 A 
ATOM     13  C   UNL     1      -3.112  -4.748   3.934  0.00  0.00    +0.002 A 
ATOM     14  C   UNL     1      -4.179  -4.196   4.629  0.00  0.00    +0.001 A 
ATOM     15  C   UNL     1      -4.855  -3.116   4.094  0.00  0.00    +0.017 A 
ATOM     16  C   UNL     1      -4.458  -2.607   2.881  0.00  0.00    +0.039 A 
ATOM     17  S   UNL     1      -4.983  -1.281   1.827  0.00  0.00    -0.070 S 
ENDBRANCH   8   9
BRANCH   1  19
ATOM     18  C   UNL     1      -1.095   2.554   0.855  0.00  0.00    +0.038 C 
ATOM     19  C   UNL     1      -0.600   1.122   0.643  0.00  0.00    +0.159 C 
BRANCH  19  20
ATOM     20  N   UNL     1       0.243   0.724   1.772  0.00  0.00    -0.270 N 
ATOM     21  C   UNL     1       1.554   1.039   1.779  0.00  0.00    +0.401 C 
ATOM     22  O   UNL     1       2.036   1.652   0.847  0.00  0.00    -0.226 OA
ATOM     23  H   UNL     1      -0.142   0.234   2.516  0.00  0.00    +0.153 HD
BRANCH  21  24
ATOM     24  O   UNL     1       2.329   0.673   2.817  0.00  0.00    -0.445 OA
BRANCH  24  25
ATOM     25  C   UNL     1       3.708   1.039   2.757  0.00  0.00    +0.107 C 
ATOM     26  C   UNL     1       3.829   2.562   2.671  0.00  0.00    +0.055 C 
ATOM     27  C   UNL     1       4.423   0.542   4.015  0.00  0.00    +0.055 C 
ATOM     28  C   UNL     1       4.351   0.406   1.521  0.00  0.00    +0.055 C 
ENDBRANCH  24  25
ENDBRANCH  21  24
ENDBRANCH  19  20
ENDBRANCH   1  19
TORSDOF 5
