REMARK  Name = ZINC26362645
REMARK  5 active torsions:
REMARK  status: ('A' for Active; 'I' for Inactive)
REMARK    1  A    between atoms: C_5  and  C_7
REMARK    2  A    between atoms: C_7  and  N_8
REMARK    3  A    between atoms: N_13  and  C_14
REMARK    4  A    between atoms: C_14  and  C_16
REMARK    5  A    between atoms: N_18  and  C_23
REMARK                            x       y       z     vdW  Elec       q    Type
REMARK                         _______ _______ _______ _____ _____    ______ ____
ROOT
ATOM      1  C   UNL     1      -1.718  -3.084   2.945  0.00  0.00    +0.285 C 
ATOM      2  O   UNL     1      -1.317  -3.486   4.025  0.00  0.00    -0.267 OA
ENDROOT
BRANCH   1   3
ATOM      3  C   UNL     1      -3.162  -2.926   2.710  0.00  0.00    +0.123 C 
ATOM      4  N   UNL     1      -3.579  -2.503   1.558  0.00  0.00    -0.177 NA
ATOM      5  N   UNL     1      -4.944  -2.339   1.299  0.00  0.00    -0.188 N 
ATOM      6  C   UNL     1      -5.824  -2.240   2.314  0.00  0.00    +0.235 C 
ATOM      7  O   UNL     1      -7.005  -2.092   2.083  0.00  0.00    -0.274 OA
ATOM      8  C   UNL     1      -5.335  -2.313   3.738  0.00  0.00    +0.104 C 
ATOM      9  C   UNL     1      -4.135  -3.265   3.808  0.00  0.00    +0.072 C 
BRANCH   5  10
ATOM     10  C   UNL     1      -5.418  -2.274  -0.086  0.00  0.00    +0.124 C 
ATOM     11  C   UNL     1      -5.026  -3.562  -0.830  0.00  0.00    +0.049 C 
ATOM     12  C   UNL     1      -5.233  -3.375  -2.353  0.00  0.00    +0.168 C 
ATOM     13  S   UNL     1      -5.000  -1.563  -2.572  0.00  0.00    -0.029 S 
ATOM     14  O   UNL     1      -3.795  -1.336  -3.290  0.00  0.00    -0.174 OA
ATOM     15  O   UNL     1      -6.214  -0.996  -3.046  0.00  0.00    -0.174 OA
ATOM     16  C   UNL     1      -4.753  -1.072  -0.814  0.00  0.00    +0.190 C 
ENDBRANCH   5  10
ENDBRANCH   1   3
BRANCH   1  22
ATOM     17  N   UNL     1       1.489  -2.679   1.333  0.00  0.00    -0.324 N 
ATOM     18  C   UNL     1       2.762  -2.889   1.760  0.00  0.00    +0.095 A 
ATOM     19  C   UNL     1       2.924  -3.340   3.010  0.00  0.00    +0.066 A 
ATOM     20  S   UNL     1       1.239  -3.464   3.580  0.00  0.00    -0.061 S 
ATOM     21  C   UNL     1       0.460  -2.929   2.189  0.00  0.00    +0.166 A 
ATOM     22  N   UNL     1      -0.847  -2.786   1.976  0.00  0.00    -0.151 NA
BRANCH  17  23
ATOM     23  C   UNL     1       1.229  -2.186  -0.022  0.00  0.00    +0.160 C 
BRANCH  23  28
ATOM     24  C   UNL     1      -0.017   1.378   0.010  0.00  0.00    +0.000 A 
ATOM     25  C   UNL     1       1.171   2.086   0.002  0.00  0.00    +0.001 A 
ATOM     26  C   UNL     1       2.377   1.412  -0.013  0.00  0.00    +0.020 A 
ATOM     27  C   UNL     1       2.397   0.029  -0.021  0.00  0.00    +0.046 A 
ATOM     28  C   UNL     1       1.208  -0.679  -0.013  0.00  0.00    -0.009 A 
ATOM     29  C   UNL     1       0.002  -0.004   0.002  0.00  0.00    +0.007 A 
ATOM     30 CL   UNL     1       3.912  -0.818  -0.041  0.00  0.00    -0.083 Cl
ENDBRANCH  23  28
ENDBRANCH  17  23
ENDBRANCH   1  22
TORSDOF 5
