REMARK  Name = ZINC50227538
REMARK  4 active torsions:
REMARK  status: ('A' for Active; 'I' for Inactive)
REMARK    1  A    between atoms: C_1  and  C_2
REMARK    2  A    between atoms: C_6  and  C_7
REMARK    3  A    between atoms: C_12  and  S_17
REMARK    4  A    between atoms: S_17  and  C_20
REMARK                            x       y       z     vdW  Elec       q    Type
REMARK                         _______ _______ _______ _____ _____    ______ ____
ROOT
ATOM      1  C   UNL     1       0.031  -0.391   2.497  0.00  0.00    +0.175 A 
ATOM      2  N   UNL     1       0.058  -1.231   3.581  0.00  0.00    -0.335 N 
ATOM      3  H   UNL     1       0.075  -2.200   3.558  0.00  0.00    +0.167 HD
ATOM      4  C   UNL     1       0.056  -0.437   4.712  0.00  0.00    +0.068 A 
ATOM      5  C   UNL     1       0.076  -0.702   6.074  0.00  0.00    +0.054 A 
ATOM      6  C   UNL     1       0.067   0.343   6.974  0.00  0.00    +0.090 A 
ATOM      7  C   UNL     1       0.038   1.656   6.527  0.00  0.00    +0.029 A 
ATOM      8  C   UNL     1       0.018   1.938   5.191  0.00  0.00    +0.032 A 
ATOM      9  C   UNL     1       0.027   0.894   4.259  0.00  0.00    +0.090 A 
ATOM     10  N   UNL     1       0.018   0.857   2.904  0.00  0.00    -0.225 NA
ENDROOT
BRANCH   1  16
ATOM     11  C   UNL     1      -0.018   1.503   0.010  0.00  0.00    +0.048 C 
ATOM     12  C   UNL     1       0.002  -0.004   0.002  0.00  0.00    -0.002 A 
ATOM     13  C   UNL     1       0.009  -0.837  -1.131  0.00  0.00    +0.045 A 
ATOM     14  C   UNL     1       0.028  -2.111  -0.687  0.00  0.00    +0.196 A 
ATOM     15  O   UNL     1       0.034  -2.099   0.655  0.00  0.00    -0.460 OA
ATOM     16  C   UNL     1       0.024  -0.823   1.091  0.00  0.00    +0.173 A 
ENDBRANCH   1  16
BRANCH   6  17
ATOM     17  S   UNL     1       0.091   0.008   8.704  0.00  0.00    -0.006 S 
ATOM     18  O   UNL     1      -0.526   1.139   9.302  0.00  0.00    -0.170 OA
ATOM     19  O   UNL     1      -0.487  -1.284   8.831  0.00  0.00    -0.170 OA
ATOM     20  C   UNL     1       1.851  -0.049   9.143  0.00  0.00    +0.200 C 
ENDBRANCH   6  17
TORSDOF 2
