REMARK  Name = ZINC05956201
REMARK  11 active torsions:
REMARK  status: ('A' for Active; 'I' for Inactive)
REMARK    1  A    between atoms: C_1  and  C_2
REMARK    2  A    between atoms: C_3  and  C_37
REMARK    3  A    between atoms: C_4  and  C_27
REMARK    4  A    between atoms: C_5  and  C_25
REMARK    5  A    between atoms: N_8  and  C_9
REMARK    6  A    between atoms: C_11  and  O_24
REMARK    7  A    between atoms: C_13  and  O_23
REMARK    8  A    between atoms: C_15  and  O_22
REMARK    9  A    between atoms: C_17  and  C_20
REMARK   10  A    between atoms: C_20  and  O_21
REMARK   11  A    between atoms: C_37  and  C_39
REMARK                            x       y       z     vdW  Elec       q    Type
REMARK                         _______ _______ _______ _____ _____    ______ ____
ROOT
ATOM      1  C   UNL     1       3.462  -0.689  -0.232  0.00  0.00    +0.064 C 
ATOM      2  C   UNL     1       2.086  -0.094  -0.389  0.00  0.00    +0.030 A 
ATOM      3  C   UNL     1       1.942   1.282  -0.451  0.00  0.00    +0.045 A 
ATOM      4  C   UNL     1       0.593   1.847  -0.604  0.00  0.00    +0.015 A 
ATOM      5  C   UNL     1      -0.488   0.954  -0.681  0.00  0.00    +0.091 A 
ATOM      6  C   UNL     1      -0.231  -0.437  -0.608  0.00  0.00    +0.107 A 
ATOM      7  S   UNL     1      -1.538  -1.540  -0.700  0.00  0.00    -0.031 S 
ATOM      8  N   UNL     1       1.019  -0.905  -0.467  0.00  0.00    -0.309 N 
ENDROOT
BRANCH   4   9
ATOM      9  C   UNL     1       0.383   3.303  -0.676  0.00  0.00    -0.008 A 
ATOM     10  C   UNL     1       0.251   4.059   0.483  0.00  0.00    +0.009 A 
ATOM     11  C   UNL     1       0.057   5.431   0.413  0.00  0.00    +0.001 A 
ATOM     12  C   UNL     1      -0.021   6.085  -0.779  0.00  0.00    +0.008 A 
ATOM     13  C   UNL     1       0.098   5.384  -1.991  0.00  0.00    -0.017 A 
ATOM     14  C   UNL     1       0.302   3.983  -1.967  0.00  0.00    -0.010 A 
ATOM     15  C   UNL     1       0.421   3.280  -3.172  0.00  0.00    +0.009 A 
ATOM     16  C   UNL     1       0.340   3.953  -4.355  0.00  0.00    +0.001 A 
ATOM     17  C   UNL     1       0.140   5.332  -4.382  0.00  0.00    +0.001 A 
ATOM     18  C   UNL     1       0.019   6.045  -3.229  0.00  0.00    +0.008 A 
ENDBRANCH   4   9
BRANCH   8  19
ATOM     19  C   UNL     1       1.227  -2.354  -0.397  0.00  0.00    +0.252 C 
ATOM     20  C   UNL     1       2.673  -2.643   0.015  0.00  0.00    +0.195 C 
ATOM     21  C   UNL     1       2.921  -2.069   1.414  0.00  0.00    +0.178 C 
ATOM     22  C   UNL     1       1.906  -2.674   2.389  0.00  0.00    +0.177 C 
ATOM     23  C   UNL     1       0.490  -2.384   1.885  0.00  0.00    +0.177 C 
ATOM     24  O   UNL     1       0.336  -2.917   0.568  0.00  0.00    -0.346 OA
BRANCH  22  25
ATOM     25  O   UNL     1       2.104  -4.087   2.470  0.00  0.00    -0.386 OA
ATOM     26  H   UNL     1       2.982  -4.344   2.784  0.00  0.00    +0.210 HD
ENDBRANCH  22  25
BRANCH  21  27
ATOM     27  O   UNL     1       4.246  -2.396   1.838  0.00  0.00    -0.386 OA
ATOM     28  H   UNL     1       4.468  -2.068   2.720  0.00  0.00    +0.210 HD
ENDBRANCH  21  27
BRANCH  20  29
ATOM     29  O   UNL     1       3.566  -2.031  -0.917  0.00  0.00    -0.385 OA
ATOM     30  H   UNL     1       4.473  -2.364  -0.869  0.00  0.00    +0.210 HD
ENDBRANCH  20  29
BRANCH  23  31
ATOM     31  C   UNL     1      -0.529  -3.036   2.822  0.00  0.00    +0.190 C 
BRANCH  31  32
ATOM     32  O   UNL     1      -1.850  -2.670   2.418  0.00  0.00    -0.392 OA
ATOM     33  H   UNL     1      -2.548  -3.049   2.969  0.00  0.00    +0.210 HD
ENDBRANCH  31  32
ENDBRANCH  23  31
ENDBRANCH   8  19
BRANCH   3  34
ATOM     34  C   UNL     1       3.112   2.159  -0.364  0.00  0.00    +0.162 C 
ATOM     35  O   UNL     1       3.751   2.417  -1.363  0.00  0.00    -0.292 OA
ATOM     36  C   UNL     1       3.521   2.741   0.964  0.00  0.00    +0.091 C 
ENDBRANCH   3  34
BRANCH   5  37
ATOM     37  C   UNL     1      -1.825   1.441  -0.837  0.00  0.00    +0.102 C 
ATOM     38  N   UNL     1      -2.886   1.828  -0.961  0.00  0.00    -0.191 NA
ENDBRANCH   5  37
TORSDOF 9
