REMARK  Name = ZINC17043638
REMARK  4 active torsions:
REMARK  status: ('A' for Active; 'I' for Inactive)
REMARK    1  A    between atoms: C_1  and  C_2
REMARK    2  A    between atoms: C_2  and  C_4
REMARK    3  A    between atoms: C_2  and  N_15
REMARK    4  A    between atoms: N_6  and  C_7
REMARK                            x       y       z     vdW  Elec       q    Type
REMARK                         _______ _______ _______ _____ _____    ______ ____
ROOT
ATOM      1  C   UNL     1       0.355  -2.666   1.236  0.00  0.00    +0.041 C 
ATOM      2  C   UNL     1       1.077  -2.180  -0.023  0.00  0.00    +0.178 C 
ENDROOT
BRANCH   2   3
ATOM      3  N   UNL     1       1.142  -0.716  -0.014  0.00  0.00    -0.249 N 
ATOM      4  C   UNL     1       2.348  -0.107  -0.029  0.00  0.00    +0.265 A 
ATOM      5  O   UNL     1       3.375  -0.757  -0.050  0.00  0.00    -0.267 OA
ATOM      6  C   UNL     1       2.385   1.367  -0.019  0.00  0.00    +0.063 A 
ATOM      7  C   UNL     1       3.588   2.069  -0.035  0.00  0.00    +0.015 A 
ATOM      8  C   UNL     1       3.569   3.448  -0.025  0.00  0.00    +0.001 A 
ATOM      9  C   UNL     1       2.364   4.134  -0.001  0.00  0.00    +0.002 A 
ATOM     10  C   UNL     1       1.165   3.449   0.015  0.00  0.00    +0.026 A 
ATOM     11  C   UNL     1       1.164   2.063   0.006  0.00  0.00    +0.056 A 
ATOM     12  N   UNL     1      -0.018   1.337   0.020  0.00  0.00    -0.307 N 
ATOM     13  H   UNL     1      -0.985   1.861   0.040  0.00  0.00    +0.170 HD
ATOM     14  C   UNL     1       0.003  -0.007   0.010  0.00  0.00    +0.330 A 
ATOM     15  O   UNL     1      -1.055  -0.606   0.023  0.00  0.00    -0.246 OA
ENDBRANCH   2   3
BRANCH   2  16
ATOM     16  C   UNL     1       0.325  -2.642  -1.244  0.00  0.00    +0.240 C 
ATOM     17  O   UNL     1      -0.114  -1.829  -2.030  0.00  0.00    -0.273 OA
ATOM     18  N   UNL     1       0.140  -3.959  -1.463  0.00  0.00    -0.284 N 
ATOM     19  H   UNL     1       0.602  -4.698  -0.793  0.00  0.00    +0.155 HD
BRANCH  18  20
ATOM     20  C   UNL     1      -0.641  -4.385  -2.543  0.00  0.00    +0.036 A 
ATOM     21  C   UNL     1      -1.426  -5.524  -2.427  0.00  0.00    +0.043 A 
ATOM     22  C   UNL     1      -2.200  -5.941  -3.494  0.00  0.00    +0.044 A 
ATOM     23  C   UNL     1      -2.184  -5.229  -4.681  0.00  0.00    +0.040 A 
ATOM     24  C   UNL     1      -1.398  -4.097  -4.801  0.00  0.00    +0.044 A 
ATOM     25  C   UNL     1      -0.627  -3.673  -3.735  0.00  0.00    +0.043 A 
ATOM     26 CL   UNL     1      -1.381  -3.207  -6.292  0.00  0.00    -0.083 Cl
ATOM     27 CL   UNL     1      -3.188  -7.361  -3.348  0.00  0.00    -0.083 Cl
ENDBRANCH  18  20
ENDBRANCH   2  16
TORSDOF 3
