REMARK  Name = ZINC12777543
REMARK  4 active torsions:
REMARK  status: ('A' for Active; 'I' for Inactive)
REMARK    1  A    between atoms: C_4  and  C_7
REMARK    2  A    between atoms: C_13  and  C_15
REMARK    3  A    between atoms: C_16  and  C_17
REMARK    4  A    between atoms: C_20  and  N_23
REMARK                            x       y       z     vdW  Elec       q    Type
REMARK                         _______ _______ _______ _____ _____    ______ ____
ROOT
ATOM      1  C   UNL     1      -4.379   5.356  -1.478  0.00  0.00    -0.041 C 
ATOM      2  C   UNL     1      -4.613   4.189  -0.927  0.00  0.00    -0.004 C 
ATOM      3  C   UNL     1      -3.671   3.526   0.032  0.00  0.00    +0.135 C 
ATOM      4  N   UNL     1      -2.390   4.248   0.036  0.00  0.00    -0.294 N 
ATOM      5  C   UNL     1      -2.445   5.720   0.045  0.00  0.00    +0.113 C 
ATOM      6  C   UNL     1      -3.145   6.174  -1.239  0.00  0.00    +0.054 C 
ATOM      7  C   UNL     1      -1.214   3.590   0.027  0.00  0.00    +0.240 C 
ATOM      8  O   UNL     1      -0.169   4.213   0.026  0.00  0.00    -0.271 OA
ENDROOT
BRANCH   1  12
ATOM      9  C   UNL     1      -7.313   6.924  -4.119  0.00  0.00    +0.000 A 
ATOM     10  C   UNL     1      -7.614   6.751  -2.780  0.00  0.00    +0.001 A 
ATOM     11  C   UNL     1      -6.665   6.242  -1.917  0.00  0.00    +0.008 A 
ATOM     12  C   UNL     1      -5.401   5.901  -2.397  0.00  0.00    -0.022 A 
ATOM     13  C   UNL     1      -5.102   6.082  -3.748  0.00  0.00    +0.008 A 
ATOM     14  C   UNL     1      -6.061   6.588  -4.602  0.00  0.00    +0.001 A 
ENDBRANCH   1  12
BRANCH   7  15
ATOM     15  C   UNL     1      -1.194   2.126   0.019  0.00  0.00    +0.068 C 
ATOM     16  C   UNL     1      -0.018   1.468   0.010  0.00  0.00    +0.013 C 
BRANCH  16  17
ATOM     17  C   UNL     1       0.002  -0.004   0.002  0.00  0.00    -0.025 A 
ATOM     18  C   UNL     1      -1.197  -0.723   0.015  0.00  0.00    +0.010 A 
ATOM     19  C   UNL     1      -1.170  -2.102   0.002  0.00  0.00    +0.033 A 
ATOM     20  C   UNL     1       0.040  -2.774  -0.013  0.00  0.00    +0.126 A 
ATOM     21  C   UNL     1       1.231  -2.069  -0.021  0.00  0.00    +0.033 A 
ATOM     22  C   UNL     1       1.220  -0.690  -0.013  0.00  0.00    +0.010 A 
BRANCH  20  23
ATOM     23  N   UNL     1       0.060  -4.254  -0.021  0.00  0.00    +0.056 N 
ATOM     24  O   UNL     1       1.123  -4.848  -0.034  0.00  0.00    -0.126 OA
ATOM     25  O   UNL     1      -0.987  -4.877  -0.014  0.00  0.00    -0.126 OA
ENDBRANCH  20  23
ENDBRANCH  16  17
ENDBRANCH   7  15
TORSDOF 4
