REMARK  Name = ZINC39354457
REMARK  6 active torsions:
REMARK  status: ('A' for Active; 'I' for Inactive)
REMARK    1  A    between atoms: C_1  and  C_2
REMARK    2  A    between atoms: N_6  and  C_9
REMARK    3  A    between atoms: C_9  and  C_10
REMARK    4  A    between atoms: C_10  and  N_11
REMARK    5  A    between atoms: N_11  and  C_12
REMARK    6  A    between atoms: C_23  and  C_24
REMARK                            x       y       z     vdW  Elec       q    Type
REMARK                         _______ _______ _______ _____ _____    ______ ____
ROOT
ATOM      1  C   UNL     1      -0.018   1.503   0.010  0.00  0.00    +0.046 C 
ATOM      2  C   UNL     1       0.002  -0.004   0.002  0.00  0.00    -0.022 C 
ATOM      3  C   UNL     1      -1.075  -0.788   0.003  0.00  0.00    +0.013 C 
ATOM      4  C   UNL     1      -2.494  -0.586   0.259  0.00  0.00    +0.095 A 
ATOM      5  C   UNL     1      -3.151  -1.655   0.923  0.00  0.00    +0.069 A 
ATOM      6  N   UNL     1      -4.446  -1.280   1.031  0.00  0.00    -0.332 N 
ATOM      7  C   UNL     1      -4.558  -0.036   0.479  0.00  0.00    +0.200 A 
ATOM      8  N   UNL     1      -3.392   0.357   0.031  0.00  0.00    -0.235 NA
ATOM      9  C   UNL     1      -2.401  -2.835   1.358  0.00  0.00    +0.026 C 
ATOM     10  C   UNL     1      -1.184  -3.091   0.854  0.00  0.00    +0.006 C 
ATOM     11  C   UNL     1      -0.556  -2.213  -0.183  0.00  0.00    +0.161 C 
ATOM     12  N   UNL     1       0.890  -2.076  -0.079  0.00  0.00    -0.276 NA
ATOM     13  C   UNL     1       1.168  -0.805  -0.014  0.00  0.00    +0.037 C 
ATOM     14  C   UNL     1       2.568  -0.252   0.043  0.00  0.00    +0.065 C 
ENDROOT
BRANCH   6  15
ATOM     15  C   UNL     1      -5.529  -2.064   1.630  0.00  0.00    +0.104 C 
BRANCH  15  16
ATOM     16  C   UNL     1      -5.546  -1.837   3.143  0.00  0.00    -0.060 C 
BRANCH  16  17
ATOM     17  N   UNL     1      -6.633  -2.623   3.743  0.00  0.00    +0.382 N 
ATOM     18  H   UNL     1      -7.515  -2.333   3.349  0.00  0.00    -0.085 HD
ATOM     19  H   UNL     1      -6.484  -3.603   3.551  0.00  0.00    -0.085 HD
BRANCH  17  20
ATOM     20  C   UNL     1      -6.650  -2.405   5.196  0.00  0.00    -0.072 C 
ATOM     21  C   UNL     1      -5.362  -2.959   5.809  0.00  0.00    -0.016 C 
ATOM     22  C   UNL     1      -5.380  -2.732   7.322  0.00  0.00    -0.002 C 
ATOM     23  C   UNL     1      -6.585  -3.451   7.932  0.00  0.00    -0.000 C 
ATOM     24  C   UNL     1      -7.873  -2.897   7.318  0.00  0.00    -0.002 C 
ATOM     25  C   UNL     1      -7.855  -3.124   5.805  0.00  0.00    -0.016 C 
ENDBRANCH  17  20
ENDBRANCH  16  17
ENDBRANCH  15  16
ENDBRANCH   6  15
TORSDOF 4
