REMARK  Name = ZINC37364849
REMARK  5 active torsions:
REMARK  status: ('A' for Active; 'I' for Inactive)
REMARK    1  A    between atoms: C_1  and  C_2
REMARK    2  A    between atoms: C_2  and  C_3
REMARK    3  A    between atoms: C_2  and  C_4
REMARK    4  A    between atoms: C_2  and  C_5
REMARK    5  A    between atoms: C_5  and  C_7
REMARK                            x       y       z     vdW  Elec       q    Type
REMARK                         _______ _______ _______ _____ _____    ______ ____
ROOT
ATOM      1  C   UNL     1       0.705  -1.888  -1.477  0.00  0.00    +0.040 A 
ATOM      2  C   UNL     1       0.141  -2.796  -0.570  0.00  0.00    +0.060 A 
ATOM      3  C   UNL     1       0.156  -4.144  -0.853  0.00  0.00    +0.143 A 
ATOM      4  C   UNL     1       0.732  -4.604  -2.041  0.00  0.00    +0.077 A 
ATOM      5  C   UNL     1       1.291  -3.707  -2.941  0.00  0.00    +0.047 A 
ATOM      6  C   UNL     1       1.276  -2.356  -2.669  0.00  0.00    +0.053 A 
ATOM      7 CL   UNL     1       1.969  -1.234  -3.798  0.00  0.00    -0.083 Cl
ATOM      8  N   UNL     1       0.739  -5.974  -2.309  0.00  0.00    -0.280 N 
ATOM      9  C   UNL     1      -0.071  -6.787  -1.597  0.00  0.00    +0.255 C 
ATOM     10  O   UNL     1      -0.058  -7.984  -1.794  0.00  0.00    -0.272 OA
ATOM     11  C   UNL     1      -0.990  -6.203  -0.555  0.00  0.00    +0.325 C 
ATOM     12  O   UNL     1      -0.389  -5.038   0.016  0.00  0.00    -0.481 OA
ATOM     13  H   UNL     1       1.317  -6.338  -2.998  0.00  0.00    +0.155 HD
ENDROOT
BRANCH   1  14
ATOM     14  C   UNL     1       0.693  -0.450  -1.182  0.00  0.00    +0.170 C 
ATOM     15  O   UNL     1       1.273   0.324  -1.915  0.00  0.00    -0.291 OA
BRANCH  14  17
ATOM     16  C   UNL     1       0.004   1.594   0.041  0.00  0.00    +0.019 C 
ATOM     17  C   UNL     1      -0.039   0.065   0.030  0.00  0.00    +0.025 C 
ATOM     18  C   UNL     1       0.629  -0.474   1.296  0.00  0.00    +0.019 C 
ATOM     19  C   UNL     1      -1.495  -0.404  -0.017  0.00  0.00    +0.019 C 
ENDBRANCH  14  17
ENDBRANCH   1  14
TORSDOF 2
