REMARK  Name = ZINC48903052
REMARK  6 active torsions:
REMARK  status: ('A' for Active; 'I' for Inactive)
REMARK    1  A    between atoms: C_1  and  C_2
REMARK    2  A    between atoms: C_4  and  C_19
REMARK    3  A    between atoms: C_5  and  C_18
REMARK    4  A    between atoms: C_6  and  O_8
REMARK    5  A    between atoms: O_8  and  S_9
REMARK    6  A    between atoms: S_9  and  C_12
REMARK                            x       y       z     vdW  Elec       q    Type
REMARK                         _______ _______ _______ _____ _____    ______ ____
ROOT
ATOM      1  O   UNL     1       0.050  -2.776   2.358  0.00  0.00    -0.342 OA
ENDROOT
BRANCH   1   7
ATOM      2  C   UNL     1      -0.018   1.503   0.010  0.00  0.00    +0.044 C 
ATOM      3  C   UNL     1       0.002  -0.004   0.002  0.00  0.00    -0.047 A 
ATOM      4  C   UNL     1       0.006  -0.688  -1.200  0.00  0.00    +0.007 A 
ATOM      5  C   UNL     1       0.024  -2.071  -1.211  0.00  0.00    -0.044 A 
ATOM      6  C   UNL     1       0.039  -2.772  -0.020  0.00  0.00    -0.003 A 
ATOM      7  C   UNL     1       0.035  -2.088   1.186  0.00  0.00    +0.160 A 
ATOM      8  C   UNL     1       0.023  -0.700   1.195  0.00  0.00    +0.052 A 
ATOM      9  C   UNL     1       0.059  -4.279  -0.033  0.00  0.00    +0.048 C 
ATOM     10  C   UNL     1       0.028  -2.813  -2.522  0.00  0.00    +0.044 C 
ENDBRANCH   1   7
BRANCH   1  11
ATOM     11  S   UNL     1       1.447  -3.070   2.886  0.00  0.00    +0.154 S 
ATOM     12  O   UNL     1       1.287  -3.959   3.983  0.00  0.00    -0.131 OA
ATOM     13  O   UNL     1       2.248  -3.390   1.757  0.00  0.00    -0.131 OA
BRANCH  11  14
ATOM     14  C   UNL     1       2.083  -1.565   3.545  0.00  0.00    +0.165 A 
ATOM     15  C   UNL     1       2.788  -0.633   2.864  0.00  0.00    +0.135 A 
ATOM     16  N   UNL     1       3.089   0.364   3.722  0.00  0.00    -0.283 N 
ATOM     17  H   UNL     1       3.589   1.168   3.511  0.00  0.00    +0.188 HD
ATOM     18  N   UNL     1       2.551   0.033   4.973  0.00  0.00    -0.180 NA
ATOM     19  C   UNL     1       1.943  -1.120   4.864  0.00  0.00    +0.164 A 
ENDBRANCH  11  14
ENDBRANCH   1  11
TORSDOF 3
