REMARK  Name = ZINC32096635
REMARK  4 active torsions:
REMARK  status: ('A' for Active; 'I' for Inactive)
REMARK    1  A    between atoms: C_1  and  C_2
REMARK    2  A    between atoms: C_2  and  C_22
REMARK    3  A    between atoms: C_4  and  C_9
REMARK    4  A    between atoms: C_12  and  C_17
REMARK                            x       y       z     vdW  Elec       q    Type
REMARK                         _______ _______ _______ _____ _____    ______ ____
ROOT
ATOM      1  C   UNL     1      -0.052   1.022   2.489  0.00  0.00    +0.106 A 
ATOM      2  N   UNL     1       0.511   1.658   3.473  0.00  0.00    -0.160 NA
ATOM      3  N   UNL     1       1.097   0.979   4.533  0.00  0.00    -0.183 N 
ATOM      4  C   UNL     1       1.769   1.241   5.720  0.00  0.00    +0.221 A 
ATOM      5  N   UNL     1       2.065   0.086   6.276  0.00  0.00    -0.123 NA
ATOM      6  N   UNL     1       1.635  -0.878   5.537  0.00  0.00    -0.120 NA
ATOM      7  C   UNL     1       1.049  -0.393   4.483  0.00  0.00    +0.218 A 
ATOM      8  S   UNL     1       0.181  -0.685   2.962  0.00  0.00    -0.031 S 
ENDROOT
BRANCH   1  12
ATOM      9  C   UNL     1      -2.858   3.145  -0.058  0.00  0.00    +0.041 C 
ATOM     10  C   UNL     1      -2.849   1.615  -0.059  0.00  0.00    +0.065 C 
ATOM     11  C   UNL     1      -2.190   1.107   1.226  0.00  0.00    +0.044 C 
ATOM     12  C   UNL     1      -0.732   1.581   1.266  0.00  0.00    +0.051 C 
ATOM     13  C   UNL     1      -0.013   1.086   0.008  0.00  0.00    +0.038 C 
ATOM     14  C   UNL     1      -0.756   1.594  -1.230  0.00  0.00    +0.161 C 
ATOM     15  O   UNL     1      -2.111   1.144  -1.189  0.00  0.00    -0.374 OA
ATOM     16  C   UNL     1      -4.286   1.096  -0.136  0.00  0.00    +0.041 C 
ENDBRANCH   1  12
BRANCH   4  17
ATOM     17  C   UNL     1       2.092   2.571   6.259  0.00  0.00    +0.173 A 
ATOM     18  C   UNL     1       2.486   2.843   7.535  0.00  0.00    +0.053 A 
ATOM     19  C   UNL     1       2.687   4.236   7.609  0.00  0.00    +0.042 A 
ATOM     20  C   UNL     1       2.409   4.741   6.391  0.00  0.00    +0.196 A 
ATOM     21  O   UNL     1       2.055   3.732   5.576  0.00  0.00    -0.460 OA
ENDBRANCH   4  17
TORSDOF 2
