REMARK  Name = ZINC53133091
REMARK  8 active torsions:
REMARK  status: ('A' for Active; 'I' for Inactive)
REMARK    1  A    between atoms: C_1  and  C_2
REMARK    2  A    between atoms: C_2  and  O_3
REMARK    3  A    between atoms: O_3  and  C_4
REMARK    4  A    between atoms: C_11  and  C_13
REMARK    5  A    between atoms: C_13  and  C_15
REMARK    6  A    between atoms: C_13  and  N_16
REMARK    7  A    between atoms: C_17  and  C_19
REMARK    8  A    between atoms: N_29  and  C_30
REMARK                            x       y       z     vdW  Elec       q    Type
REMARK                         _______ _______ _______ _____ _____    ______ ____
ROOT
ATOM      1  N   UNL     1       2.699  -1.375   6.281  0.00  0.00    -0.302 N 
ATOM      2  C   UNL     1       2.836  -1.267   7.617  0.00  0.00    +0.245 C 
ATOM      3  O   UNL     1       3.482  -2.095   8.231  0.00  0.00    -0.270 OA
ATOM      4  H   UNL     1       2.184  -0.714   5.792  0.00  0.00    +0.150 HD
ENDROOT
BRANCH   2   5
ATOM      5  C   UNL     1       2.202  -0.145   8.336  0.00  0.00    +0.039 A 
ATOM      6  C   UNL     1       1.456   0.803   7.631  0.00  0.00    +0.015 A 
ATOM      7  C   UNL     1       0.862   1.851   8.302  0.00  0.00    +0.026 A 
ATOM      8  C   UNL     1       1.007   1.964   9.676  0.00  0.00    +0.051 A 
ATOM      9  C   UNL     1       1.755   1.021  10.390  0.00  0.00    +0.055 A 
ATOM     10  C   UNL     1       2.345  -0.035   9.723  0.00  0.00    +0.038 A 
ATOM     11  N   UNL     1       1.899   1.159  11.776  0.00  0.00    -0.283 N 
ATOM     12  C   UNL     1       1.107   2.001  12.467  0.00  0.00    +0.235 C 
ATOM     13  O   UNL     1       1.274   2.138  13.660  0.00  0.00    -0.274 OA
ATOM     14  C   UNL     1       0.015   2.774  11.773  0.00  0.00    +0.200 C 
ATOM     15  N   UNL     1       0.409   3.013  10.377  0.00  0.00    -0.323 N 
ATOM     16  C   UNL     1       0.183   4.313   9.740  0.00  0.00    +0.130 C 
ATOM     17  H   UNL     1       2.575   0.643  12.243  0.00  0.00    +0.155 HD
ENDBRANCH   2   5
BRANCH   1  18
ATOM     18  C   UNL     1       3.328  -2.489   5.567  0.00  0.00    +0.136 C 
ATOM     19  C   UNL     1       4.780  -2.131   5.242  0.00  0.00    +0.036 C 
BRANCH  18  27
ATOM     20  C   UNL     1       0.802  -1.825   1.306  0.00  0.00    +0.163 A 
ATOM     21  C   UNL     1       0.262  -2.671   0.354  0.00  0.00    +0.049 A 
ATOM     22  C   UNL     1       0.365  -4.047   0.492  0.00  0.00    +0.004 A 
ATOM     23  C   UNL     1       1.010  -4.590   1.581  0.00  0.00    +0.012 A 
ATOM     24  C   UNL     1       1.561  -3.749   2.549  0.00  0.00    +0.024 A 
ATOM     25  C   UNL     1       1.463  -2.356   2.411  0.00  0.00    +0.177 A 
ATOM     26  O   UNL     1       2.082  -1.804   3.475  0.00  0.00    -0.454 OA
ATOM     27  C   UNL     1       2.577  -2.753   4.287  0.00  0.00    +0.126 A 
ATOM     28  C   UNL     1       2.296  -3.970   3.800  0.00  0.00    +0.055 A 
BRANCH  20  29
ATOM     29  O   UNL     1       0.693  -0.477   1.160  0.00  0.00    -0.489 OA
BRANCH  29  31
ATOM     30  C   UNL     1      -0.019   1.526   0.010  0.00  0.00    +0.048 C 
ATOM     31  C   UNL     1       0.002  -0.004   0.002  0.00  0.00    +0.226 C 
ENDBRANCH  29  31
ENDBRANCH  20  29
ENDBRANCH  18  27
ENDBRANCH   1  18
TORSDOF 5
