REMARK  Name = ZINC06491471
REMARK  6 active torsions:
REMARK  status: ('A' for Active; 'I' for Inactive)
REMARK    1  A    between atoms: C_1  and  C_2
REMARK    2  A    between atoms: C_7  and  N_8
REMARK    3  A    between atoms: N_9  and  C_10
REMARK    4  A    between atoms: C_11  and  O_30
REMARK    5  A    between atoms: N_12  and  C_24
REMARK    6  A    between atoms: N_15  and  C_18
REMARK                            x       y       z     vdW  Elec       q    Type
REMARK                         _______ _______ _______ _____ _____    ______ ____
ROOT
ATOM      1  C   UNL     1      -3.770   1.748   0.254  0.00  0.00    +0.210 A 
ATOM      2  C   UNL     1      -3.413   2.923  -0.411  0.00  0.00    +0.233 A 
ATOM      3  N   UNL     1      -4.365   3.881  -0.623  0.00  0.00    -0.258 N 
ATOM      4  C   UNL     1      -5.627   3.716  -0.195  0.00  0.00    +0.175 A 
ATOM      5  S   UNL     1      -6.767   4.960  -0.487  0.00  0.00    -0.012 S 
ATOM      6  N   UNL     1      -6.026   2.611   0.455  0.00  0.00    -0.254 N 
ATOM      7  C   UNL     1      -5.159   1.607   0.706  0.00  0.00    +0.290 A 
ATOM      8  O   UNL     1      -5.523   0.606   1.295  0.00  0.00    -0.265 OA
ENDROOT
BRANCH   6   9
ATOM      9  C   UNL     1      -7.357   2.498   0.877  0.00  0.00    +0.052 A 
ATOM     10  C   UNL     1      -8.298   1.891   0.057  0.00  0.00    +0.026 A 
ATOM     11  C   UNL     1      -9.608   1.776   0.478  0.00  0.00    +0.002 A 
ATOM     12  C   UNL     1      -9.985   2.275   1.712  0.00  0.00    +0.000 A 
ATOM     13  C   UNL     1      -9.051   2.885   2.529  0.00  0.00    +0.002 A 
ATOM     14  C   UNL     1      -7.738   2.998   2.115  0.00  0.00    +0.026 A 
ENDBRANCH   6   9
BRANCH   3  15
ATOM     15  C   UNL     1      -4.016   5.059  -1.295  0.00  0.00    +0.052 A 
ATOM     16  C   UNL     1      -4.162   5.144  -2.673  0.00  0.00    +0.026 A 
ATOM     17  C   UNL     1      -3.822   6.309  -3.332  0.00  0.00    +0.002 A 
ATOM     18  C   UNL     1      -3.326   7.387  -2.622  0.00  0.00    +0.000 A 
ATOM     19  C   UNL     1      -3.174   7.304  -1.250  0.00  0.00    +0.002 A 
ATOM     20  C   UNL     1      -3.518   6.144  -0.585  0.00  0.00    +0.026 A 
ENDBRANCH   3  15
BRANCH   1  22
ATOM     21  N   UNL     1      -3.183  -0.265   1.183  0.00  0.00    -0.149 NA
ATOM     22  N   UNL     1      -2.858   0.768   0.482  0.00  0.00    -0.138 NA
BRANCH  21  29
ATOM     23  C   UNL     1      -4.000  -2.494   2.744  0.00  0.00    +0.046 C 
ATOM     24  C   UNL     1      -2.610  -2.369   2.175  0.00  0.00    -0.023 A 
ATOM     25  C   UNL     1      -1.677  -3.358   2.407  0.00  0.00    +0.005 A 
ATOM     26  C   UNL     1      -0.400  -3.245   1.885  0.00  0.00    +0.000 A 
ATOM     27  C   UNL     1      -0.050  -2.141   1.128  0.00  0.00    +0.002 A 
ATOM     28  C   UNL     1      -0.973  -1.145   0.888  0.00  0.00    +0.030 A 
ATOM     29  C   UNL     1      -2.264  -1.252   1.412  0.00  0.00    +0.089 A 
ENDBRANCH  21  29
ENDBRANCH   1  22
BRANCH   2  30
ATOM     30  O   UNL     1      -2.150   3.108  -0.843  0.00  0.00    -0.492 OA
ATOM     31  H   UNL     1      -1.501   2.432  -0.603  0.00  0.00    +0.294 HD
ENDBRANCH   2  30
TORSDOF 5
