REMARK  Name = ZINC60302311
REMARK  6 active torsions:
REMARK  status: ('A' for Active; 'I' for Inactive)
REMARK    1  A    between atoms: C_3  and  N_21
REMARK    2  A    between atoms: C_6  and  C_7
REMARK    3  A    between atoms: C_7  and  N_8
REMARK    4  A    between atoms: C_9  and  C_11
REMARK    5  A    between atoms: C_13  and  N_18
REMARK    6  A    between atoms: C_24  and  C_26
REMARK                            x       y       z     vdW  Elec       q    Type
REMARK                         _______ _______ _______ _____ _____    ______ ____
ROOT
ATOM      1  C   UNL     1      -0.017   1.379   0.010  0.00  0.00    +0.007 A 
ATOM      2  C   UNL     1       1.169   2.087   0.002  0.00  0.00    +0.028 A 
ATOM      3  C   UNL     1       2.381   1.409  -0.013  0.00  0.00    +0.065 A 
ATOM      4  C   UNL     1       2.396   0.021  -0.021  0.00  0.00    +0.028 A 
ATOM      5  C   UNL     1       1.207  -0.682  -0.013  0.00  0.00    +0.007 A 
ATOM      6  C   UNL     1       0.002  -0.004   0.002  0.00  0.00    -0.030 A 
ENDROOT
BRANCH   3   7
ATOM      7  N   UNL     1       3.586   2.125  -0.021  0.00  0.00    -0.239 N 
ATOM      8  C   UNL     1       4.828   1.592  -0.042  0.00  0.00    +0.115 A 
ATOM      9  C   UNL     1       5.715   2.614  -0.044  0.00  0.00    +0.054 A 
ATOM     10  C   UNL     1       4.992   3.811  -0.024  0.00  0.00    +0.166 A 
ATOM     11  N   UNL     1       3.716   3.520  -0.016  0.00  0.00    -0.162 NA
BRANCH  10  12
ATOM     12  C   UNL     1       5.581   5.199  -0.019  0.00  0.00    +0.436 C 
ATOM     13  F   UNL     1       5.747   5.640  -1.336  0.00  0.00    -0.164 F 
ATOM     14  F   UNL     1       4.720   6.068   0.659  0.00  0.00    -0.164 F 
ATOM     15  F   UNL     1       6.823   5.176   0.625  0.00  0.00    -0.164 F 
ENDBRANCH  10  12
ENDBRANCH   3   7
BRANCH   6  16
ATOM     16  C   UNL     1      -1.294  -0.774   0.011  0.00  0.00    +0.139 C 
BRANCH  16  17
ATOM     17  N   UNL     1      -1.727  -1.016  -1.367  0.00  0.00    -0.307 N 
ATOM     18  C   UNL     1      -2.869  -1.691  -1.606  0.00  0.00    +0.247 C 
ATOM     19  O   UNL     1      -3.539  -2.100  -0.677  0.00  0.00    -0.270 OA
ATOM     20  H   UNL     1      -1.192  -0.690  -2.108  0.00  0.00    +0.149 HD
BRANCH  18  21
ATOM     21  C   UNL     1      -3.306  -1.935  -2.996  0.00  0.00    +0.074 A 
ATOM     22  C   UNL     1      -2.536  -1.472  -4.065  0.00  0.00    +0.048 A 
ATOM     23  C   UNL     1      -2.949  -1.704  -5.360  0.00  0.00    +0.127 A 
ATOM     24  C   UNL     1      -4.125  -2.393  -5.603  0.00  0.00    +0.035 A 
ATOM     25  C   UNL     1      -4.894  -2.854  -4.551  0.00  0.00    +0.041 A 
ATOM     26  C   UNL     1      -4.490  -2.635  -3.247  0.00  0.00    +0.136 A 
ATOM     27  F   UNL     1      -5.239  -3.091  -2.219  0.00  0.00    -0.205 F 
BRANCH  23  28
ATOM     28  N   UNL     1      -2.133  -1.214  -6.493  0.00  0.00    +0.056 N 
ATOM     29  O   UNL     1      -1.106  -0.612  -6.283  0.00  0.00    -0.126 OA
ATOM     30  O   UNL     1      -2.494  -1.416  -7.629  0.00  0.00    -0.126 OA
ENDBRANCH  23  28
ENDBRANCH  18  21
ENDBRANCH  16  17
ENDBRANCH   6  16
TORSDOF 6
