REMARK  Name = ZINC28575539
REMARK  6 active torsions:
REMARK  status: ('A' for Active; 'I' for Inactive)
REMARK    1  A    between atoms: C_1  and  C_2
REMARK    2  A    between atoms: C_9  and  C_11
REMARK    3  A    between atoms: C_14  and  C_16
REMARK    4  A    between atoms: C_16  and  N_17
REMARK    5  A    between atoms: C_18  and  C_24
REMARK    6  A    between atoms: C_20  and  C_22
REMARK                            x       y       z     vdW  Elec       q    Type
REMARK                         _______ _______ _______ _____ _____    ______ ____
ROOT
ATOM      1  C   UNL     1      -0.016   1.362   0.006  0.00  0.00    +0.190 A 
ATOM      2  C   UNL     1       0.002  -0.004  -0.003  0.00  0.00    +0.055 A 
ATOM      3  C   UNL     1       1.352  -0.389  -0.019  0.00  0.00    +0.047 A 
ATOM      4  C   UNL     1       2.089   0.744  -0.019  0.00  0.00    +0.127 A 
ATOM      5  O   UNL     1       1.261   1.797  -0.004  0.00  0.00    -0.453 OA
ENDROOT
BRANCH   1  14
ATOM      6  C   UNL     1      -5.724   6.711  -0.354  0.00  0.00    +0.045 C 
ATOM      7  C   UNL     1      -4.461   5.895  -0.253  0.00  0.00    -0.032 A 
ATOM      8  C   UNL     1      -3.221   6.519  -0.260  0.00  0.00    +0.008 A 
ATOM      9  C   UNL     1      -2.086   5.732  -0.166  0.00  0.00    +0.044 A 
ATOM     10  C   UNL     1      -2.226   4.352  -0.069  0.00  0.00    +0.125 A 
ATOM     11  N   UNL     1      -3.426   3.795  -0.071  0.00  0.00    -0.240 NA
ATOM     12  C   UNL     1      -4.526   4.519  -0.153  0.00  0.00    +0.116 A 
ATOM     13  N   UNL     1      -1.092   3.549   0.027  0.00  0.00    -0.264 N 
ATOM     14  C   UNL     1      -1.214   2.207   0.019  0.00  0.00    +0.285 C 
ATOM     15  O   UNL     1      -2.319   1.696   0.021  0.00  0.00    -0.266 OA
ATOM     16  H   UNL     1      -0.096   4.010   0.108  0.00  0.00    +0.157 HD
ENDBRANCH   1  14
BRANCH   4  17
ATOM     17  C   UNL     1       3.594   0.812  -0.034  0.00  0.00    +0.218 C 
BRANCH  17  18
ATOM     18  N   UNL     1       4.068   0.842  -1.420  0.00  0.00    -0.260 N 
ATOM     19  C   UNL     1       4.379  -0.232  -2.177  0.00  0.00    +0.051 A 
ATOM     20  C   UNL     1       4.771   0.220  -3.391  0.00  0.00    +0.061 A 
ATOM     21  C   UNL     1       4.706   1.617  -3.373  0.00  0.00    +0.074 A 
ATOM     22  N   UNL     1       4.285   1.991  -2.192  0.00  0.00    -0.175 NA
ATOM     23  C   UNL     1       5.060   2.534  -4.516  0.00  0.00    +0.068 C 
ATOM     24 BR   UNL     1       5.318  -0.849  -4.853  0.00  0.00    -0.047 Br
ATOM     25  C   UNL     1       4.301  -1.674  -1.748  0.00  0.00    +0.066 C 
ENDBRANCH  17  18
ENDBRANCH   4  17
TORSDOF 3
