REMARK  Name = ZINC36865563
REMARK  3 active torsions:
REMARK  status: ('A' for Active; 'I' for Inactive)
REMARK    1  A    between atoms: C_1  and  C_2
REMARK    2  A    between atoms: C_6  and  C_10
REMARK    3  A    between atoms: N_15  and  C_16
REMARK                            x       y       z     vdW  Elec       q    Type
REMARK                         _______ _______ _______ _____ _____    ______ ____
ROOT
ATOM      1  C   UNL     1      -0.877   0.375   1.252  0.00  0.00    +0.039 C 
ATOM      2  C   UNL     1      -0.162  -0.891   0.777  0.00  0.00    +0.133 C 
ATOM      3  C   UNL     1       0.037  -0.827  -0.742  0.00  0.00    +0.139 C 
ATOM      4  N   UNL     1       0.886  -1.958  -1.147  0.00  0.00    -0.292 N 
ATOM      5  C   UNL     1       2.147  -2.171  -0.420  0.00  0.00    +0.099 C 
ATOM      6  C   UNL     1       1.846  -2.170   1.083  0.00  0.00    +0.182 C 
ATOM      7  O   UNL     1       1.113  -0.988   1.415  0.00  0.00    -0.373 OA
ATOM      8  C   UNL     1       2.754  -3.517  -0.824  0.00  0.00    +0.030 C 
ATOM      9  C   UNL     1       0.508  -2.799  -2.184  0.00  0.00    +0.219 A 
ATOM     10  N   UNL     1       0.697  -4.086  -2.224  0.00  0.00    -0.137 NA
ATOM     11  N   UNL     1       0.175  -4.564  -3.434  0.00  0.00    -0.253 N 
ATOM     12  C   UNL     1      -0.328  -3.505  -4.101  0.00  0.00    +0.177 A 
ATOM     13  N   UNL     1      -0.133  -2.412  -3.337  0.00  0.00    -0.288 N 
ATOM     14  S   UNL     1      -1.083  -3.544  -5.638  0.00  0.00    -0.011 S 
ATOM     15  H   UNL     1       0.175  -5.486  -3.735  0.00  0.00    +0.191 HD
ENDROOT
BRANCH  13  16
ATOM     16  C   UNL     1      -0.534  -1.045  -3.678  0.00  0.00    +0.092 C 
ATOM     17  C   UNL     1      -2.068  -0.962  -3.815  0.00  0.00    +0.025 C 
ATOM     18  C   UNL     1      -2.292   0.025  -4.988  0.00  0.00    +0.002 C 
ATOM     19  C   UNL     1      -1.147  -0.340  -5.965  0.00  0.00    +0.002 C 
ATOM     20  C   UNL     1       0.052  -0.649  -5.045  0.00  0.00    +0.025 C 
ENDBRANCH  13  16
TORSDOF 1
