REMARK  Name = ZINC01380779
REMARK  3 active torsions:
REMARK  status: ('A' for Active; 'I' for Inactive)
REMARK    1  A    between atoms: C_6  and  S_7
REMARK    2  A    between atoms: S_7  and  N_10
REMARK    3  A    between atoms: C_13  and  N_16
REMARK                            x       y       z     vdW  Elec       q    Type
REMARK                         _______ _______ _______ _____ _____    ______ ____
ROOT
ATOM      1  N   UNL     1       1.154   4.329   1.596  0.00  0.00    -0.176 NA
ATOM      2  C   UNL     1      -0.107   4.535   2.322  0.00  0.00    +0.111 C 
ATOM      3  C   UNL     1      -0.106   5.935   2.932  0.00  0.00    +0.044 C 
ATOM      4  C   UNL     1       1.149   6.116   3.788  0.00  0.00    +0.112 C 
ATOM      5  C   UNL     1       2.394   5.970   2.909  0.00  0.00    +0.044 C 
ATOM      6  C   UNL     1       2.422   4.565   2.300  0.00  0.00    +0.111 C 
ENDROOT
BRANCH   4   7
ATOM      7  N   UNL     1       1.136   7.448   4.398  0.00  0.00    -0.241 N 
ATOM      8  C   UNL     1       1.139   7.717   5.745  0.00  0.00    +0.089 A 
ATOM      9  C   UNL     1       1.165   6.947   6.901  0.00  0.00    +0.032 A 
ATOM     10  C   UNL     1       1.166   7.558   8.124  0.00  0.00    +0.040 A 
ATOM     11  C   UNL     1       1.148   8.945   8.224  0.00  0.00    +0.126 A 
ATOM     12  C   UNL     1       1.127   9.725   7.101  0.00  0.00    +0.070 A 
ATOM     13  C   UNL     1       1.125   9.121   5.841  0.00  0.00    +0.115 A 
ATOM     14  N   UNL     1       1.108   9.572   4.571  0.00  0.00    -0.129 NA
ATOM     15  N   UNL     1       1.115   8.569   3.765  0.00  0.00    -0.064 NA
ATOM     16  F   UNL     1       1.150   9.528   9.443  0.00  0.00    -0.205 F 
ENDBRANCH   4   7
BRANCH   1  17
ATOM     17  S   UNL     1       1.146   3.847   0.011  0.00  0.00    +0.061 S 
ATOM     18  O   UNL     1       2.380   4.274  -0.549  0.00  0.00    -0.153 OA
ATOM     19  O   UNL     1      -0.110   4.239  -0.526  0.00  0.00    -0.153 OA
BRANCH  17  25
ATOM     20  C   UNL     1      -0.017   1.378   0.010  0.00  0.00    +0.030 A 
ATOM     21  C   UNL     1       0.002  -0.004   0.002  0.00  0.00    +0.022 A 
ATOM     22  C   UNL     1       1.210  -0.679  -0.013  0.00  0.00    +0.041 A 
ATOM     23  C   UNL     1       2.398   0.030  -0.021  0.00  0.00    +0.022 A 
ATOM     24  C   UNL     1       2.378   1.412  -0.013  0.00  0.00    +0.030 A 
ATOM     25  C   UNL     1       1.171   2.086   0.002  0.00  0.00    +0.106 A 
ATOM     26 CL   UNL     1       1.234  -2.415  -0.022  0.00  0.00    -0.084 Cl
ENDBRANCH  17  25
ENDBRANCH   1  17
TORSDOF 3
