REMARK  Name = ZINC39953384
REMARK  6 active torsions:
REMARK  status: ('A' for Active; 'I' for Inactive)
REMARK    1  A    between atoms: C_1  and  C_2
REMARK    2  A    between atoms: C_2  and  C_3
REMARK    3  A    between atoms: C_2  and  C_4
REMARK    4  A    between atoms: C_4  and  C_5
REMARK    5  A    between atoms: C_7  and  C_11
REMARK    6  A    between atoms: C_17  and  C_20
REMARK                            x       y       z     vdW  Elec       q    Type
REMARK                         _______ _______ _______ _____ _____    ______ ____
ROOT
ATOM      1  C   UNL     1      -0.199  -5.018   0.691  0.00  0.00    +0.181 A 
ATOM      2  N   UNL     1       1.022  -4.802   0.298  0.00  0.00    -0.129 NA
ATOM      3  N   UNL     1       1.821  -5.639   0.858  0.00  0.00    -0.121 NA
ATOM      4  C   UNL     1       1.143  -6.439   1.621  0.00  0.00    +0.211 A 
ATOM      5  N   UNL     1      -0.177  -6.070   1.590  0.00  0.00    -0.222 N 
ATOM      6  N   UNL     1      -1.072  -6.732   2.377  0.00  0.00    -0.263 N 
ATOM      7  C   UNL     1      -0.642  -8.088   2.812  0.00  0.00    +0.184 C 
ATOM      8  S   UNL     1       1.183  -7.840   2.719  0.00  0.00    -0.056 S 
ATOM      9  H   UNL     1      -1.345  -6.168   3.168  0.00  0.00    +0.168 HD
ENDROOT
BRANCH   7  10
ATOM     10  C   UNL     1      -1.100  -9.152   1.848  0.00  0.00    -0.002 A 
ATOM     11  C   UNL     1      -1.541  -8.797   0.586  0.00  0.00    +0.007 A 
ATOM     12  C   UNL     1      -1.961  -9.773  -0.299  0.00  0.00    +0.000 A 
ATOM     13  C   UNL     1      -1.940 -11.103   0.077  0.00  0.00    +0.001 A 
ATOM     14  C   UNL     1      -1.500 -11.458   1.339  0.00  0.00    +0.015 A 
ATOM     15  C   UNL     1      -1.075 -10.483   2.223  0.00  0.00    +0.024 A 
ATOM     16 BR   UNL     1      -0.466 -10.968   3.946  0.00  0.00    -0.050 Br
ENDBRANCH   7  10
BRANCH   1  19
ATOM     17  C   UNL     1      -1.416  -2.035  -0.119  0.00  0.00    +0.062 C 
ATOM     18  C   UNL     1      -1.465  -2.886   0.907  0.00  0.00    +0.034 C 
ATOM     19  C   UNL     1      -1.420  -4.254   0.250  0.00  0.00    +0.222 C 
ATOM     20  N   UNL     1      -1.346  -3.930  -1.185  0.00  0.00    -0.172 NA
ATOM     21  N   UNL     1      -1.355  -2.701  -1.293  0.00  0.00    -0.158 NA
BRANCH  17  22
ATOM     22  C   UNL     1      -1.433  -0.534   0.013  0.00  0.00    +0.060 C 
BRANCH  22  24
ATOM     23  C   UNL     1      -0.019   1.526   0.010  0.00  0.00    +0.007 C 
ATOM     24  C   UNL     1       0.002  -0.004   0.002  0.00  0.00    -0.011 C 
ATOM     25  C   UNL     1       0.742  -0.511   1.242  0.00  0.00    +0.007 C 
ENDBRANCH  22  24
ENDBRANCH  17  22
ENDBRANCH   1  19
TORSDOF 4
