REMARK  Name = ZINC66926357
REMARK  4 active torsions:
REMARK  status: ('A' for Active; 'I' for Inactive)
REMARK    1  A    between atoms: C_7  and  N_12
REMARK    2  A    between atoms: C_18  and  N_21
REMARK    3  A    between atoms: C_22  and  C_24
REMARK    4  A    between atoms: C_24  and  C_25
REMARK                            x       y       z     vdW  Elec       q    Type
REMARK                         _______ _______ _______ _____ _____    ______ ____
ROOT
ATOM      1  N   UNL     1      -0.021  -2.503  -2.259  0.00  0.00    -0.298 N 
ATOM      2  C   UNL     1      -0.348  -3.809  -2.206  0.00  0.00    +0.302 C 
ATOM      3  O   UNL     1       0.252  -4.556  -1.457  0.00  0.00    -0.253 OA
ATOM      4  N   UNL     1      -1.339  -4.288  -2.983  0.00  0.00    -0.286 N 
ATOM      5  C   UNL     1      -1.994  -3.426  -3.977  0.00  0.00    +0.111 C 
ATOM      6  C   UNL     1      -3.507  -3.466  -3.743  0.00  0.00    +0.041 C 
ATOM      7  C   UNL     1      -3.984  -4.921  -3.761  0.00  0.00    +0.076 C 
ATOM      8  C   UNL     1      -3.300  -5.697  -2.633  0.00  0.00    +0.041 C 
ATOM      9  C   UNL     1      -1.780  -5.684  -2.859  0.00  0.00    +0.111 C 
ATOM     10  H   UNL     1      -0.448  -1.922  -2.908  0.00  0.00    +0.150 HD
ENDROOT
BRANCH   1  17
ATOM     11  C   UNL     1      -0.024   1.532   0.012  0.00  0.00    -0.003 C 
ATOM     12  C   UNL     1       1.399   2.090   0.003  0.00  0.00    -0.019 C 
ATOM     13  C   UNL     1       2.212   1.489  -1.154  0.00  0.00    -0.078 C 
ATOM     14  N   UNL     1       2.211   0.041  -0.995  0.00  0.00    +0.383 N 
ATOM     15  C   UNL     1       2.985  -0.702  -2.002  0.00  0.00    -0.077 C 
ATOM     16  C   UNL     1       2.406  -2.140  -1.913  0.00  0.00    +0.002 C 
ATOM     17  C   UNL     1       0.978  -1.960  -1.335  0.00  0.00    +0.059 C 
ATOM     18  C   UNL     1       0.820  -0.442  -1.200  0.00  0.00    -0.048 C 
ATOM     19  C   UNL     1      -0.002  -0.005   0.004  0.00  0.00    -0.014 C 
ATOM     20  H   UNL     1       2.525  -0.202  -0.067  0.00  0.00    -0.081 HD
ENDBRANCH   1  17
BRANCH   7  21
ATOM     21  N   UNL     1      -5.436  -4.961  -3.570  0.00  0.00    -0.312 N 
ATOM     22  C   UNL     1      -6.148  -6.008  -4.032  0.00  0.00    +0.214 C 
ATOM     23  O   UNL     1      -5.586  -6.917  -4.606  0.00  0.00    -0.276 OA
ATOM     24  H   UNL     1      -5.885  -4.234  -3.111  0.00  0.00    +0.149 HD
BRANCH  22  25
ATOM     25  C   UNL     1      -7.641  -6.049  -3.836  0.00  0.00    +0.099 C 
BRANCH  25  26
ATOM     26  C   UNL     1      -8.201  -7.334  -4.450  0.00  0.00    -0.002 C 
ATOM     27  C   UNL     1      -8.061  -7.291  -5.986  0.00  0.00    +0.004 C 
ATOM     28  C   UNL     1      -9.349  -7.977  -6.504  0.00  0.00    +0.000 C 
ATOM     29  C   UNL     1     -10.427  -7.474  -5.511  0.00  0.00    +0.000 C 
ATOM     30  C   UNL     1      -9.705  -7.451  -4.148  0.00  0.00    +0.004 C 
ENDBRANCH  25  26
ENDBRANCH  22  25
ENDBRANCH   7  21
TORSDOF 4
