REMARK  Name = ZINC02874614
REMARK  6 active torsions:
REMARK  status: ('A' for Active; 'I' for Inactive)
REMARK    1  A    between atoms: C_1  and  C_2
REMARK    2  A    between atoms: C_5  and  N_9
REMARK    3  A    between atoms: C_6  and  C_8
REMARK    4  A    between atoms: C_10  and  C_12
REMARK    5  A    between atoms: C_12  and  C_14
REMARK    6  A    between atoms: C_12  and  C_15
REMARK                            x       y       z     vdW  Elec       q    Type
REMARK                         _______ _______ _______ _____ _____    ______ ____
ROOT
ATOM      1  C   UNL     1      -4.660   3.813   5.836  0.00  0.00    +0.094 C 
ATOM      2  C   UNL     1      -4.546   2.842   7.013  0.00  0.00    +0.019 C 
ENDROOT
BRANCH   1   3
ATOM      3  C   UNL     1      -6.136   4.061   5.520  0.00  0.00    +0.149 C 
ATOM      4  C   UNL     1      -6.817   4.653   6.724  0.00  0.00    +0.231 C 
ATOM      5  O   UNL     1      -7.388   3.902   7.486  0.00  0.00    -0.274 OA
ATOM      6  N   UNL     1      -6.827   5.954   6.999  0.00  0.00    -0.284 N 
ATOM      7  C   UNL     1      -6.220   6.959   6.250  0.00  0.00    +0.047 A 
ATOM      8  C   UNL     1      -5.919   8.175   6.854  0.00  0.00    +0.024 A 
ATOM      9  C   UNL     1      -5.321   9.185   6.125  0.00  0.00    +0.002 A 
ATOM     10  C   UNL     1      -5.017   8.999   4.789  0.00  0.00    +0.001 A 
ATOM     11  C   UNL     1      -5.310   7.794   4.176  0.00  0.00    +0.016 A 
ATOM     12  C   UNL     1      -5.906   6.778   4.902  0.00  0.00    +0.030 A 
ATOM     13  S   UNL     1      -6.275   5.232   4.135  0.00  0.00    -0.110 S 
ATOM     14  H   UNL     1      -7.303   6.230   7.798  0.00  0.00    +0.155 HD
ENDBRANCH   1   3
BRANCH   1  16
ATOM     15  N   UNL     1      -2.668   2.917   4.675  0.00  0.00    -0.285 N 
ATOM     16  C   UNL     1      -3.980   3.221   4.628  0.00  0.00    +0.222 C 
ATOM     17  O   UNL     1      -4.614   3.017   3.615  0.00  0.00    -0.275 OA
ATOM     18  H   UNL     1      -2.179   3.005   5.508  0.00  0.00    +0.155 HD
BRANCH  15  23
ATOM     19  C   UNL     1      -0.003   1.128  -0.003  0.00  0.00    +0.044 C 
ATOM     20  C   UNL     1      -0.711   1.603   1.240  0.00  0.00    -0.050 A 
ATOM     21  C   UNL     1      -1.845   2.386   1.131  0.00  0.00    +0.005 A 
ATOM     22  C   UNL     1      -2.500   2.819   2.267  0.00  0.00    +0.024 A 
ATOM     23  C   UNL     1      -2.010   2.476   3.521  0.00  0.00    +0.036 A 
ATOM     24  C   UNL     1      -0.868   1.694   3.628  0.00  0.00    -0.029 A 
ATOM     25  C   UNL     1      -0.222   1.259   2.487  0.00  0.00    +0.008 A 
ATOM     26  C   UNL     1      -0.334   1.319   4.986  0.00  0.00    +0.045 C 
ENDBRANCH  15  23
ENDBRANCH   1  16
TORSDOF 3
