REMARK  Name = ZINC06622647
REMARK  9 active torsions:
REMARK  status: ('A' for Active; 'I' for Inactive)
REMARK    1  A    between atoms: C_4  and  C_7
REMARK    2  A    between atoms: C_7  and  O_28
REMARK    3  A    between atoms: C_9  and  C_21
REMARK    4  A    between atoms: N_11  and  C_16
REMARK    5  A    between atoms: C_16  and  C_17
REMARK    6  A    between atoms: C_17  and  N_48
REMARK    7  A    between atoms: C_18  and  C_19
REMARK    8  A    between atoms: C_18  and  N_48
REMARK    9  A    between atoms: C_19  and  O_20
REMARK                            x       y       z     vdW  Elec       q    Type
REMARK                         _______ _______ _______ _____ _____    ______ ____
ROOT
ATOM      1  C   UNL     1       3.018   3.530  -2.493  0.00  0.00    +0.133 C 
ATOM      2  C   UNL     1       2.536   4.381  -1.521  0.00  0.00    +0.071 C 
ATOM      3  C   UNL     1       1.676   4.010  -0.334  0.00  0.00    +0.144 C 
ATOM      4  N   UNL     1       1.425   5.249   0.407  0.00  0.00    -0.285 N 
ATOM      5  C   UNL     1       2.039   6.267  -0.222  0.00  0.00    +0.288 C 
ATOM      6  O   UNL     1       2.020   7.424   0.144  0.00  0.00    -0.266 OA
ATOM      7  C   UNL     1       2.746   5.767  -1.432  0.00  0.00    +0.249 C 
ATOM      8  O   UNL     1       3.395   6.442  -2.211  0.00  0.00    -0.282 OA
ENDROOT
BRANCH   3   9
ATOM      9  C   UNL     1       0.373   3.418  -0.806  0.00  0.00    -0.022 A 
ATOM     10  C   UNL     1       0.143   2.061  -0.673  0.00  0.00    +0.008 A 
ATOM     11  C   UNL     1      -1.051   1.517  -1.107  0.00  0.00    +0.038 A 
ATOM     12  C   UNL     1      -2.015   2.330  -1.679  0.00  0.00    +0.123 A 
ATOM     13  C   UNL     1      -1.785   3.689  -1.807  0.00  0.00    +0.038 A 
ATOM     14  C   UNL     1      -0.590   4.231  -1.373  0.00  0.00    +0.008 A 
ATOM     15  F   UNL     1      -3.180   1.798  -2.108  0.00  0.00    -0.205 F 
ENDBRANCH   3   9
BRANCH   1  19
ATOM     16  C   UNL     1       2.469  -0.660  -2.109  0.00  0.00    +0.000 A 
ATOM     17  C   UNL     1       2.158  -0.032  -3.302  0.00  0.00    +0.001 A 
ATOM     18  C   UNL     1       2.334   1.329  -3.435  0.00  0.00    +0.011 A 
ATOM     19  C   UNL     1       2.827   2.075  -2.360  0.00  0.00    +0.017 A 
ATOM     20  C   UNL     1       3.143   1.432  -1.159  0.00  0.00    +0.011 A 
ATOM     21  C   UNL     1       2.957   0.071  -1.040  0.00  0.00    +0.001 A 
ENDBRANCH   1  19
BRANCH   1  22
ATOM     22  O   UNL     1       3.665   4.030  -3.568  0.00  0.00    -0.506 OA
ATOM     23  H   UNL     1       3.705   5.027  -3.498  0.00  0.00    +0.292 HD
ENDBRANCH   1  22
BRANCH   4  24
ATOM     24  C   UNL     1       0.632   5.361   1.633  0.00  0.00    +0.090 C 
BRANCH  24  25
ATOM     25  C   UNL     1       1.542   5.169   2.849  0.00  0.00    -0.063 C 
BRANCH  25  26
ATOM     26  N   UNL     1       0.736   5.283   4.079  0.00  0.00    +0.382 N 
ATOM     27  H   UNL     1       0.005   4.561   4.073  0.00  0.00    -0.086 HD
ATOM     28  H   UNL     1       0.299   6.211   4.113  0.00  0.00    -0.086 HD
BRANCH  26  29
ATOM     29  C   UNL     1       1.589   5.102   5.268  0.00  0.00    -0.054 C 
BRANCH  29  30
ATOM     30  C   UNL     1       0.727   5.224   6.527  0.00  0.00    +0.137 C 
BRANCH  30  31
ATOM     31  O   UNL     1      -0.215   4.151   6.566  0.00  0.00    -0.397 OA
ATOM     32  H   UNL     1      -0.796   4.165   7.338  0.00  0.00    +0.209 HD
ENDBRANCH  30  31
ENDBRANCH  29  30
ENDBRANCH  26  29
ENDBRANCH  25  26
ENDBRANCH  24  25
ENDBRANCH   4  24
TORSDOF 9
