REMARK  Name = ZINC08972982
REMARK  8 active torsions:
REMARK  status: ('A' for Active; 'I' for Inactive)
REMARK    1  A    between atoms: C_1  and  N_51
REMARK    2  A    between atoms: C_8  and  O_25
REMARK    3  A    between atoms: C_10  and  C_12
REMARK    4  A    between atoms: C_12  and  N_13
REMARK    5  A    between atoms: C_14  and  C_15
REMARK    6  A    between atoms: C_16  and  O_24
REMARK    7  A    between atoms: N_20  and  C_23
REMARK    8  A    between atoms: O_25  and  C_26
REMARK                            x       y       z     vdW  Elec       q    Type
REMARK                         _______ _______ _______ _____ _____    ______ ____
ROOT
ATOM      1  C   UNL     1      -1.196   3.647   0.052  0.00  0.00    -0.095 C 
ATOM      2  C   UNL     1      -0.498   3.832   2.365  0.00  0.00    -0.074 C 
ATOM      3  C   UNL     1       0.727   3.642   3.261  0.00  0.00    +0.017 C 
ATOM      4  C   UNL     1       1.145   2.193   3.261  0.00  0.00    -0.040 A 
ATOM      5  C   UNL     1       1.993   1.752   4.265  0.00  0.00    +0.053 A 
ATOM      6  C   UNL     1       2.407   0.431   4.305  0.00  0.00    +0.170 A 
ATOM      7  C   UNL     1       1.969  -0.459   3.330  0.00  0.00    +0.208 A 
ATOM      8  C   UNL     1       1.119  -0.014   2.328  0.00  0.00    +0.167 A 
ATOM      9  C   UNL     1       0.705   1.314   2.294  0.00  0.00    -0.011 A 
ATOM     10  C   UNL     1      -0.221   1.747   1.188  0.00  0.00    -0.012 C 
ATOM     11  O   UNL     1       2.510  -1.687   3.584  0.00  0.00    -0.449 OA
ATOM     12  C   UNL     1       2.954  -1.635   4.953  0.00  0.00    +0.467 C 
ATOM     13  O   UNL     1       3.224  -0.238   5.171  0.00  0.00    -0.452 OA
ATOM     14  N   UNL     1      -0.200   3.213   1.056  0.00  0.00    +0.384 N 
ATOM     15  H   UNL     1       0.734   3.510   0.750  0.00  0.00    -0.081 HD
ENDROOT
BRANCH   8  16
ATOM     16  O   UNL     1       0.688  -0.881   1.373  0.00  0.00    -0.491 OA
ATOM     17  C   UNL     1      -0.569  -1.523   1.598  0.00  0.00    +0.277 C 
ENDBRANCH   8  16
BRANCH  10  18
ATOM     18  C   UNL     1       0.243   1.127  -0.132  0.00  0.00    +0.130 C 
BRANCH  18  19
ATOM     19  N   UNL     1       1.582   1.623  -0.460  0.00  0.00    -0.296 NA
ATOM     20  C   UNL     1       2.237   1.135  -1.530  0.00  0.00    +0.099 C 
BRANCH  20  21
ATOM     21  C   UNL     1       3.504   1.605  -1.841  0.00  0.00    +0.199 C 
ATOM     22  C   UNL     1       4.302   1.006  -2.919  0.00  0.00    +0.198 C 
ATOM     23  N   UNL     1       5.504   1.501  -3.165  0.00  0.00    -0.131 NA
ATOM     24  C   UNL     1       6.004   2.518  -2.469  0.00  0.00    +0.335 C 
ATOM     25  O   UNL     1       7.119   2.919  -2.755  0.00  0.00    -0.250 OA
ATOM     26  N   UNL     1       5.349   3.126  -1.469  0.00  0.00    -0.227 N 
ATOM     27  C   UNL     1       4.108   2.733  -1.109  0.00  0.00    +0.240 C 
ATOM     28  O   UNL     1       3.511   3.288  -0.205  0.00  0.00    -0.274 OA
ATOM     29  C   UNL     1       5.986   4.239  -0.762  0.00  0.00    +0.143 C 
BRANCH  22  30
ATOM     30  O   UNL     1       3.820  -0.027  -3.642  0.00  0.00    -0.496 OA
ATOM     31  H   UNL     1       4.425  -0.345  -4.325  0.00  0.00    +0.293 HD
ENDBRANCH  22  30
ENDBRANCH  20  21
ENDBRANCH  18  19
ENDBRANCH  10  18
TORSDOF 5
