REMARK  Name = ZINC00130263
REMARK  2 active torsions:
REMARK  status: ('A' for Active; 'I' for Inactive)
REMARK    1  A    between atoms: C_10  and  N_11
REMARK    2  A    between atoms: C_12  and  C_14
REMARK                            x       y       z     vdW  Elec       q    Type
REMARK                         _______ _______ _______ _____ _____    ______ ____
ROOT
ATOM      1  N   UNL     1       4.871   0.097  -0.045  0.00  0.00    -0.281 N 
ATOM      2  C   UNL     1       6.046  -0.556   0.042  0.00  0.00    +0.255 C 
ATOM      3  O   UNL     1       6.068  -1.772   0.036  0.00  0.00    -0.270 OA
ATOM      4  H   UNL     1       4.857   1.065  -0.106  0.00  0.00    +0.155 HD
ENDROOT
BRANCH   2   5
ATOM      5  C   UNL     1       7.304   0.202   0.144  0.00  0.00    +0.122 A 
ATOM      6  C   UNL     1       8.530  -0.443   0.229  0.00  0.00    +0.031 A 
ATOM      7  C   UNL     1       9.697   0.354   0.357  0.00  0.00    +0.018 A 
ATOM      8  C   UNL     1      10.970  -0.223   0.247  0.00  0.00    +0.011 A 
ATOM      9  C   UNL     1      12.082   0.565   0.331  0.00  0.00    +0.001 A 
ATOM     10  C   UNL     1      11.964   1.933   0.533  0.00  0.00    +0.004 A 
ATOM     11  C   UNL     1      10.722   2.519   0.664  0.00  0.00    +0.047 A 
ATOM     12  C   UNL     1       9.578   1.737   0.589  0.00  0.00    +0.139 A 
ATOM     13  O   UNL     1       8.355   2.295   0.759  0.00  0.00    -0.422 OA
ATOM     14  C   UNL     1       7.312   1.676   0.153  0.00  0.00    +0.350 A 
ATOM     15  O   UNL     1       6.411   2.313  -0.360  0.00  0.00    -0.244 OA
ENDBRANCH   2   5
BRANCH   1  25
ATOM     16  C   UNL     1       0.237   0.923   1.776  0.00  0.00    +0.001 A 
ATOM     17  C   UNL     1       1.423   1.654   1.791  0.00  0.00    +0.001 A 
ATOM     18  C   UNL     1       2.551   1.169   1.203  0.00  0.00    +0.010 A 
ATOM     19  C   UNL     1       2.523  -0.084   0.572  0.00  0.00    +0.003 A 
ATOM     20  C   UNL     1       1.318  -0.829   0.557  0.00  0.00    -0.016 A 
ATOM     21  C   UNL     1       0.172  -0.296   1.174  0.00  0.00    +0.008 A 
ATOM     22  C   UNL     1       1.288  -2.084  -0.073  0.00  0.00    +0.008 A 
ATOM     23  C   UNL     1       2.413  -2.576  -0.663  0.00  0.00    +0.002 A 
ATOM     24  C   UNL     1       3.603  -1.854  -0.654  0.00  0.00    +0.024 A 
ATOM     25  C   UNL     1       3.673  -0.618  -0.048  0.00  0.00    +0.041 A 
ENDBRANCH   1  25
TORSDOF 2
