REMARK  Name = ZINC15932436
REMARK  4 active torsions:
REMARK  status: ('A' for Active; 'I' for Inactive)
REMARK    1  A    between atoms: C_1  and  C_2
REMARK    2  A    between atoms: C_2  and  N_3
REMARK    3  A    between atoms: N_3  and  C_4
REMARK    4  A    between atoms: C_4  and  C_5
REMARK                            x       y       z     vdW  Elec       q    Type
REMARK                         _______ _______ _______ _____ _____    ______ ____
ROOT
ATOM      1  N   UNL     1       5.677  -0.591   1.132  0.00  0.00    -0.286 N 
ATOM      2  C   UNL     1       5.833   0.663   1.601  0.00  0.00    +0.305 C 
ATOM      3  O   UNL     1       6.915   1.211   1.523  0.00  0.00    -0.252 OA
ATOM      4  N   UNL     1       4.788   1.310   2.155  0.00  0.00    -0.282 N 
ATOM      5  C   UNL     1       3.409   0.937   1.812  0.00  0.00    +0.128 C 
ATOM      6  C   UNL     1       2.674   2.186   1.311  0.00  0.00    +0.128 C 
ATOM      7  N   UNL     1       2.894   3.277   2.271  0.00  0.00    -0.282 N 
ATOM      8  C   UNL     1       4.273   3.650   2.615  0.00  0.00    +0.128 C 
ATOM      9  C   UNL     1       5.009   2.401   3.115  0.00  0.00    +0.128 C 
ATOM     10  C   UNL     1       1.850   3.927   2.822  0.00  0.00    +0.305 C 
ATOM     11  O   UNL     1       0.782   3.963   2.243  0.00  0.00    -0.252 OA
ATOM     12  N   UNL     1       1.990   4.537   4.016  0.00  0.00    -0.285 N 
ATOM     13  C   UNL     1       3.105   4.191   4.907  0.00  0.00    +0.109 C 
ATOM     14  C   UNL     1       3.851   5.482   5.280  0.00  0.00    +0.019 C 
ATOM     15  C   UNL     1       2.859   6.484   5.875  0.00  0.00    +0.003 C 
ATOM     16  C   UNL     1       1.792   6.828   4.833  0.00  0.00    +0.019 C 
ATOM     17  C   UNL     1       1.026   5.557   4.452  0.00  0.00    +0.109 C 
ENDROOT
BRANCH   1  19
ATOM     18  C   UNL     1       3.761  -1.680   0.071  0.00  0.00    +0.024 C 
ATOM     19  C   UNL     1       4.436  -1.323   1.397  0.00  0.00    +0.106 C 
ENDBRANCH   1  19
BRANCH   1  20
ATOM     20  C   UNL     1       6.748  -1.222   0.358  0.00  0.00    +0.106 C 
ATOM     21  C   UNL     1       7.691  -1.967   1.305  0.00  0.00    +0.024 C 
ENDBRANCH   1  20
TORSDOF 2
