REMARK  Name = ZINC66232727
REMARK  5 active torsions:
REMARK  status: ('A' for Active; 'I' for Inactive)
REMARK    1  A    between atoms: N_8  and  C_11
REMARK    2  A    between atoms: C_11  and  C_12
REMARK    3  A    between atoms: C_12  and  C_13
REMARK    4  A    between atoms: C_13  and  N_14
REMARK    5  A    between atoms: C_21  and  C_23
REMARK                            x       y       z     vdW  Elec       q    Type
REMARK                         _______ _______ _______ _____ _____    ______ ____
ROOT
ATOM      1  N   UNL     1       5.082  -5.476   2.745  0.00  0.00    -0.299 N 
ATOM      2  C   UNL     1       5.782  -6.604   2.978  0.00  0.00    +0.303 C 
ATOM      3  O   UNL     1       6.189  -7.270   2.046  0.00  0.00    -0.253 OA
ATOM      4  N   UNL     1       6.031  -6.993   4.244  0.00  0.00    -0.279 N 
ATOM      5  C   UNL     1       5.593  -6.286   5.462  0.00  0.00    +0.110 C 
ATOM      6  C   UNL     1       5.558  -7.377   6.562  0.00  0.00    +0.021 C 
ATOM      7  C   UNL     1       6.788  -8.242   6.182  0.00  0.00    +0.029 C 
ATOM      8  C   UNL     1       6.779  -8.195   4.640  0.00  0.00    +0.108 C 
ATOM      9  H   UNL     1       4.757  -4.944   3.489  0.00  0.00    +0.150 HD
ENDROOT
BRANCH   8  10
ATOM     10  C   UNL     1       8.192  -8.113   4.124  0.00  0.00    -0.027 A 
ATOM     11  C   UNL     1       8.864  -6.905   4.139  0.00  0.00    +0.008 A 
ATOM     12  C   UNL     1      10.160  -6.828   3.666  0.00  0.00    +0.038 A 
ATOM     13  C   UNL     1      10.786  -7.962   3.177  0.00  0.00    +0.123 A 
ATOM     14  C   UNL     1      10.112  -9.171   3.162  0.00  0.00    +0.038 A 
ATOM     15  C   UNL     1       8.818  -9.247   3.640  0.00  0.00    +0.008 A 
ATOM     16  F   UNL     1      12.053  -7.888   2.714  0.00  0.00    -0.205 F 
ENDBRANCH   8  10
BRANCH   1  17
ATOM     17  C   UNL     1       4.811  -5.053   1.369  0.00  0.00    +0.107 C 
BRANCH  17  18
ATOM     18  C   UNL     1       4.005  -3.753   1.384  0.00  0.00    +0.042 C 
BRANCH  18  19
ATOM     19  C   UNL     1       3.722  -3.312  -0.054  0.00  0.00    +0.150 C 
BRANCH  19  27
ATOM     20  C   UNL     1      -0.016   1.351   0.009  0.00  0.00    +0.005 A 
ATOM     21  C   UNL     1       1.197   2.070   0.002  0.00  0.00    +0.018 A 
ATOM     22  C   UNL     1       2.375   1.423  -0.013  0.00  0.00    +0.098 A 
ATOM     23  N   UNL     1       2.421   0.049  -0.022  0.00  0.00    -0.251 N 
ATOM     24  C   UNL     1       1.248  -0.682  -0.014  0.00  0.00    +0.162 A 
ATOM     25  C   UNL     1       0.002  -0.004   0.002  0.00  0.00    +0.049 A 
ATOM     26  N   UNL     1       1.553  -1.958  -0.024  0.00  0.00    -0.149 NA
ATOM     27  N   UNL     1       2.950  -2.066  -0.039  0.00  0.00    -0.212 N 
ATOM     28  C   UNL     1       3.456  -0.816  -0.037  0.00  0.00    +0.351 A 
ATOM     29  O   UNL     1       4.638  -0.520  -0.048  0.00  0.00    -0.244 OA
ENDBRANCH  19  27
ENDBRANCH  18  19
ENDBRANCH  17  18
ENDBRANCH   1  17
TORSDOF 5
