REMARK  Name = ZINC56800603
REMARK  4 active torsions:
REMARK  status: ('A' for Active; 'I' for Inactive)
REMARK    1  A    between atoms: C_1  and  C_2
REMARK    2  A    between atoms: N_11  and  C_12
REMARK    3  A    between atoms: C_12  and  C_13
REMARK    4  A    between atoms: C_13  and  C_19
REMARK                            x       y       z     vdW  Elec       q    Type
REMARK                         _______ _______ _______ _____ _____    ______ ____
ROOT
ATOM      1  C   UNL     1       2.442  -6.372   1.763  0.00  0.00    +0.016 C 
ATOM      2  C   UNL     1       3.711  -7.224   1.867  0.00  0.00    +0.041 C 
ATOM      3  C   UNL     1       4.581  -6.984   0.631  0.00  0.00    +0.160 C 
ATOM      4  O   UNL     1       3.832  -7.297  -0.546  0.00  0.00    -0.380 OA
ATOM      5  C   UNL     1       2.660  -6.498  -0.721  0.00  0.00    +0.160 C 
ATOM      6  C   UNL     1       1.712  -6.719   0.462  0.00  0.00    +0.041 C 
ENDROOT
BRANCH   1   7
ATOM      7  C   UNL     1       1.542  -6.658   2.937  0.00  0.00    -0.037 A 
ATOM      8  C   UNL     1       0.309  -7.248   2.735  0.00  0.00    +0.004 A 
ATOM      9  C   UNL     1      -0.517  -7.511   3.812  0.00  0.00    +0.003 A 
ATOM     10  C   UNL     1      -0.112  -7.183   5.091  0.00  0.00    +0.038 A 
ATOM     11  C   UNL     1       1.123  -6.591   5.295  0.00  0.00    +0.124 A 
ATOM     12  C   UNL     1       1.953  -6.334   4.216  0.00  0.00    +0.042 A 
ATOM     13  F   UNL     1       1.521  -6.270   6.545  0.00  0.00    -0.205 F 
ENDBRANCH   1   7
BRANCH   1  14
ATOM     14  C   UNL     1       2.821  -4.889   1.757  0.00  0.00    +0.117 C 
BRANCH  14  24
ATOM     15  C   UNL     1      -3.010  -2.537   2.301  0.00  0.00    +0.009 C 
ATOM     16  C   UNL     1      -1.582  -1.999   2.411  0.00  0.00    +0.003 C 
ATOM     17  C   UNL     1      -1.597  -0.476   2.263  0.00  0.00    +0.006 C 
ATOM     18  C   UNL     1      -0.173   0.066   2.405  0.00  0.00    +0.019 C 
ATOM     19  C   UNL     1       0.705  -0.519   1.294  0.00  0.00    +0.109 C 
ATOM     20  N   UNL     1       0.610  -1.984   1.338  0.00  0.00    -0.285 N 
ATOM     21  C   UNL     1      -0.720  -2.608   1.300  0.00  0.00    +0.112 C 
ATOM     22  C   UNL     1       1.721  -2.743   1.412  0.00  0.00    +0.302 C 
ATOM     23  O   UNL     1       2.818  -2.222   1.347  0.00  0.00    -0.253 OA
ATOM     24  N   UNL     1       1.617  -4.079   1.557  0.00  0.00    -0.298 N 
ATOM     25  H   UNL     1       0.746  -4.503   1.530  0.00  0.00    +0.150 HD
ENDBRANCH  14  24
ENDBRANCH   1  14
TORSDOF 3
