REMARK  Name = ZINC64111745
REMARK  7 active torsions:
REMARK  status: ('A' for Active; 'I' for Inactive)
REMARK    1  A    between atoms: C_1  and  C_2
REMARK    2  A    between atoms: C_3  and  C_8
REMARK    3  A    between atoms: C_4  and  C_7
REMARK    4  A    between atoms: C_8  and  N_9
REMARK    5  A    between atoms: N_12  and  C_15
REMARK    6  A    between atoms: C_15  and  N_16
REMARK    7  A    between atoms: C_22  and  C_25
REMARK                            x       y       z     vdW  Elec       q    Type
REMARK                         _______ _______ _______ _____ _____    ______ ____
ROOT
ATOM      1  C   UNL     1       4.917   1.419  -4.704  0.00  0.00    +0.205 C 
ENDROOT
BRANCH   1   2
ATOM      2  N   UNL     1       4.916   2.208  -5.939  0.00  0.00    -0.211 N 
ATOM      3  C   UNL     1       4.824   1.678  -7.176  0.00  0.00    +0.248 C 
ATOM      4  O   UNL     1       4.730   0.504  -7.468  0.00  0.00    -0.273 OA
ATOM      5  C   UNL     1       4.862   2.855  -8.124  0.00  0.00    +0.113 C 
ATOM      6  C   UNL     1       3.572   2.929  -8.933  0.00  0.00    +0.035 C 
ATOM      7  C   UNL     1       3.618   4.144  -9.863  0.00  0.00    +0.006 C 
ATOM      8  C   UNL     1       4.822   4.022 -10.800  0.00  0.00    -0.014 C 
ATOM      9  C   UNL     1       6.109   3.973  -9.974  0.00  0.00    +0.006 C 
ATOM     10  C   UNL     1       6.073   2.757  -9.045  0.00  0.00    +0.035 C 
ATOM     11  C   UNL     1       4.863   5.230 -11.737  0.00  0.00    +0.007 C 
ATOM     12  N   UNL     1       4.982   4.021  -7.239  0.00  0.00    -0.285 N 
ATOM     13  C   UNL     1       5.000   3.543  -5.980  0.00  0.00    +0.310 C 
ATOM     14  O   UNL     1       5.087   4.245  -4.991  0.00  0.00    -0.252 OA
ATOM     15  H   UNL     1       5.033   4.951  -7.508  0.00  0.00    +0.151 HD
ENDBRANCH   1   2
BRANCH   1  19
ATOM     16  N   UNL     1       1.375  -0.174  -3.042  0.00  0.00    -0.296 NA
ATOM     17  C   UNL     1       2.045   0.917  -2.320  0.00  0.00    +0.100 C 
ATOM     18  C   UNL     1       3.500   1.013  -2.782  0.00  0.00    +0.101 C 
ATOM     19  N   UNL     1       3.536   1.246  -4.233  0.00  0.00    -0.284 NA
ATOM     20  C   UNL     1       2.867   0.155  -4.955  0.00  0.00    +0.101 C 
ATOM     21  C   UNL     1       1.411   0.058  -4.492  0.00  0.00    +0.100 C 
BRANCH  16  22
ATOM     22  C   UNL     1      -0.005  -0.348  -2.571  0.00  0.00    +0.125 C 
BRANCH  22  25
ATOM     23  C   UNL     1      -0.018   1.503   0.010  0.00  0.00    +0.069 C 
ATOM     24  C   UNL     1       0.002  -0.004   0.002  0.00  0.00    +0.085 A 
ATOM     25  C   UNL     1       0.008  -0.824  -1.141  0.00  0.00    +0.031 A 
ATOM     26  C   UNL     1       0.027  -2.108  -0.735  0.00  0.00    +0.139 A 
ATOM     27  O   UNL     1       0.034  -2.119   0.606  0.00  0.00    -0.359 OA
ATOM     28  N   UNL     1       0.023  -0.775   1.052  0.00  0.00    -0.083 NA
ATOM     29  C   UNL     1       0.039  -3.320  -1.631  0.00  0.00    +0.089 C 
ENDBRANCH  22  25
ENDBRANCH  16  22
ENDBRANCH   1  19
TORSDOF 4
