REMARK  Name = ZINC46493057
REMARK  3 active torsions:
REMARK  status: ('A' for Active; 'I' for Inactive)
REMARK    1  A    between atoms: C_1  and  C_2
REMARK    2  A    between atoms: C_5  and  C_7
REMARK    3  A    between atoms: C_8  and  C_9
REMARK                            x       y       z     vdW  Elec       q    Type
REMARK                         _______ _______ _______ _____ _____    ______ ____
ROOT
ATOM      1  C   UNL     1       3.256  -2.936  -0.131  0.00  0.00    +0.240 C 
ATOM      2  O   UNL     1       2.798  -1.824   0.059  0.00  0.00    -0.271 OA
ATOM      3  N   UNL     1       4.578  -3.094  -0.341  0.00  0.00    -0.290 N 
ATOM      4  C   UNL     1       5.175  -4.433  -0.471  0.00  0.00    +0.136 C 
ATOM      5  C   UNL     1       6.026  -4.468  -1.745  0.00  0.00    +0.179 C 
ATOM      6  O   UNL     1       6.933  -3.361  -1.741  0.00  0.00    -0.373 OA
ATOM      7  C   UNL     1       6.291  -2.086  -1.736  0.00  0.00    +0.139 C 
ATOM      8  C   UNL     1       5.478  -1.931  -0.453  0.00  0.00    +0.105 C 
ATOM      9  C   UNL     1       6.423  -1.935   0.752  0.00  0.00    +0.025 C 
ATOM     10  C   UNL     1       7.434  -0.796   0.621  0.00  0.00    +0.002 C 
ATOM     11  C   UNL     1       8.256  -0.994  -0.654  0.00  0.00    +0.003 C 
ATOM     12  C   UNL     1       7.324  -0.969  -1.838  0.00  0.00    +0.033 C 
ENDROOT
BRANCH   1  14
ATOM     13  C   UNL     1       1.065  -3.900  -0.300  0.00  0.00    +0.020 C 
ATOM     14  C   UNL     1       2.401  -4.063  -0.132  0.00  0.00    +0.068 C 
BRANCH  13  19
ATOM     15  C   UNL     1       0.229   0.651  -3.282  0.00  0.00    +0.051 C 
ATOM     16  C   UNL     1       0.183  -0.594  -2.435  0.00  0.00    -0.013 A 
ATOM     17  C   UNL     1      -0.907  -1.201  -1.904  0.00  0.00    +0.011 A 
ATOM     18  C   UNL     1      -0.740  -2.340  -1.154  0.00  0.00    +0.016 A 
ATOM     19  C   UNL     1       0.572  -2.775  -1.005  0.00  0.00    +0.013 A 
ATOM     20  S   UNL     1       1.471  -1.553  -1.940  0.00  0.00    -0.094 S 
ENDBRANCH  13  19
ENDBRANCH   1  14
TORSDOF 2
