REMARK  Name = ZINC63110985
REMARK  7 active torsions:
REMARK  status: ('A' for Active; 'I' for Inactive)
REMARK    1  A    between atoms: C_1  and  C_2
REMARK    2  A    between atoms: N_4  and  C_5
REMARK    3  A    between atoms: C_5  and  C_6
REMARK    4  A    between atoms: C_6  and  C_7
REMARK    5  A    between atoms: C_10  and  C_13
REMARK    6  A    between atoms: C_19  and  C_21
REMARK    7  A    between atoms: C_21  and  C_22
REMARK                            x       y       z     vdW  Elec       q    Type
REMARK                         _______ _______ _______ _____ _____    ______ ____
ROOT
ATOM      1  C   UNL     1       0.091  -8.397  -2.654  0.00  0.00    +0.080 A 
ATOM      2  C   UNL     1      -1.080  -9.103  -2.657  0.00  0.00    +0.076 A 
ATOM      3  S   UNL     1      -0.456 -10.778  -2.667  0.00  0.00    -0.060 S 
ATOM      4  C   UNL     1       1.284 -10.369  -2.666  0.00  0.00    +0.165 A 
ATOM      5  N   UNL     1       1.244  -9.050  -2.664  0.00  0.00    -0.225 NA
ATOM      6  N   UNL     1       2.386 -11.215  -2.672  0.00  0.00    -0.264 N 
ATOM      7  C   UNL     1       2.210 -12.551  -2.680  0.00  0.00    +0.223 C 
ATOM      8  O   UNL     1       1.090 -13.015  -2.682  0.00  0.00    -0.275 OA
ATOM      9  H   UNL     1       3.283 -10.844  -2.671  0.00  0.00    +0.157 HD
ENDROOT
BRANCH   1  13
ATOM     10  C   UNL     1       0.034  -4.146  -2.630  0.00  0.00    -0.046 A 
ATOM     11  C   UNL     1       1.242  -4.818  -2.640  0.00  0.00    +0.004 A 
ATOM     12  C   UNL     1       1.267  -6.198  -2.647  0.00  0.00    +0.010 A 
ATOM     13  C   UNL     1       0.071  -6.914  -2.645  0.00  0.00    +0.001 A 
ATOM     14  C   UNL     1      -1.144  -6.231  -2.635  0.00  0.00    +0.010 A 
ATOM     15  C   UNL     1      -1.157  -4.851  -2.623  0.00  0.00    +0.004 A 
BRANCH  10  16
ATOM     16  C   UNL     1       0.013  -2.639  -2.622  0.00  0.00    +0.054 C 
BRANCH  16  17
ATOM     17  C   UNL     1       0.020  -2.136  -1.177  0.00  0.00    +0.109 C 
BRANCH  17  21
ATOM     18  C   UNL     1      -0.018   1.503   0.010  0.00  0.00    +0.109 C 
ATOM     19  C   UNL     1       0.002  -0.004   0.002  0.00  0.00    +0.210 C 
ATOM     20  O   UNL     1       0.020  -0.616   1.049  0.00  0.00    -0.276 OA
ATOM     21  N   UNL     1       0.000  -0.672  -1.169  0.00  0.00    -0.315 N 
ATOM     22  H   UNL     1      -0.015  -0.182  -2.006  0.00  0.00    +0.149 HD
ENDBRANCH  17  21
ENDBRANCH  16  17
ENDBRANCH  10  16
ENDBRANCH   1  13
BRANCH   7  23
ATOM     23  C   UNL     1       3.406 -13.469  -2.687  0.00  0.00    +0.129 C 
BRANCH  23  24
ATOM     24  C   UNL     1       2.939 -14.902  -2.695  0.00  0.00    -0.033 C 
ATOM     25  C   UNL     1       2.782 -15.699  -3.776  0.00  0.00    -0.001 A 
ATOM     26  C   UNL     1       2.988 -15.479  -5.213  0.00  0.00    +0.010 A 
ATOM     27  C   UNL     1       2.739 -16.492  -6.074  0.00  0.00    +0.001 A 
ATOM     28  C   UNL     1       2.289 -17.743  -5.630  0.00  0.00    +0.002 A 
ATOM     29  C   UNL     1       2.076 -18.021  -4.326  0.00  0.00    +0.026 A 
ATOM     30  C   UNL     1       2.307 -17.029  -3.333  0.00  0.00    +0.043 A 
ATOM     31  N   UNL     1       2.175 -17.053  -2.029  0.00  0.00    -0.380 N 
ATOM     32  C   UNL     1       2.559 -15.741  -1.496  0.00  0.00    +0.145 C 
ATOM     33  H   UNL     1       1.879 -17.813  -1.504  0.00  0.00    +0.160 HD
ENDBRANCH  23  24
ENDBRANCH   7  23
TORSDOF 6
