REMARK  Name = ZINC45251601
REMARK  6 active torsions:
REMARK  status: ('A' for Active; 'I' for Inactive)
REMARK    1  A    between atoms: C_1  and  C_2
REMARK    2  A    between atoms: C_2  and  C_3
REMARK    3  A    between atoms: C_10  and  C_15
REMARK    4  A    between atoms: C_15  and  O_16
REMARK    5  A    between atoms: O_16  and  C_17
REMARK    6  A    between atoms: C_17  and  C_19
REMARK                            x       y       z     vdW  Elec       q    Type
REMARK                         _______ _______ _______ _____ _____    ______ ____
ROOT
ATOM      1  C   UNL     1       0.707  -0.490  -1.238  0.00  0.00    -0.026 A 
ATOM      2  C   UNL     1       2.021  -0.902  -1.159  0.00  0.00    +0.052 A 
ATOM      3  C   UNL     1       2.678  -1.351  -2.297  0.00  0.00    +0.140 A 
ATOM      4  C   UNL     1       1.992  -1.381  -3.524  0.00  0.00    +0.025 A 
ATOM      5  C   UNL     1       0.660  -0.960  -3.590  0.00  0.00    +0.032 A 
ATOM      6  C   UNL     1       0.026  -0.524  -2.447  0.00  0.00    +0.045 A 
ATOM      7 CL   UNL     1      -1.629  -0.008  -2.521  0.00  0.00    -0.083 Cl
ATOM      8  C   UNL     1       2.694  -1.857  -4.720  0.00  0.00    +0.007 A 
ATOM      9  C   UNL     1       3.986  -2.251  -4.590  0.00  0.00    +0.099 A 
ATOM     10  C   UNL     1       4.613  -2.194  -3.327  0.00  0.00    +0.338 A 
ATOM     11  O   UNL     1       5.773  -2.550  -3.223  0.00  0.00    -0.245 OA
ATOM     12  O   UNL     1       3.964  -1.757  -2.236  0.00  0.00    -0.422 OA
ENDROOT
BRANCH   1  14
ATOM     13  C   UNL     1      -0.019   1.526   0.010  0.00  0.00    +0.009 C 
ATOM     14  C   UNL     1       0.002  -0.004   0.002  0.00  0.00    +0.033 C 
ENDBRANCH   1  14
BRANCH   8  15
ATOM     15  C   UNL     1       2.000  -1.907  -6.057  0.00  0.00    +0.269 C 
BRANCH  15  16
ATOM     16  O   UNL     1       2.904  -2.406  -7.044  0.00  0.00    -0.454 OA
BRANCH  16  17
ATOM     17  C   UNL     1       2.436  -2.514  -8.305  0.00  0.00    +0.375 C 
ATOM     18  O   UNL     1       1.290  -2.193  -8.557  0.00  0.00    -0.241 OA
BRANCH  17  19
ATOM     19  C   UNL     1       3.307  -3.017  -9.369  0.00  0.00    +0.211 A 
ATOM     20  C   UNL     1       2.963  -3.171 -10.683  0.00  0.00    +0.056 A 
ATOM     21  C   UNL     1       4.095  -3.677 -11.339  0.00  0.00    +0.042 A 
ATOM     22  C   UNL     1       5.068  -3.808 -10.411  0.00  0.00    +0.196 A 
ATOM     23  O   UNL     1       4.591  -3.405  -9.226  0.00  0.00    -0.456 OA
ENDBRANCH  17  19
ENDBRANCH  16  17
ENDBRANCH  15  16
ENDBRANCH   8  15
TORSDOF 5
