REMARK  Name = ZINC07667010
REMARK  5 active torsions:
REMARK  status: ('A' for Active; 'I' for Inactive)
REMARK    1  A    between atoms: C_1  and  C_2
REMARK    2  A    between atoms: C_3  and  C_14
REMARK    3  A    between atoms: C_4  and  C_12
REMARK    4  A    between atoms: C_5  and  N_7
REMARK    5  A    between atoms: N_16  and  C_17
REMARK                            x       y       z     vdW  Elec       q    Type
REMARK                         _______ _______ _______ _____ _____    ______ ____
ROOT
ATOM      1  C   UNL     1      -1.245  -2.709  -2.272  0.00  0.00    +0.087 C 
ATOM      2  C   UNL     1      -1.163  -3.058  -0.808  0.00  0.00    +0.118 A 
ATOM      3  C   UNL     1      -1.122  -2.163   0.214  0.00  0.00    +0.097 A 
ATOM      4  C   UNL     1      -1.037  -2.971   1.451  0.00  0.00    +0.127 A 
ATOM      5  C   UNL     1      -1.046  -4.285   1.029  0.00  0.00    +0.223 A 
ATOM      6  O   UNL     1      -1.117  -4.300  -0.310  0.00  0.00    -0.442 OA
ENDROOT
BRANCH   5   7
ATOM      7  N   UNL     1      -0.985  -5.402   1.851  0.00  0.00    -0.293 N 
ATOM      8  C   UNL     1      -0.907  -5.385   3.216  0.00  0.00    +0.094 A 
ATOM      9  C   UNL     1      -0.869  -6.660   3.651  0.00  0.00    +0.020 A 
ATOM     10  C   UNL     1      -0.916  -7.497   2.517  0.00  0.00    +0.020 A 
ATOM     11  C   UNL     1      -0.987  -6.703   1.430  0.00  0.00    +0.094 A 
ENDBRANCH   5   7
BRANCH   3  12
ATOM     12  C   UNL     1      -1.150  -0.694   0.111  0.00  0.00    +0.253 C 
ATOM     13  O   UNL     1      -2.214  -0.104   0.124  0.00  0.00    -0.270 OA
ATOM     14  N   UNL     1       0.002  -0.004   0.002  0.00  0.00    -0.281 N 
ATOM     15  H   UNL     1       0.845  -0.477  -0.076  0.00  0.00    +0.155 HD
BRANCH  14  16
ATOM     16  C   UNL     1      -0.018   1.394   0.002  0.00  0.00    +0.035 A 
ATOM     17  C   UNL     1       1.017   2.105   0.598  0.00  0.00    +0.023 A 
ATOM     18  C   UNL     1       0.995   3.486   0.597  0.00  0.00    +0.003 A 
ATOM     19  C   UNL     1      -0.055   4.162   0.002  0.00  0.00    +0.020 A 
ATOM     20  C   UNL     1      -1.087   3.458  -0.592  0.00  0.00    +0.043 A 
ATOM     21  C   UNL     1      -1.068   2.075  -0.599  0.00  0.00    +0.043 A 
ATOM     22 CL   UNL     1      -2.403   4.310  -1.337  0.00  0.00    -0.083 Cl
ENDBRANCH  14  16
ENDBRANCH   3  12
BRANCH   4  23
ATOM     23  C   UNL     1      -0.966  -2.492   2.799  0.00  0.00    +0.105 C 
ATOM     24  N   UNL     1      -0.908  -2.112   3.868  0.00  0.00    -0.191 NA
ENDBRANCH   4  23
TORSDOF 4
