REMARK  Name = ZINC67583912
REMARK  7 active torsions:
REMARK  status: ('A' for Active; 'I' for Inactive)
REMARK    1  A    between atoms: C_1  and  C_2
REMARK    2  A    between atoms: C_7  and  C_10
REMARK    3  A    between atoms: N_18  and  C_19
REMARK    4  A    between atoms: C_24  and  C_25
REMARK    5  A    between atoms: C_25  and  C_26
REMARK    6  A    between atoms: N_28  and  C_29
REMARK    7  A    between atoms: N_28  and  C_30
REMARK                            x       y       z     vdW  Elec       q    Type
REMARK                         _______ _______ _______ _____ _____    ______ ____
ROOT
ATOM      1  C   UNL     1      -2.422  -3.318   1.952  0.00  0.00    +0.039 C 
ATOM      2  C   UNL     1      -1.170  -2.470   2.185  0.00  0.00    +0.133 C 
ATOM      3  C   UNL     1      -1.581  -1.028   2.507  0.00  0.00    +0.140 C 
ATOM      4  N   UNL     1      -2.181  -0.436   1.300  0.00  0.00    -0.280 N 
ATOM      5  C   UNL     1      -1.438  -0.543   0.035  0.00  0.00    +0.145 C 
ATOM      6  C   UNL     1      -1.034  -2.008  -0.167  0.00  0.00    +0.166 C 
ATOM      7  O   UNL     1      -0.362  -2.477   1.006  0.00  0.00    -0.366 OA
ATOM      8  C   UNL     1      -3.376   0.185   1.353  0.00  0.00    +0.307 C 
ATOM      9  O   UNL     1      -4.018   0.182   2.385  0.00  0.00    -0.252 OA
ATOM     10  N   UNL     1      -3.860   0.809   0.261  0.00  0.00    -0.269 N 
ATOM     11  H   UNL     1      -3.379   0.756  -0.581  0.00  0.00    +0.156 HD
ENDROOT
BRANCH   6  12
ATOM     12  C   UNL     1      -0.112  -2.117  -1.354  0.00  0.00    -0.017 A 
ATOM     13  C   UNL     1       1.246  -1.909  -1.196  0.00  0.00    +0.006 A 
ATOM     14  C   UNL     1       2.092  -2.009  -2.285  0.00  0.00    +0.000 A 
ATOM     15  C   UNL     1       1.580  -2.318  -3.531  0.00  0.00    +0.000 A 
ATOM     16  C   UNL     1       0.223  -2.527  -3.689  0.00  0.00    +0.000 A 
ATOM     17  C   UNL     1      -0.622  -2.431  -2.599  0.00  0.00    +0.006 A 
ENDBRANCH   6  12
BRANCH  10  18
ATOM     18  C   UNL     1      -5.054   1.533   0.340  0.00  0.00    +0.038 A 
ATOM     19  C   UNL     1      -5.547   1.929   1.577  0.00  0.00    +0.023 A 
ATOM     20  C   UNL     1      -6.726   2.644   1.652  0.00  0.00    +0.002 A 
ATOM     21  C   UNL     1      -7.417   2.965   0.497  0.00  0.00    +0.000 A 
ATOM     22  C   UNL     1      -6.929   2.572  -0.735  0.00  0.00    +0.006 A 
ATOM     23  C   UNL     1      -5.747   1.862  -0.818  0.00  0.00    -0.017 A 
BRANCH  23  24
ATOM     24  C   UNL     1      -5.213   1.439  -2.162  0.00  0.00    +0.133 C 
BRANCH  24  25
ATOM     25  C   UNL     1      -5.666   0.033  -2.463  0.00  0.00    +0.219 C 
ATOM     26  O   UNL     1      -6.355  -0.566  -1.664  0.00  0.00    -0.275 OA
ATOM     27  N   UNL     1      -5.306  -0.558  -3.619  0.00  0.00    -0.307 N 
ATOM     28  C   UNL     1      -5.747  -1.924  -3.912  0.00  0.00    +0.131 C 
ATOM     29  C   UNL     1      -4.474   0.166  -4.584  0.00  0.00    +0.131 C 
ENDBRANCH  24  25
ENDBRANCH  23  24
ENDBRANCH  10  18
TORSDOF 4
