REMARK  Name = ZINC34785428
REMARK  5 active torsions:
REMARK  status: ('A' for Active; 'I' for Inactive)
REMARK    1  A    between atoms: C_1  and  C_2
REMARK    2  A    between atoms: C_2  and  C_3
REMARK    3  A    between atoms: C_3  and  N_4
REMARK    4  A    between atoms: N_12  and  C_13
REMARK    5  A    between atoms: C_14  and  C_22
REMARK                            x       y       z     vdW  Elec       q    Type
REMARK                         _______ _______ _______ _____ _____    ______ ____
ROOT
ATOM      1  N   UNL     1       0.733  -1.962  -1.271  0.00  0.00    +0.382 N 
ATOM      2  C   UNL     1      -0.641  -2.471  -1.368  0.00  0.00    -0.059 C 
ATOM      3  C   UNL     1      -0.628  -3.999  -1.259  0.00  0.00    +0.091 C 
ATOM      4  N   UNL     1       0.290  -4.531  -2.278  0.00  0.00    -0.289 N 
ATOM      5  C   UNL     1       1.643  -3.959  -2.358  0.00  0.00    +0.091 C 
ATOM      6  C   UNL     1       1.523  -2.433  -2.416  0.00  0.00    -0.059 C 
ATOM      7  C   UNL     1      -0.097  -5.515  -3.114  0.00  0.00    +0.307 C 
ATOM      8  O   UNL     1      -1.185  -6.038  -2.974  0.00  0.00    -0.252 OA
ATOM      9  N   UNL     1       0.723  -5.919  -4.104  0.00  0.00    -0.263 N 
ATOM     10  H   UNL     1       1.619  -5.556  -4.171  0.00  0.00    +0.157 HD
ATOM     11  H   UNL     1       1.152  -2.294  -0.415  0.00  0.00    -0.082 HD
ENDROOT
BRANCH   9  12
ATOM     12  C   UNL     1       0.284  -6.855  -5.029  0.00  0.00    +0.086 A 
ATOM     13  C   UNL     1       0.984  -7.387  -6.100  0.00  0.00    +0.068 A 
ATOM     14  C   UNL     1       0.292  -8.361  -6.927  0.00  0.00    -0.023 A 
ATOM     15  C   UNL     1      -0.971  -8.625  -6.530  0.00  0.00    -0.004 A 
ATOM     16  S   UNL     1      -1.214  -7.610  -5.102  0.00  0.00    -0.077 S 
ATOM     17  C   UNL     1      -1.936  -9.575  -7.171  0.00  0.00    +0.043 C 
ATOM     18  C   UNL     1      -1.408  -9.927  -8.569  0.00  0.00    +0.005 C 
ATOM     19  C   UNL     1       0.074 -10.297  -8.461  0.00  0.00    +0.005 C 
ATOM     20  C   UNL     1       0.900  -9.050  -8.140  0.00  0.00    +0.037 C 
BRANCH  13  21
ATOM     21  C   UNL     1       2.363  -6.983  -6.388  0.00  0.00    +0.244 C 
ATOM     22  O   UNL     1       3.292  -7.592  -5.890  0.00  0.00    -0.270 OA
ATOM     23  N   UNL     1       2.603  -5.938  -7.204  0.00  0.00    -0.325 N 
ATOM     24  H   UNL     1       1.862  -5.452  -7.601  0.00  0.00    +0.145 HD
ATOM     25  H   UNL     1       3.515  -5.670  -7.395  0.00  0.00    +0.145 HD
ENDBRANCH  13  21
ENDBRANCH   9  12
BRANCH   1  26
ATOM     26  C   UNL     1       0.710  -0.493  -1.265  0.00  0.00    -0.079 C 
BRANCH  26  28
ATOM     27  C   UNL     1      -0.030   1.530   0.000  0.00  0.00    +0.002 C 
ATOM     28  C   UNL     1      -0.006   0.001  -0.006  0.00  0.00    -0.022 C 
ENDBRANCH  26  28
ENDBRANCH   1  26
TORSDOF 4
