REMARK  Name = ZINC12655287
REMARK  7 active torsions:
REMARK  status: ('A' for Active; 'I' for Inactive)
REMARK    1  A    between atoms: C_1  and  C_2
REMARK    2  A    between atoms: C_2  and  C_3
REMARK    3  A    between atoms: C_3  and  C_4
REMARK    4  A    between atoms: C_22  and  C_35
REMARK    5  A    between atoms: C_25  and  O_34
REMARK    6  A    between atoms: C_28  and  C_33
REMARK    7  A    between atoms: C_29  and  C_31
REMARK                            x       y       z     vdW  Elec       q    Type
REMARK                         _______ _______ _______ _____ _____    ______ ____
ROOT
ATOM      1  C   UNL     1       0.097  -2.808  -4.043  0.00  0.00    +0.252 C 
ATOM      2  O   UNL     1       0.935  -3.801  -3.436  0.00  0.00    -0.345 OA
ATOM      3  C   UNL     1       2.186  -3.785  -4.139  0.00  0.00    +0.165 C 
ATOM      4  C   UNL     1       3.360  -3.755  -3.143  0.00  0.00    +0.039 C 
ATOM      5  C   UNL     1       3.777  -2.271  -2.995  0.00  0.00    +0.004 C 
ATOM      6  C   UNL     1       3.131  -1.694  -1.742  0.00  0.00    -0.000 C 
ATOM      7  C   UNL     1       1.775  -2.330  -1.469  0.00  0.00    +0.008 C 
ATOM      8  C   UNL     1       1.182  -1.812  -0.147  0.00  0.00    +0.032 C 
ATOM      9  C   UNL     1       1.110  -0.304  -0.298  0.00  0.00    -0.056 C 
ATOM     10  C   UNL     1      -0.052   0.320  -0.220  0.00  0.00    +0.051 C 
ATOM     11  C   UNL     1      -0.114   1.783  -0.385  0.00  0.00    +0.179 C 
ATOM     12  O   UNL     1      -1.185   2.357  -0.473  0.00  0.00    -0.288 OA
ATOM     13  C   UNL     1       1.152   2.537  -0.454  0.00  0.00    +0.047 C 
ATOM     14  C   UNL     1       2.305   1.882  -0.520  0.00  0.00    -0.012 C 
ATOM     15  C   UNL     1       2.413   0.398  -0.547  0.00  0.00    +0.013 C 
ATOM     16  C   UNL     1       3.046  -0.166  -1.806  0.00  0.00    +0.035 C 
ATOM     17  C   UNL     1       2.211   0.203  -3.039  0.00  0.00    +0.120 C 
ATOM     18  C   UNL     1       3.034  -0.156  -4.274  0.00  0.00    +0.042 C 
ATOM     19  C   UNL     1       3.369  -1.629  -4.315  0.00  0.00    +0.016 C 
ATOM     20  C   UNL     1       2.210  -2.447  -4.905  0.00  0.00    +0.204 C 
ATOM     21  O   UNL     1       0.963  -1.798  -4.596  0.00  0.00    -0.330 OA
ATOM     22  C   UNL     1       4.558  -1.784  -5.293  0.00  0.00    +0.015 C 
ATOM     23  C   UNL     1       3.340   0.054   0.619  0.00  0.00    +0.020 C 
ENDROOT
BRANCH  20  24
ATOM     24  C   UNL     1       2.388  -2.644  -6.394  0.00  0.00    +0.390 C 
ATOM     25  O   UNL     1       2.899  -3.656  -6.813  0.00  0.00    -0.243 OA
ATOM     26  O   UNL     1       1.979  -1.694  -7.250  0.00  0.00    -0.243 OA
ENDBRANCH  20  24
BRANCH  17  27
ATOM     27  O   UNL     1       1.925   1.603  -3.057  0.00  0.00    -0.391 OA
ATOM     28  H   UNL     1       1.424   1.892  -3.831  0.00  0.00    +0.210 HD
ENDBRANCH  17  27
BRANCH   1  29
ATOM     29  C   UNL     1      -0.790  -3.415  -5.134  0.00  0.00    +0.061 C 
BRANCH  29  31
ATOM     30  C   UNL     1      -2.669  -4.997  -5.589  0.00  0.00    +0.004 C 
ATOM     31  C   UNL     1      -1.783  -4.391  -4.499  0.00  0.00    +0.002 C 
ENDBRANCH  29  31
ENDBRANCH   1  29
TORSDOF 4
