REMARK  Name = ZINC23588427
REMARK  9 active torsions:
REMARK  status: ('A' for Active; 'I' for Inactive)
REMARK    1  A    between atoms: C_1  and  C_2
REMARK    2  A    between atoms: C_3  and  C_7
REMARK    3  A    between atoms: C_10  and  S_13
REMARK    4  A    between atoms: N_11  and  N_12
REMARK    5  A    between atoms: S_13  and  C_14
REMARK    6  A    between atoms: C_14  and  C_15
REMARK    7  A    between atoms: N_20  and  C_21
REMARK    8  A    between atoms: C_26  and  C_31
REMARK    9  A    between atoms: C_28  and  C_30
REMARK                            x       y       z     vdW  Elec       q    Type
REMARK                         _______ _______ _______ _____ _____    ______ ____
ROOT
ATOM      1  C   UNL     1       3.680   3.099  -0.017  0.00  0.00    +0.173 C 
ENDROOT
BRANCH   1   2
ATOM      2  C   UNL     1       4.421   4.412  -0.018  0.00  0.00    +0.231 C 
ATOM      3  O   UNL     1       3.804   5.456  -0.007  0.00  0.00    -0.274 OA
ATOM      4  N   UNL     1       5.768   4.425  -0.030  0.00  0.00    -0.239 N 
ATOM      5  C   UNL     1       6.431   5.598  -0.031  0.00  0.00    +0.306 C 
ATOM      6  O   UNL     1       5.813   6.645  -0.020  0.00  0.00    -0.252 OA
ATOM      7  N   UNL     1       7.779   5.611  -0.043  0.00  0.00    -0.296 N 
ATOM      8  H   UNL     1       6.327   3.477  -0.040  0.00  0.00    +0.159 HD
ATOM      9  H   UNL     1       8.338   4.664  -0.053  0.00  0.00    +0.151 HD
BRANCH   7  10
ATOM     10  C   UNL     1       8.499   6.887  -0.044  0.00  0.00    +0.078 C 
ATOM     11  C   UNL     1       8.654   7.386   1.394  0.00  0.00    +0.022 C 
ATOM     12  C   UNL     1       9.406   8.718   1.393  0.00  0.00    +0.002 C 
ATOM     13  C   UNL     1      10.789   8.522   0.770  0.00  0.00    +0.003 C 
ATOM     14  C   UNL     1      10.635   8.023  -0.668  0.00  0.00    -0.009 C 
ATOM     15  C   UNL     1       9.882   6.691  -0.667  0.00  0.00    +0.009 C 
ATOM     16  C   UNL     1      10.668   5.662   0.148  0.00  0.00    +0.009 C 
ATOM     17  C   UNL     1      12.018   7.827  -1.292  0.00  0.00    +0.008 C 
ENDBRANCH   7  10
ENDBRANCH   1   2
BRANCH   1  18
ATOM     18  S   UNL     1       1.897   3.413   0.001  0.00  0.00    -0.075 S 
BRANCH  18  22
ATOM     19  C   UNL     1       0.002  -0.004   0.002  0.00  0.00    +0.185 A 
ATOM     20  N   UNL     1       1.262  -0.372  -0.012  0.00  0.00    -0.127 NA
ATOM     21  N   UNL     1       2.022   0.664  -0.014  0.00  0.00    -0.121 NA
ATOM     22  C   UNL     1       1.295   1.757  -0.001  0.00  0.00    +0.209 A 
ATOM     23  N   UNL     1      -0.017   1.371   0.010  0.00  0.00    -0.224 N 
BRANCH  19  26
ATOM     24  C   UNL     1       0.051  -3.139  -0.029  0.00  0.00    +0.087 C 
ATOM     25  C   UNL     1      -1.173  -2.260  -0.004  0.00  0.00    +0.112 A 
ATOM     26  C   UNL     1      -1.175  -0.899   0.009  0.00  0.00    +0.061 A 
ATOM     27  C   UNL     1      -2.589  -0.504   0.025  0.00  0.00    +0.053 A 
ATOM     28  C   UNL     1      -3.294  -1.648   0.026  0.00  0.00    +0.196 A 
ATOM     29  O   UNL     1      -2.444  -2.686   0.013  0.00  0.00    -0.467 OA
ENDBRANCH  19  26
BRANCH  23  30
ATOM     30  N   UNL     1      -1.116   2.182   0.019  0.00  0.00    -0.295 N 
ATOM     31  H   UNL     1      -0.993   3.275   0.025  0.00  0.00    +0.163 HD
ATOM     32  H   UNL     1      -2.124   1.741   0.022  0.00  0.00    +0.163 HD
ENDBRANCH  23  30
ENDBRANCH  18  22
ENDBRANCH   1  18
TORSDOF 6
