REMARK  Name = ZINC16545822
REMARK  7 active torsions:
REMARK  status: ('A' for Active; 'I' for Inactive)
REMARK    1  A    between atoms: C_6  and  C_11
REMARK    2  A    between atoms: C_11  and  N_12
REMARK    3  A    between atoms: C_19  and  C_22
REMARK    4  A    between atoms: C_19  and  O_34
REMARK    5  A    between atoms: C_22  and  C_23
REMARK    6  A    between atoms: C_23  and  C_25
REMARK    7  A    between atoms: C_29  and  N_31
REMARK                            x       y       z     vdW  Elec       q    Type
REMARK                         _______ _______ _______ _____ _____    ______ ____
ROOT
ATOM      1  N   UNL     1       2.155   0.807  -0.014  0.00  0.00    -0.264 N 
ATOM      2  C   UNL     1       1.309   1.916  -0.000  0.00  0.00    +0.043 A 
ATOM      3  C   UNL     1       1.595   3.280   0.005  0.00  0.00    +0.024 A 
ATOM      4  C   UNL     1       0.569   4.202   0.021  0.00  0.00    +0.002 A 
ATOM      5  C   UNL     1      -0.749   3.783   0.032  0.00  0.00    +0.000 A 
ATOM      6  C   UNL     1      -1.040   2.430   0.030  0.00  0.00    +0.009 A 
ATOM      7  C   UNL     1      -0.018   1.507   0.010  0.00  0.00    +0.015 A 
ATOM      8  C   UNL     1       0.002  -0.004   0.002  0.00  0.00    +0.175 C 
ATOM      9  C   UNL     1       1.475  -0.352  -0.014  0.00  0.00    +0.257 C 
ATOM     10  O   UNL     1       1.952  -1.467  -0.024  0.00  0.00    -0.272 OA
ENDROOT
BRANCH   8  11
ATOM     11  O   UNL     1      -0.647  -0.507  -1.168  0.00  0.00    -0.374 OA
ATOM     12  H   UNL     1      -0.662  -1.472  -1.224  0.00  0.00    +0.211 HD
ENDBRANCH   8  11
BRANCH   1  13
ATOM     13  C   UNL     1       3.618   0.896  -0.027  0.00  0.00    +0.149 C 
BRANCH  13  19
ATOM     14  C   UNL     1       5.610   2.193  -6.032  0.00  0.00    +0.001 A 
ATOM     15  C   UNL     1       5.314   3.387  -5.376  0.00  0.00    +0.001 A 
ATOM     16  C   UNL     1       4.870   3.389  -4.090  0.00  0.00    +0.008 A 
ATOM     17  C   UNL     1       4.707   2.170  -3.409  0.00  0.00    -0.018 A 
ATOM     18  C   UNL     1       4.251   2.132  -2.080  0.00  0.00    +0.013 A 
ATOM     19  C   UNL     1       4.106   0.933  -1.452  0.00  0.00    -0.029 A 
ATOM     20  C   UNL     1       4.407  -0.261  -2.106  0.00  0.00    +0.006 A 
ATOM     21  C   UNL     1       4.845  -0.263  -3.395  0.00  0.00    +0.009 A 
ATOM     22  C   UNL     1       5.008   0.956  -4.075  0.00  0.00    -0.018 A 
ATOM     23  C   UNL     1       5.465   0.995  -5.404  0.00  0.00    +0.008 A 
ENDBRANCH  13  19
ENDBRANCH   1  13
BRANCH   8  24
ATOM     24  C   UNL     1      -0.665  -0.556   1.263  0.00  0.00    +0.129 C 
BRANCH  24  25
ATOM     25  C   UNL     1      -0.524  -2.056   1.291  0.00  0.00    +0.167 C 
ATOM     26  O   UNL     1       0.054  -2.627   0.391  0.00  0.00    -0.292 OA
BRANCH  25  27
ATOM     27  C   UNL     1      -1.087  -2.828   2.410  0.00  0.00    +0.020 A 
ATOM     28  C   UNL     1      -1.749  -2.172   3.453  0.00  0.00    +0.011 A 
ATOM     29  C   UNL     1      -2.277  -2.903   4.497  0.00  0.00    +0.003 A 
ATOM     30  C   UNL     1      -2.146  -4.281   4.518  0.00  0.00    +0.033 A 
ATOM     31  C   UNL     1      -1.488  -4.936   3.492  0.00  0.00    +0.127 A 
ATOM     32  C   UNL     1      -0.958  -4.220   2.439  0.00  0.00    +0.044 A 
BRANCH  31  33
ATOM     33  N   UNL     1      -1.352  -6.410   3.525  0.00  0.00    +0.056 N 
ATOM     34  O   UNL     1      -0.773  -6.988   2.623  0.00  0.00    -0.126 OA
ATOM     35  O   UNL     1      -1.819  -7.044   4.454  0.00  0.00    -0.126 OA
ENDBRANCH  31  33
ENDBRANCH  25  27
ENDBRANCH  24  25
ENDBRANCH   8  24
TORSDOF 7
