REMARK  Name = ZINC11915472
REMARK  3 active torsions:
REMARK  status: ('A' for Active; 'I' for Inactive)
REMARK    1  A    between atoms: C_1  and  C_2
REMARK    2  A    between atoms: C_8  and  N_11
REMARK    3  A    between atoms: C_12  and  C_14
REMARK                            x       y       z     vdW  Elec       q    Type
REMARK                         _______ _______ _______ _____ _____    ______ ____
ROOT
ATOM      1  N   UNL     1      -4.981   5.191   0.074  0.00  0.00    -0.250 N 
ATOM      2  C   UNL     1      -4.937   3.845   0.068  0.00  0.00    +0.257 C 
ATOM      3  O   UNL     1      -5.969   3.202   0.074  0.00  0.00    -0.270 OA
ATOM      4  H   UNL     1      -4.158   5.704   0.069  0.00  0.00    +0.158 HD
ENDROOT
BRANCH   2   5
ATOM      5  C   UNL     1      -3.638   3.151   0.052  0.00  0.00    +0.122 A 
ATOM      6  C   UNL     1      -2.455   3.870   0.045  0.00  0.00    +0.031 A 
ATOM      7  C   UNL     1      -1.227   3.161   0.030  0.00  0.00    +0.018 A 
ATOM      8  C   UNL     1      -0.010   3.859   0.022  0.00  0.00    +0.011 A 
ATOM      9  C   UNL     1       1.168   3.170   0.007  0.00  0.00    +0.001 A 
ATOM     10  C   UNL     1       1.172   1.781   0.000  0.00  0.00    +0.004 A 
ATOM     11  C   UNL     1      -0.013   1.076   0.008  0.00  0.00    +0.047 A 
ATOM     12  C   UNL     1      -1.226   1.755   0.017  0.00  0.00    +0.139 A 
ATOM     13  O   UNL     1      -2.385   1.061   0.030  0.00  0.00    -0.422 OA
ATOM     14  C   UNL     1      -3.575   1.685   0.044  0.00  0.00    +0.350 A 
ATOM     15  O   UNL     1      -4.602   1.033   0.050  0.00  0.00    -0.244 OA
ENDBRANCH   2   5
BRANCH   1  22
ATOM     16  C   UNL     1      -5.348  10.825   0.295  0.00  0.00    +0.008 C 
ATOM     17  C   UNL     1      -6.225   9.591   0.520  0.00  0.00    -0.009 C 
ATOM     18  C   UNL     1      -7.504   9.720  -0.310  0.00  0.00    +0.010 C 
ATOM     19  C   UNL     1      -8.518   8.650   0.117  0.00  0.00    +0.059 C 
ATOM     20  C   UNL     1      -7.820   7.315   0.110  0.00  0.00    +0.089 A 
ATOM     21  C   UNL     1      -6.414   7.178   0.097  0.00  0.00    +0.037 A 
ATOM     22  C   UNL     1      -6.204   5.845   0.089  0.00  0.00    +0.228 A 
ATOM     23  O   UNL     1      -7.427   5.279   0.091  0.00  0.00    -0.339 OA
ATOM     24  N   UNL     1      -8.306   6.117   0.110  0.00  0.00    -0.081 NA
ATOM     25  C   UNL     1      -5.455   8.332   0.097  0.00  0.00    +0.045 C 
ENDBRANCH   1  22
TORSDOF 2
