REMARK  Name = ZINC13363165
REMARK  7 active torsions:
REMARK  status: ('A' for Active; 'I' for Inactive)
REMARK    1  A    between atoms: C_1  and  C_2
REMARK    2  A    between atoms: C_5  and  C_8
REMARK    3  A    between atoms: C_8  and  N_9
REMARK    4  A    between atoms: C_18  and  C_24
REMARK    5  A    between atoms: N_26  and  C_27
REMARK    6  A    between atoms: C_27  and  C_28
REMARK    7  A    between atoms: C_27  and  C_29
REMARK                            x       y       z     vdW  Elec       q    Type
REMARK                         _______ _______ _______ _____ _____    ______ ____
ROOT
ATOM      1  N   UNL     1       1.447  -4.746  -0.032  0.00  0.00    -0.272 N 
ATOM      2  C   UNL     1       2.088  -4.953  -1.243  0.00  0.00    +0.240 A 
ATOM      3  N   UNL     1       1.661  -4.798  -2.477  0.00  0.00    -0.109 NA
ATOM      4  N   UNL     1       2.704  -5.144  -3.345  0.00  0.00    -0.119 NA
ATOM      5  C   UNL     1       3.735  -5.500  -2.619  0.00  0.00    +0.208 A 
ATOM      6  S   UNL     1       5.301  -6.026  -3.232  0.00  0.00    -0.009 SA
ATOM      7  N   UNL     1       3.383  -5.391  -1.301  0.00  0.00    -0.255 N 
ATOM      8  C   UNL     1       4.099  -5.644  -0.132  0.00  0.00    +0.065 A 
ATOM      9  C   UNL     1       5.410  -6.088  -0.183  0.00  0.00    +0.040 A 
ATOM     10  C   UNL     1       6.104  -6.332   1.001  0.00  0.00    +0.039 A 
ATOM     11  C   UNL     1       5.481  -6.131   2.236  0.00  0.00    +0.014 A 
ATOM     12  C   UNL     1       4.178  -5.691   2.292  0.00  0.00    +0.016 A 
ATOM     13  C   UNL     1       3.478  -5.444   1.111  0.00  0.00    +0.064 A 
ATOM     14  C   UNL     1       2.082  -4.965   1.137  0.00  0.00    +0.263 A 
ATOM     15  O   UNL     1       1.513  -4.776   2.195  0.00  0.00    -0.267 OA
ENDROOT
BRANCH  10  16
ATOM     16  C   UNL     1       7.505  -6.806   0.950  0.00  0.00    +0.244 C 
ATOM     17  O   UNL     1       8.049  -6.981  -0.123  0.00  0.00    -0.270 OA
ATOM     18  N   UNL     1       8.178  -7.043   2.093  0.00  0.00    -0.309 N 
ATOM     19  H   UNL     1       7.745  -6.903   2.949  0.00  0.00    +0.149 HD
BRANCH  18  20
ATOM     20  C   UNL     1       9.565  -7.512   2.043  0.00  0.00    +0.067 C 
ATOM     21  C   UNL     1      10.283  -7.122   3.336  0.00  0.00    +0.027 C 
ATOM     22  C   UNL     1       9.583  -9.034   1.889  0.00  0.00    +0.027 C 
ENDBRANCH  18  20
ENDBRANCH  10  16
BRANCH   1  23
ATOM     23  C   UNL     1       0.059  -4.275  -0.021  0.00  0.00    +0.163 C 
BRANCH  23  28
ATOM     24  C   UNL     1      -0.018   1.503   0.010  0.00  0.00    +0.044 C 
ATOM     25  C   UNL     1       0.002  -0.004   0.002  0.00  0.00    -0.050 A 
ATOM     26  C   UNL     1       0.006  -0.689  -1.199  0.00  0.00    +0.004 A 
ATOM     27  C   UNL     1       0.025  -2.071  -1.206  0.00  0.00    +0.005 A 
ATOM     28  C   UNL     1       0.040  -2.768  -0.013  0.00  0.00    -0.028 A 
ATOM     29  C   UNL     1       0.037  -2.084   1.188  0.00  0.00    +0.005 A 
ATOM     30  C   UNL     1       0.023  -0.702   1.195  0.00  0.00    +0.004 A 
ENDBRANCH  23  28
ENDBRANCH   1  23
TORSDOF 4
