REMARK  Name = ZINC15722989
REMARK  4 active torsions:
REMARK  status: ('A' for Active; 'I' for Inactive)
REMARK    1  A    between atoms: C_1  and  C_2
REMARK    2  A    between atoms: C_7  and  N_12
REMARK    3  A    between atoms: C_9  and  C_11
REMARK    4  A    between atoms: C_13  and  C_15
REMARK                            x       y       z     vdW  Elec       q    Type
REMARK                         _______ _______ _______ _____ _____    ______ ____
ROOT
ATOM      1  C   UNL     1       5.845   1.476  -1.965  0.00  0.00    +0.100 A 
ATOM      2  C   UNL     1       6.317   2.631  -1.315  0.00  0.00    +0.150 A 
ATOM      3  N   UNL     1       7.596   2.755  -1.556  0.00  0.00    -0.172 NA
ATOM      4  N   UNL     1       8.022   1.699  -2.369  0.00  0.00    -0.218 N 
ATOM      5  C   UNL     1       6.948   0.898  -2.622  0.00  0.00    +0.168 A 
ATOM      6  N   UNL     1       7.076  -0.189  -3.384  0.00  0.00    -0.235 NA
ATOM      7  C   UNL     1       8.241  -0.515  -3.893  0.00  0.00    +0.118 A 
ATOM      8  C   UNL     1       9.374   0.280  -3.651  0.00  0.00    -0.008 A 
ATOM      9  C   UNL     1       9.249   1.389  -2.891  0.00  0.00    +0.050 A 
ATOM     10  C   UNL     1      10.398   2.314  -2.595  0.00  0.00    +0.056 C 
ATOM     11  C   UNL     1      11.731   1.621  -2.871  0.00  0.00    +0.006 C 
ATOM     12  C   UNL     1      11.675   1.010  -4.277  0.00  0.00    +0.005 C 
ATOM     13  C   UNL     1      10.683  -0.151  -4.257  0.00  0.00    +0.038 C 
ENDROOT
BRANCH   1  15
ATOM     14  N   UNL     1       3.513   1.629  -1.272  0.00  0.00    -0.308 N 
ATOM     15  C   UNL     1       4.470   0.969  -1.954  0.00  0.00    +0.249 C 
ATOM     16  O   UNL     1       4.192  -0.049  -2.562  0.00  0.00    -0.270 OA
ATOM     17  H   UNL     1       3.735   2.440  -0.788  0.00  0.00    +0.149 HD
BRANCH  14  23
ATOM     18  C   UNL     1      -0.729   1.579   1.267  0.00  0.00    +0.008 C 
ATOM     19  C   UNL     1      -0.013   1.086   0.008  0.00  0.00    -0.009 C 
ATOM     20  C   UNL     1      -0.753   1.593  -1.232  0.00  0.00    +0.003 C 
ATOM     21  C   UNL     1      -0.037   1.099  -2.490  0.00  0.00    +0.002 C 
ATOM     22  C   UNL     1       1.399   1.629  -2.501  0.00  0.00    +0.022 C 
ATOM     23  C   UNL     1       2.139   1.122  -1.262  0.00  0.00    +0.076 C 
ATOM     24  C   UNL     1       1.423   1.615  -0.003  0.00  0.00    +0.009 C 
ATOM     25  C   UNL     1       2.163   1.109   1.237  0.00  0.00    +0.009 C 
ENDBRANCH  14  23
ENDBRANCH   1  15
TORSDOF 2
