REMARK  Name = ZINC04838951
REMARK  3 active torsions:
REMARK  status: ('A' for Active; 'I' for Inactive)
REMARK    1  A    between atoms: C_1  and  C_2
REMARK    2  A    between atoms: C_4  and  C_14
REMARK    3  A    between atoms: N_16  and  C_17
REMARK                            x       y       z     vdW  Elec       q    Type
REMARK                         _______ _______ _______ _____ _____    ______ ____
ROOT
ATOM      1  C   UNL     1       5.404   1.178  -0.259  0.00  0.00    +0.056 C 
ATOM      2  C   UNL     1       3.929   1.540  -0.443  0.00  0.00    +0.220 C 
ATOM      3  C   UNL     1       3.640   2.890   0.228  0.00  0.00    +0.299 C 
ATOM      4  O   UNL     1       2.252   3.192   0.049  0.00  0.00    -0.472 OA
ATOM      5  C   UNL     1       1.371   2.187   0.303  0.00  0.00    +0.163 A 
ATOM      6  C   UNL     1       0.032   2.489   0.502  0.00  0.00    +0.049 A 
ATOM      7  C   UNL     1      -0.876   1.479   0.757  0.00  0.00    +0.004 A 
ATOM      8  C   UNL     1      -0.454   0.164   0.810  0.00  0.00    +0.004 A 
ATOM      9  C   UNL     1       0.880  -0.144   0.621  0.00  0.00    +0.049 A 
ATOM     10  C   UNL     1       1.797   0.865   0.365  0.00  0.00    +0.163 A 
ATOM     11  O   UNL     1       3.107   0.546   0.178  0.00  0.00    -0.481 OA
ENDROOT
BRANCH   3  12
ATOM     12  C   UNL     1       3.958   2.806   1.699  0.00  0.00    +0.262 C 
ATOM     13  O   UNL     1       3.058   2.766   2.512  0.00  0.00    -0.271 OA
ATOM     14  N   UNL     1       5.241   2.773   2.111  0.00  0.00    -0.280 N 
ATOM     15  H   UNL     1       5.960   2.830   1.462  0.00  0.00    +0.155 HD
BRANCH  14  16
ATOM     16  C   UNL     1       5.535   2.659   3.475  0.00  0.00    +0.069 A 
ATOM     17  C   UNL     1       4.620   3.095   4.423  0.00  0.00    +0.026 A 
ATOM     18  C   UNL     1       4.911   2.976   5.769  0.00  0.00    +0.002 A 
ATOM     19  C   UNL     1       6.117   2.433   6.172  0.00  0.00    +0.003 A 
ATOM     20  C   UNL     1       7.035   2.003   5.231  0.00  0.00    +0.040 A 
ATOM     21  C   UNL     1       6.748   2.114   3.883  0.00  0.00    +0.144 A 
ATOM     22  F   UNL     1       7.644   1.694   2.963  0.00  0.00    -0.204 F 
ENDBRANCH  14  16
ENDBRANCH   3  12
TORSDOF 2
