REMARK  Name = ZINC48526275
REMARK  6 active torsions:
REMARK  status: ('A' for Active; 'I' for Inactive)
REMARK    1  A    between atoms: C_1  and  C_2
REMARK    2  A    between atoms: C_2  and  C_3
REMARK    3  A    between atoms: C_2  and  C_4
REMARK    4  A    between atoms: C_6  and  C_10
REMARK    5  A    between atoms: C_10  and  O_12
REMARK    6  A    between atoms: O_12  and  C_13
REMARK                            x       y       z     vdW  Elec       q    Type
REMARK                         _______ _______ _______ _____ _____    ______ ____
ROOT
ATOM      1  C   UNL     1      -4.173  -2.803  -0.692  0.00  0.00    +0.365 C 
ATOM      2  O   UNL     1      -3.776  -3.756  -1.331  0.00  0.00    -0.243 OA
ENDROOT
BRANCH   1   5
ATOM      3  C   UNL     1      -1.376  -0.615   0.113  0.00  0.00    +0.039 A 
ATOM      4  C   UNL     1      -1.827  -1.746  -0.480  0.00  0.00    +0.059 A 
ATOM      5  C   UNL     1      -3.222  -1.767  -0.244  0.00  0.00    +0.170 A 
ATOM      6  N   UNL     1      -3.510  -0.685   0.452  0.00  0.00    -0.167 NA
ATOM      7  N   UNL     1      -2.443  -0.005   0.672  0.00  0.00    -0.281 N 
ATOM      8  H   UNL     1      -2.409   0.829   1.168  0.00  0.00    +0.189 HD
BRANCH   3  10
ATOM      9  C   UNL     1       0.072   1.397   0.086  0.00  0.00    +0.014 C 
ATOM     10  C   UNL     1       0.050  -0.131   0.147  0.00  0.00    +0.031 C 
ATOM     11  C   UNL     1       0.717  -0.600   1.443  0.00  0.00    +0.014 C 
ENDBRANCH   3  10
ENDBRANCH   1   5
BRANCH   1  12
ATOM     12  O   UNL     1      -5.482  -2.691  -0.392  0.00  0.00    -0.420 OA
BRANCH  12  13
ATOM     13  C   UNL     1      -6.337  -3.611  -0.912  0.00  0.00    +0.150 A 
ATOM     14  C   UNL     1      -7.000  -3.348  -2.101  0.00  0.00    +0.049 A 
ATOM     15  C   UNL     1      -7.869  -4.284  -2.628  0.00  0.00    +0.019 A 
ATOM     16  C   UNL     1      -8.078  -5.483  -1.971  0.00  0.00    +0.019 A 
ATOM     17  C   UNL     1      -7.418  -5.748  -0.784  0.00  0.00    +0.039 A 
ATOM     18  C   UNL     1      -6.543  -4.817  -0.256  0.00  0.00    +0.084 A 
ATOM     19 CL   UNL     1      -5.709  -5.152   1.229  0.00  0.00    -0.080 Cl
ATOM     20 BR   UNL     1      -9.268  -6.762  -2.695  0.00  0.00    -0.050 Br
ENDBRANCH  12  13
ENDBRANCH   1  12
TORSDOF 4
