REMARK  Name = ZINC58290271
REMARK  4 active torsions:
REMARK  status: ('A' for Active; 'I' for Inactive)
REMARK    1  A    between atoms: C_6  and  S_7
REMARK    2  A    between atoms: S_7  and  N_10
REMARK    3  A    between atoms: N_13  and  C_16
REMARK    4  A    between atoms: C_16  and  C_17
REMARK                            x       y       z     vdW  Elec       q    Type
REMARK                         _______ _______ _______ _____ _____    ______ ____
ROOT
ATOM      1  S   UNL     1      -1.644  -1.193   0.195  0.00  0.00    +0.061 S 
ATOM      2  O   UNL     1      -1.465  -2.501   0.721  0.00  0.00    -0.153 OA
ATOM      3  O   UNL     1      -2.592  -0.280   0.730  0.00  0.00    -0.153 OA
ENDROOT
BRANCH   1   9
ATOM      4  C   UNL     1      -0.004   0.985   0.319  0.00  0.00    +0.030 A 
ATOM      5  C   UNL     1       1.222   1.619   0.386  0.00  0.00    +0.030 A 
ATOM      6  C   UNL     1       2.386   0.867   0.416  0.00  0.00    +0.067 A 
ATOM      7  C   UNL     1       2.315  -0.527   0.378  0.00  0.00    +0.069 A 
ATOM      8  C   UNL     1       1.081  -1.154   0.309  0.00  0.00    +0.056 A 
ATOM      9  C   UNL     1      -0.074  -0.397   0.280  0.00  0.00    +0.108 A 
ATOM     10  N   UNL     1       3.625  -0.999   0.421  0.00  0.00    -0.306 N 
ATOM     11  H   UNL     1       3.894  -1.931   0.409  0.00  0.00    +0.170 HD
ATOM     12  C   UNL     1       4.455   0.060   0.483  0.00  0.00    +0.325 A 
ATOM     13  O   UNL     1       5.669  -0.003   0.533  0.00  0.00    -0.247 OA
ATOM     14  N   UNL     1       3.737   1.199   0.482  0.00  0.00    -0.306 N 
ATOM     15  H   UNL     1       4.099   2.098   0.520  0.00  0.00    +0.170 HD
ENDBRANCH   1   9
BRANCH   1  16
ATOM     16  N   UNL     1      -2.014  -1.374  -1.409  0.00  0.00    -0.174 NA
ATOM     17  C   UNL     1      -2.749  -0.328  -2.137  0.00  0.00    +0.125 C 
ATOM     18  C   UNL     1      -3.937  -0.978  -2.854  0.00  0.00    +0.102 C 
ATOM     19  N   UNL     1      -3.456  -2.090  -3.684  0.00  0.00    -0.296 NA
ATOM     20  C   UNL     1      -2.850  -3.146  -2.860  0.00  0.00    +0.102 C 
ATOM     21  C   UNL     1      -1.612  -2.582  -2.145  0.00  0.00    +0.125 C 
BRANCH  19  22
ATOM     22  C   UNL     1      -4.537  -2.630  -4.519  0.00  0.00    +0.121 C 
BRANCH  22  23
ATOM     23  C   UNL     1      -3.947  -3.482  -5.614  0.00  0.00    -0.015 A 
ATOM     24  C   UNL     1      -4.037  -4.859  -5.542  0.00  0.00    +0.008 A 
ATOM     25  C   UNL     1      -3.497  -5.641  -6.545  0.00  0.00    +0.020 A 
ATOM     26  C   UNL     1      -2.866  -5.045  -7.624  0.00  0.00    +0.042 A 
ATOM     27  C   UNL     1      -2.777  -3.667  -7.697  0.00  0.00    +0.040 A 
ATOM     28  C   UNL     1      -3.322  -2.885  -6.694  0.00  0.00    +0.047 A 
ATOM     29 CL   UNL     1      -3.216  -1.155  -6.788  0.00  0.00    -0.083 Cl
ATOM     30 CL   UNL     1      -2.188  -6.027  -8.884  0.00  0.00    -0.083 Cl
ENDBRANCH  22  23
ENDBRANCH  19  22
ENDBRANCH   1  16
TORSDOF 4
