REMARK  Name = ZINC39500540
REMARK  8 active torsions:
REMARK  status: ('A' for Active; 'I' for Inactive)
REMARK    1  A    between atoms: C_1  and  C_2
REMARK    2  A    between atoms: C_5  and  N_9
REMARK    3  A    between atoms: C_7  and  C_8
REMARK    4  A    between atoms: C_14  and  N_19
REMARK    5  A    between atoms: N_19  and  C_20
REMARK    6  A    between atoms: C_20  and  C_21
REMARK    7  A    between atoms: N_26  and  C_27
REMARK    8  A    between atoms: N_26  and  C_28
REMARK                            x       y       z     vdW  Elec       q    Type
REMARK                         _______ _______ _______ _____ _____    ______ ____
ROOT
ATOM      1  N   UNL     1       0.153  -4.204  -0.022  0.00  0.00    -0.237 N 
ATOM      2  C   UNL     1      -0.387  -5.040  -0.928  0.00  0.00    +0.047 A 
ATOM      3  C   UNL     1      -0.218  -6.309  -0.475  0.00  0.00    -0.020 A 
ATOM      4  C   UNL     1       0.450  -6.244   0.746  0.00  0.00    +0.137 A 
ATOM      5  N   UNL     1       0.680  -4.982   1.019  0.00  0.00    -0.174 NA
ATOM      6  C   UNL     1      -0.692  -7.539  -1.208  0.00  0.00    -0.037 C 
ATOM      7  C   UNL     1      -1.714  -7.107  -2.267  0.00  0.00    -0.011 C 
ATOM      8  C   UNL     1      -1.138  -5.953  -3.093  0.00  0.00    +0.005 C 
ATOM      9  C   UNL     1      -1.067  -4.689  -2.228  0.00  0.00    +0.056 C 
ENDROOT
BRANCH   1  14
ATOM     10  C   UNL     1       0.299   1.460  -0.366  0.00  0.00    +0.044 C 
ATOM     11  C   UNL     1       0.260  -0.044  -0.275  0.00  0.00    -0.047 A 
ATOM     12  C   UNL     1      -0.886  -0.728  -0.635  0.00  0.00    +0.006 A 
ATOM     13  C   UNL     1      -0.925  -2.106  -0.553  0.00  0.00    +0.028 A 
ATOM     14  C   UNL     1       0.190  -2.805  -0.108  0.00  0.00    +0.066 A 
ATOM     15  C   UNL     1       1.339  -2.116   0.253  0.00  0.00    +0.031 A 
ATOM     16  C   UNL     1       1.373  -0.738   0.164  0.00  0.00    -0.046 A 
ATOM     17  C   UNL     1       2.622   0.011   0.550  0.00  0.00    +0.044 C 
ENDBRANCH   1  14
BRANCH   6  18
ATOM     18  N   UNL     1      -1.323  -8.467  -0.260  0.00  0.00    +0.387 N 
ATOM     19  H   UNL     1      -0.684  -8.662   0.495  0.00  0.00    -0.085 HD
ATOM     20  H   UNL     1      -2.164  -8.049   0.110  0.00  0.00    -0.085 HD
BRANCH  18  21
ATOM     21  C   UNL     1      -1.661  -9.718  -0.952  0.00  0.00    -0.037 C 
BRANCH  21  22
ATOM     22  C   UNL     1      -2.192 -10.715   0.046  0.00  0.00    -0.006 A 
ATOM     23  C   UNL     1      -3.465 -10.939   0.450  0.00  0.00    +0.122 A 
ATOM     24  N   UNL     1      -3.652 -11.888   1.350  0.00  0.00    -0.233 NA
ATOM     25  C   UNL     1      -2.640 -12.581   1.827  0.00  0.00    +0.160 A 
ATOM     26  S   UNL     1      -1.316 -11.933   1.014  0.00  0.00    -0.059 S 
ATOM     27  N   UNL     1      -2.660 -13.601   2.765  0.00  0.00    -0.316 N 
ATOM     28  C   UNL     1      -3.931 -14.028   3.356  0.00  0.00    +0.131 C 
ATOM     29  C   UNL     1      -1.410 -14.251   3.167  0.00  0.00    +0.131 C 
ENDBRANCH  21  22
ENDBRANCH  18  21
ENDBRANCH   6  18
TORSDOF 4
