REMARK  Name = ZINC38919815
REMARK  3 active torsions:
REMARK  status: ('A' for Active; 'I' for Inactive)
REMARK    1  A    between atoms: C_6  and  C_7
REMARK    2  A    between atoms: C_9  and  C_12
REMARK    3  A    between atoms: N_17  and  C_19
REMARK                            x       y       z     vdW  Elec       q    Type
REMARK                         _______ _______ _______ _____ _____    ______ ____
ROOT
ATOM      1  C   UNL     1      -3.169  -3.868   0.017  0.00  0.00    +0.104 C 
ATOM      2  C   UNL     1      -4.119  -4.083   1.218  0.00  0.00    +0.111 C 
ATOM      3  C   UNL     1      -5.494  -3.790   0.661  0.00  0.00    +0.221 C 
ATOM      4  O   UNL     1      -6.482  -3.571   1.329  0.00  0.00    -0.275 OA
ATOM      5  N   UNL     1      -5.462  -3.807  -0.683  0.00  0.00    -0.271 N 
ATOM      6  C   UNL     1      -4.114  -4.112  -1.181  0.00  0.00    +0.127 C 
ENDROOT
BRANCH   5   7
ATOM      7  C   UNL     1      -6.571  -3.565  -1.503  0.00  0.00    +0.038 A 
ATOM      8  C   UNL     1      -7.829  -3.396  -0.939  0.00  0.00    +0.026 A 
ATOM      9  C   UNL     1      -8.922  -3.156  -1.749  0.00  0.00    +0.041 A 
ATOM     10  C   UNL     1      -8.764  -3.086  -3.123  0.00  0.00    +0.142 A 
ATOM     11  C   UNL     1      -7.510  -3.254  -3.688  0.00  0.00    +0.078 A 
ATOM     12  C   UNL     1      -6.413  -3.488  -2.880  0.00  0.00    +0.046 A 
ATOM     13 CL   UNL     1      -7.316  -3.165  -5.411  0.00  0.00    -0.081 Cl
ATOM     14  F   UNL     1      -9.835  -2.853  -3.913  0.00  0.00    -0.204 F 
ENDBRANCH   5   7
BRANCH   1  17
ATOM     15  C   UNL     1      -1.249  -0.789  -0.027  0.00  0.00    +0.202 A 
ATOM     16  N   UNL     1      -1.371  -2.128  -0.015  0.00  0.00    -0.191 NA
ATOM     17  C   UNL     1      -2.630  -2.461   0.000  0.00  0.00    +0.233 A 
ATOM     18  O   UNL     1      -3.365  -1.341  -0.002  0.00  0.00    -0.337 OA
ATOM     19  N   UNL     1      -2.447  -0.259  -0.015  0.00  0.00    -0.056 NA
BRANCH  15  25
ATOM     20  C   UNL     1       0.021   1.357  -0.051  0.00  0.00    +0.014 A 
ATOM     21  C   UNL     1       1.213   2.053  -0.068  0.00  0.00    +0.040 A 
ATOM     22  C   UNL     1       2.417   1.369  -0.079  0.00  0.00    +0.142 A 
ATOM     23  C   UNL     1       2.431  -0.018  -0.074  0.00  0.00    +0.077 A 
ATOM     24  C   UNL     1       1.244  -0.722  -0.058  0.00  0.00    +0.034 A 
ATOM     25  C   UNL     1       0.030  -0.037  -0.046  0.00  0.00    +0.024 A 
ATOM     26 CL   UNL     1       3.944  -0.870  -0.089  0.00  0.00    -0.081 Cl
ATOM     27  F   UNL     1       3.581   2.054  -0.096  0.00  0.00    -0.204 F 
ENDBRANCH  15  25
ENDBRANCH   1  17
TORSDOF 3
