REMARK  Name = ZINC18205879
REMARK  5 active torsions:
REMARK  status: ('A' for Active; 'I' for Inactive)
REMARK    1  A    between atoms: C_1  and  C_2
REMARK    2  A    between atoms: C_3  and  N_9
REMARK    3  A    between atoms: C_14  and  C_16
REMARK    4  A    between atoms: C_16  and  C_18
REMARK    5  A    between atoms: N_21  and  C_24
REMARK                            x       y       z     vdW  Elec       q    Type
REMARK                         _______ _______ _______ _____ _____    ______ ____
ROOT
ATOM      1  N   UNL     1      -0.010   0.008  -2.411  0.00  0.00    -0.211 N 
ATOM      2  C   UNL     1       1.031  -0.084  -3.446  0.00  0.00    +0.202 C 
ATOM      3  C   UNL     1       0.511   0.890  -4.540  0.00  0.00    +0.161 C 
ATOM      4  C   UNL     1      -0.783   1.387  -3.926  0.00  0.00    +0.116 C 
ATOM      5  N   UNL     1      -0.933   0.814  -2.770  0.00  0.00    -0.179 NA
ATOM      6  C   UNL     1       0.219  -0.023  -5.709  0.00  0.00    +0.238 C 
ATOM      7  O   UNL     1      -0.214   0.333  -6.784  0.00  0.00    -0.274 OA
ATOM      8  N   UNL     1       0.512  -1.284  -5.372  0.00  0.00    -0.207 N 
ATOM      9  C   UNL     1       0.970  -1.443  -4.106  0.00  0.00    +0.250 C 
ATOM     10  O   UNL     1       1.301  -2.488  -3.588  0.00  0.00    -0.273 OA
ENDROOT
BRANCH   1  13
ATOM     11  C   UNL     1       1.068   1.305  -0.119  0.00  0.00    +0.047 C 
ATOM     12  C   UNL     1       0.523  -0.099  -0.060  0.00  0.00    -0.009 A 
ATOM     13  C   UNL     1       0.006  -0.693  -1.205  0.00  0.00    +0.057 A 
ATOM     14  C   UNL     1      -0.496  -1.988  -1.146  0.00  0.00    +0.025 A 
ATOM     15  C   UNL     1      -0.480  -2.680   0.050  0.00  0.00    +0.003 A 
ATOM     16  C   UNL     1       0.035  -2.086   1.187  0.00  0.00    +0.020 A 
ATOM     17  C   UNL     1       0.541  -0.799   1.131  0.00  0.00    +0.046 A 
ATOM     18 CL   UNL     1       1.194  -0.061   2.561  0.00  0.00    -0.083 Cl
ENDBRANCH   1  13
BRANCH   8  19
ATOM     19  C   UNL     1       0.346  -2.362  -6.254  0.00  0.00    +0.062 A 
ATOM     20  C   UNL     1       1.388  -2.747  -7.087  0.00  0.00    +0.025 A 
ATOM     21  C   UNL     1       1.222  -3.809  -7.954  0.00  0.00    +0.002 A 
ATOM     22  C   UNL     1       0.018  -4.489  -7.993  0.00  0.00    +0.002 A 
ATOM     23  C   UNL     1      -1.022  -4.109  -7.166  0.00  0.00    +0.022 A 
ATOM     24  C   UNL     1      -0.859  -3.051  -6.291  0.00  0.00    +0.063 A 
ATOM     25 CL   UNL     1      -2.163  -2.579  -5.246  0.00  0.00    -0.082 Cl
ENDBRANCH   8  19
BRANCH   4  26
ATOM     26  C   UNL     1      -1.673   2.307  -4.512  0.00  0.00    +0.176 C 
ATOM     27  O   UNL     1      -1.430   2.776  -5.606  0.00  0.00    -0.291 OA
ATOM     28  C   UNL     1      -2.928   2.711  -3.781  0.00  0.00    +0.093 C 
ENDBRANCH   4  26
TORSDOF 3
