REMARK  Name = ZINC00728985
REMARK  6 active torsions:
REMARK  status: ('A' for Active; 'I' for Inactive)
REMARK    1  A    between atoms: C_1  and  C_2
REMARK    2  A    between atoms: C_2  and  C_4
REMARK    3  A    between atoms: C_2  and  N_18
REMARK    4  A    between atoms: C_8  and  C_17
REMARK    5  A    between atoms: C_13  and  C_15
REMARK    6  A    between atoms: C_13  and  C_16
REMARK                            x       y       z     vdW  Elec       q    Type
REMARK                         _______ _______ _______ _____ _____    ______ ____
ROOT
ATOM      1  C   UNL     1       0.878  -3.194  -0.935  0.00  0.00    +0.038 C 
ATOM      2  C   UNL     1       0.746  -2.824   0.544  0.00  0.00    +0.167 C 
ENDROOT
BRANCH   2   3
ATOM      3  C   UNL     1       1.676  -1.681   0.860  0.00  0.00    +0.237 C 
ATOM      4  O   UNL     1       2.777  -1.905   1.317  0.00  0.00    -0.274 OA
ATOM      5  N   UNL     1       1.284  -0.410   0.636  0.00  0.00    -0.296 N 
ATOM      6  C   UNL     1       0.025   0.001  -0.003  0.00  0.00    +0.114 C 
ATOM      7  C   UNL     1       0.016   1.546   0.002  0.00  0.00    -0.014 C 
ATOM      8  C   UNL     1       1.532   1.888  -0.008  0.00  0.00    +0.030 C 
ATOM      9  C   UNL     1       2.047   0.806   0.976  0.00  0.00    +0.077 C 
ATOM     10  C   UNL     1       1.669   1.266   2.382  0.00  0.00    +0.029 C 
ATOM     11  C   UNL     1       0.190   1.551   2.562  0.00  0.00    -0.033 C 
ATOM     12  C   UNL     1      -0.553   2.035   1.332  0.00  0.00    +0.014 C 
ATOM     13  C   UNL     1      -0.508   0.310   3.140  0.00  0.00    +0.011 C 
ATOM     14  C   UNL     1       0.067   2.661   3.637  0.00  0.00    +0.011 C 
ATOM     15  C   UNL     1      -0.723   2.130  -1.211  0.00  0.00    +0.013 C 
ENDBRANCH   2   3
BRANCH   2  16
ATOM     16  N   UNL     1       1.095  -3.981   1.371  0.00  0.00    -0.222 N 
ATOM     17  C   UNL     1       2.289  -4.600   1.349  0.00  0.00    +0.254 C 
ATOM     18  O   UNL     1       3.234  -4.292   0.651  0.00  0.00    -0.270 OA
ATOM     19  C   UNL     1       2.260  -5.715   2.319  0.00  0.00    +0.049 A 
ATOM     20  C   UNL     1       3.177  -6.673   2.720  0.00  0.00    +0.014 A 
ATOM     21  C   UNL     1       2.819  -7.609   3.678  0.00  0.00    +0.001 A 
ATOM     22  C   UNL     1       1.554  -7.592   4.235  0.00  0.00    +0.001 A 
ATOM     23  C   UNL     1       0.626  -6.640   3.843  0.00  0.00    +0.014 A 
ATOM     24  C   UNL     1       0.970  -5.698   2.887  0.00  0.00    +0.049 A 
ATOM     25  C   UNL     1       0.261  -4.570   2.247  0.00  0.00    +0.254 C 
ATOM     26  O   UNL     1      -0.882  -4.230   2.476  0.00  0.00    -0.270 OA
ENDBRANCH   2  16
TORSDOF 2
