REMARK  Name = ZINC11814838
REMARK  10 active torsions:
REMARK  status: ('A' for Active; 'I' for Inactive)
REMARK    1  A    between atoms: C_1  and  C_2
REMARK    2  A    between atoms: C_3  and  C_11
REMARK    3  A    between atoms: C_4  and  C_10
REMARK    4  A    between atoms: N_5  and  C_7
REMARK    5  A    between atoms: C_7  and  C_8
REMARK    6  A    between atoms: C_7  and  C_9
REMARK    7  A    between atoms: N_17  and  C_24
REMARK    8  A    between atoms: C_24  and  C_25
REMARK    9  A    between atoms: C_30  and  O_31
REMARK   10  A    between atoms: O_31  and  C_32
REMARK                            x       y       z     vdW  Elec       q    Type
REMARK                         _______ _______ _______ _____ _____    ______ ____
ROOT
ATOM      1  C   UNL     1       0.525   2.643   1.613  0.00  0.00    -0.032 C 
ATOM      2  C   UNL     1       1.934   2.683   1.000  0.00  0.00    -0.007 C 
ATOM      3  C   UNL     1       1.734   2.962  -0.499  0.00  0.00    +0.003 C 
ATOM      4  C   UNL     1       2.437   1.863  -1.324  0.00  0.00    +0.110 C 
ATOM      5  N   UNL     1       1.452   0.786  -1.487  0.00  0.00    -0.298 N 
ATOM      6  C   UNL     1       0.208   1.213  -1.201  0.00  0.00    +0.206 C 
ATOM      7  O   UNL     1      -0.796   0.538  -1.292  0.00  0.00    -0.277 OA
ATOM      8  C   UNL     1       0.242   2.642  -0.755  0.00  0.00    +0.018 C 
ATOM      9  C   UNL     1      -0.915   4.261   0.500  0.00  0.00    -0.077 C 
ATOM     10  C   UNL     1      -1.390   4.441  -0.966  0.00  0.00    -0.019 C 
ATOM     11  C   UNL     1      -0.358   3.614  -1.771  0.00  0.00    -0.004 C 
ATOM     12  N   UNL     1      -0.435   2.869   0.505  0.00  0.00    +0.394 N 
ATOM     13  H   UNL     1      -1.230   2.226   0.603  0.00  0.00    -0.079 HD
ENDROOT
BRANCH   1  16
ATOM     14  C   UNL     1      -2.193   3.697   2.854  0.00  0.00    +0.068 C 
ATOM     15  C   UNL     1      -0.813   4.201   3.191  0.00  0.00    +0.062 A 
ATOM     16  C   UNL     1       0.386   3.735   2.642  0.00  0.00    -0.018 A 
ATOM     17  C   UNL     1       1.400   4.433   3.204  0.00  0.00    +0.038 A 
ATOM     18  N   UNL     1       0.861   5.316   4.070  0.00  0.00    -0.266 N 
ATOM     19  N   UNL     1      -0.530   5.149   4.047  0.00  0.00    -0.176 NA
ATOM     20  C   UNL     1       2.868   4.259   2.911  0.00  0.00    +0.065 C 
BRANCH  18  21
ATOM     21  C   UNL     1       1.599   6.276   4.894  0.00  0.00    +0.101 C 
ATOM     22  C   UNL     1       1.148   7.697   4.550  0.00  0.00    +0.032 C 
ATOM     23  C   UNL     1       1.323   5.998   6.373  0.00  0.00    +0.032 C 
ENDBRANCH  18  21
ENDBRANCH   1  16
BRANCH   5  24
ATOM     24  C   UNL     1       1.782  -0.578  -1.907  0.00  0.00    +0.146 C 
BRANCH  24  25
ATOM     25  C   UNL     1       1.712  -0.672  -3.409  0.00  0.00    +0.011 A 
ATOM     26  C   UNL     1       0.595  -1.213  -4.017  0.00  0.00    +0.009 A 
ATOM     27  C   UNL     1       0.529  -1.298  -5.395  0.00  0.00    +0.001 A 
ATOM     28  C   UNL     1       1.581  -0.844  -6.169  0.00  0.00    +0.004 A 
ATOM     29  C   UNL     1       2.700  -0.304  -5.566  0.00  0.00    +0.046 A 
ATOM     30  C   UNL     1       2.766  -0.211  -4.184  0.00  0.00    +0.125 A 
BRANCH  30  31
ATOM     31  O   UNL     1       3.863   0.327  -3.588  0.00  0.00    -0.495 OA
ATOM     32  C   UNL     1       4.910   0.781  -4.448  0.00  0.00    +0.277 C 
ENDBRANCH  30  31
ENDBRANCH  24  25
ENDBRANCH   5  24
TORSDOF 5
