REMARK  Name = ZINC29639943
REMARK  9 active torsions:
REMARK  status: ('A' for Active; 'I' for Inactive)
REMARK    1  A    between atoms: C_1  and  O_2
REMARK    2  A    between atoms: O_2  and  C_3
REMARK    3  A    between atoms: C_8  and  O_9
REMARK    4  A    between atoms: O_9  and  C_10
REMARK    5  A    between atoms: C_15  and  C_17
REMARK    6  A    between atoms: C_17  and  N_18
REMARK    7  A    between atoms: N_21  and  C_24
REMARK    8  A    between atoms: C_24  and  C_25
REMARK    9  A    between atoms: C_28  and  C_31
REMARK                            x       y       z     vdW  Elec       q    Type
REMARK                         _______ _______ _______ _____ _____    ______ ____
ROOT
ATOM      1  N   UNL     1      -2.543   4.164   0.037  0.00  0.00    +0.387 N 
ATOM      2  C   UNL     1      -3.234   3.831  -1.217  0.00  0.00    -0.063 C 
ATOM      3  C   UNL     1      -4.688   4.302  -1.136  0.00  0.00    +0.066 C 
ATOM      4  N   UNL     1      -4.718   5.750  -0.890  0.00  0.00    -0.302 NA
ATOM      5  C   UNL     1      -4.028   6.083   0.364  0.00  0.00    +0.066 C 
ATOM      6  C   UNL     1      -2.574   5.612   0.283  0.00  0.00    -0.063 C 
ATOM      7  H   UNL     1      -3.077   3.668   0.861  0.00  0.00    -0.081 HD
ENDROOT
BRANCH   1   8
ATOM      8  C   UNL     1      -1.163   3.661   0.028  0.00  0.00    +0.019 C 
BRANCH   8  19
ATOM      9  C   UNL     1       3.968   0.391  -2.821  0.00  0.00    +0.162 A 
ATOM     10  C   UNL     1       2.787  -0.256  -2.508  0.00  0.00    +0.053 A 
ATOM     11  C   UNL     1       1.894   0.302  -1.601  0.00  0.00    -0.038 A 
ATOM     12  C   UNL     1       2.193   1.507  -1.004  0.00  0.00    -0.023 A 
ATOM     13  C   UNL     1       3.375   2.163  -1.319  0.00  0.00    +0.054 A 
ATOM     14  C   UNL     1       4.265   1.612  -2.224  0.00  0.00    +0.162 A 
ATOM     15  C   UNL     1       1.276   2.159   0.002  0.00  0.00    +0.143 C 
ATOM     16  N   UNL     1      -0.018   1.468   0.010  0.00  0.00    -0.298 N 
ATOM     17  C   UNL     1       0.002  -0.004   0.002  0.00  0.00    +0.112 C 
ATOM     18  C   UNL     1       0.625  -0.458  -1.317  0.00  0.00    +0.054 C 
ATOM     19  C   UNL     1      -1.178   2.154   0.019  0.00  0.00    +0.199 C 
ATOM     20  O   UNL     1      -2.235   1.558   0.021  0.00  0.00    -0.278 OA
BRANCH   9  22
ATOM     21  C   UNL     1       4.464  -1.419  -4.283  0.00  0.00    +0.277 C 
ATOM     22  O   UNL     1       4.836  -0.164  -3.709  0.00  0.00    -0.491 OA
ENDBRANCH   9  22
BRANCH  14  23
ATOM     23  O   UNL     1       5.422   2.260  -2.527  0.00  0.00    -0.491 OA
ATOM     24  C   UNL     1       5.657   3.508  -1.873  0.00  0.00    +0.277 C 
ENDBRANCH  14  23
ENDBRANCH   8  19
ENDBRANCH   1   8
BRANCH   4  25
ATOM     25  C   UNL     1      -6.098   6.254  -0.880  0.00  0.00    +0.119 C 
BRANCH  25  26
ATOM     26  C   UNL     1      -6.693   6.115  -2.258  0.00  0.00    -0.033 A 
ATOM     27  C   UNL     1      -6.573   7.147  -3.170  0.00  0.00    +0.005 A 
ATOM     28  C   UNL     1      -7.115   7.018  -4.435  0.00  0.00    +0.012 A 
ATOM     29  C   UNL     1      -7.785   5.861  -4.785  0.00  0.00    +0.055 A 
ATOM     30  C   UNL     1      -7.908   4.830  -3.872  0.00  0.00    +0.012 A 
ATOM     31  C   UNL     1      -7.363   4.958  -2.608  0.00  0.00    +0.005 A 
BRANCH  29  32
ATOM     32  C   UNL     1      -8.379   5.722  -6.163  0.00  0.00    +0.417 C 
ATOM     33  F   UNL     1      -9.694   6.201  -6.154  0.00  0.00    -0.166 F 
ATOM     34  F   UNL     1      -7.620   6.462  -7.075  0.00  0.00    -0.166 F 
ATOM     35  F   UNL     1      -8.376   4.375  -6.539  0.00  0.00    -0.166 F 
ENDBRANCH  29  32
ENDBRANCH  25  26
ENDBRANCH   4  25
TORSDOF 7
