REMARK  Name = ZINC35485915
REMARK  6 active torsions:
REMARK  status: ('A' for Active; 'I' for Inactive)
REMARK    1  A    between atoms: C_1  and  C_2
REMARK    2  A    between atoms: C_2  and  C_3
REMARK    3  A    between atoms: C_3  and  O_4
REMARK    4  A    between atoms: O_4  and  C_5
REMARK    5  A    between atoms: C_8  and  C_11
REMARK    6  A    between atoms: C_30  and  C_32
REMARK                            x       y       z     vdW  Elec       q    Type
REMARK                         _______ _______ _______ _____ _____    ______ ____
ROOT
ATOM      1  C   UNL     1      -6.397  -4.588   0.038  0.00  0.00    +0.151 C 
ATOM      2  C   UNL     1      -6.738  -5.064  -1.336  0.00  0.00    +0.072 A 
ATOM      3  C   UNL     1      -6.949  -4.332  -2.588  0.00  0.00    +0.199 A 
ATOM      4  O   UNL     1      -6.695  -3.147  -2.719  0.00  0.00    -0.287 OA
ATOM      5  C   UNL     1      -7.501  -5.171  -3.682  0.00  0.00    +0.067 A 
ATOM      6  C   UNL     1      -7.942  -4.583  -4.867  0.00  0.00    +0.053 A 
ATOM      7  C   UNL     1      -8.457  -5.377  -5.870  0.00  0.00    +0.124 A 
ATOM      8  C   UNL     1      -8.534  -6.754  -5.697  0.00  0.00    +0.042 A 
ATOM      9  C   UNL     1      -8.100  -7.343  -4.532  0.00  0.00    +0.050 A 
ATOM     10  C   UNL     1      -7.573  -6.562  -3.504  0.00  0.00    +0.140 A 
ATOM     11  O   UNL     1      -7.144  -7.169  -2.373  0.00  0.00    -0.450 OA
ATOM     12  C   UNL     1      -6.849  -6.426  -1.288  0.00  0.00    +0.199 A 
ATOM     13  C   UNL     1      -6.595  -6.862   0.095  0.00  0.00    +0.289 C 
ATOM     14  O   UNL     1      -6.621  -8.015   0.476  0.00  0.00    -0.266 OA
ATOM     15  N   UNL     1      -6.330  -5.795   0.878  0.00  0.00    -0.230 N 
ATOM     16  C   UNL     1      -6.043  -5.829   2.236  0.00  0.00    +0.191 A 
ATOM     17  N   UNL     1      -5.777  -4.838   3.077  0.00  0.00    -0.125 NA
ATOM     18  N   UNL     1      -5.536  -5.048   4.297  0.00  0.00    -0.145 NA
ATOM     19  C   UNL     1      -5.532  -6.261   4.813  0.00  0.00    +0.101 A 
ATOM     20  S   UNL     1      -5.933  -7.221   3.356  0.00  0.00    -0.035 S 
ATOM     21  C   UNL     1      -5.270  -6.711   6.228  0.00  0.00    +0.075 C 
ATOM     22  F   UNL     1      -8.887  -4.816  -7.022  0.00  0.00    -0.205 F 
ENDROOT
BRANCH   1  26
ATOM     23  C   UNL     1      -2.616  -2.596   0.013  0.00  0.00    +0.121 A 
ATOM     24  C   UNL     1      -3.791  -1.857   0.022  0.00  0.00    +0.046 A 
ATOM     25  C   UNL     1      -5.012  -2.504   0.030  0.00  0.00    +0.009 A 
ATOM     26  C   UNL     1      -5.064  -3.885   0.029  0.00  0.00    -0.022 A 
ATOM     27  C   UNL     1      -3.895  -4.624   0.020  0.00  0.00    +0.009 A 
ATOM     28  C   UNL     1      -2.671  -3.982   0.006  0.00  0.00    +0.046 A 
BRANCH  23  29
ATOM     29  O   UNL     1      -1.414  -1.962   0.005  0.00  0.00    -0.492 OA
BRANCH  29  30
ATOM     30  C   UNL     1      -1.433  -0.534   0.013  0.00  0.00    +0.229 C 
BRANCH  30  32
ATOM     31  C   UNL     1      -0.019   1.526   0.010  0.00  0.00    +0.007 C 
ATOM     32  C   UNL     1       0.002  -0.004   0.002  0.00  0.00    +0.038 C 
ENDBRANCH  30  32
ENDBRANCH  29  30
ENDBRANCH  23  29
ENDBRANCH   1  26
TORSDOF 4
