REMARK  Name = ZINC04728827
REMARK  3 active torsions:
REMARK  status: ('A' for Active; 'I' for Inactive)
REMARK    1  A    between atoms: C_1  and  C_2
REMARK    2  A    between atoms: C_10  and  S_16
REMARK    3  A    between atoms: S_16  and  N_19
REMARK                            x       y       z     vdW  Elec       q    Type
REMARK                         _______ _______ _______ _____ _____    ______ ____
ROOT
ATOM      1  C   UNL     1       7.375   1.408  -4.308  0.00  0.00    +0.027 C 
ATOM      2  C   UNL     1       6.550   1.046  -5.545  0.00  0.00    +0.158 C 
ATOM      3  C   UNL     1       6.176   2.300  -6.291  0.00  0.00    +0.229 C 
ATOM      4  O   UNL     1       6.506   2.423  -7.452  0.00  0.00    -0.275 OA
ATOM      5  N   UNL     1       5.490   3.276  -5.701  0.00  0.00    -0.283 N 
ATOM      6  C   UNL     1       5.084   3.289  -4.370  0.00  0.00    +0.055 A 
ATOM      7  C   UNL     1       5.206   4.501  -3.685  0.00  0.00    +0.027 A 
ATOM      8  C   UNL     1       4.828   4.605  -2.364  0.00  0.00    +0.031 A 
ATOM      9  C   UNL     1       4.321   3.501  -1.704  0.00  0.00    +0.111 A 
ATOM     10  C   UNL     1       4.201   2.299  -2.367  0.00  0.00    +0.054 A 
ATOM     11  C   UNL     1       4.576   2.183  -3.708  0.00  0.00    +0.057 A 
ATOM     12  N   UNL     1       4.415   0.934  -4.300  0.00  0.00    -0.283 N 
ATOM     13  C   UNL     1       5.282   0.350  -5.125  0.00  0.00    +0.229 C 
ATOM     14  O   UNL     1       5.046  -0.763  -5.545  0.00  0.00    -0.275 OA
ATOM     15  H   UNL     1       5.252   4.043  -6.245  0.00  0.00    +0.155 HD
ATOM     16  H   UNL     1       3.602   0.447  -4.094  0.00  0.00    +0.155 HD
ENDROOT
BRANCH   9  17
ATOM     17  S   UNL     1       3.835   3.629  -0.015  0.00  0.00    +0.075 S 
ATOM     18  O   UNL     1       4.561   4.720   0.535  0.00  0.00    -0.150 OA
ATOM     19  O   UNL     1       3.902   2.317   0.528  0.00  0.00    -0.150 OA
BRANCH  17  20
ATOM     20  N   UNL     1       2.238   4.067   0.004  0.00  0.00    -0.202 N 
ATOM     21  C   UNL     1       1.746   5.447   0.016  0.00  0.00    +0.136 C 
ATOM     22  C   UNL     1       0.213   5.329   0.030  0.00  0.00    +0.058 C 
ATOM     23  C   UNL     1      -0.053   3.840   0.024  0.00  0.00    -0.023 A 
ATOM     24  C   UNL     1       1.164   3.175   0.009  0.00  0.00    +0.054 A 
ATOM     25  C   UNL     1       1.173   1.779   0.000  0.00  0.00    +0.025 A 
ATOM     26  C   UNL     1      -0.013   1.076   0.008  0.00  0.00    +0.002 A 
ATOM     27  C   UNL     1      -1.220   1.748   0.017  0.00  0.00    +0.000 A 
ATOM     28  C   UNL     1      -1.238   3.131   0.031  0.00  0.00    +0.005 A 
ENDBRANCH  17  20
ENDBRANCH   9  17
TORSDOF 2
