REMARK  Name = ZINC41851924
REMARK  11 active torsions:
REMARK  status: ('A' for Active; 'I' for Inactive)
REMARK    1  A    between atoms: C_1  and  C_2
REMARK    2  A    between atoms: C_2  and  C_3
REMARK    3  A    between atoms: C_2  and  C_4
REMARK    4  A    between atoms: C_2  and  C_5
REMARK    5  A    between atoms: C_5  and  C_6
REMARK    6  A    between atoms: C_6  and  C_8
REMARK    7  A    between atoms: C_6  and  N_15
REMARK    8  A    between atoms: C_16  and  C_18
REMARK    9  A    between atoms: N_20  and  C_21
REMARK   10  A    between atoms: C_24  and  C_27
REMARK   11  A    between atoms: C_27  and  C_28
REMARK                            x       y       z     vdW  Elec       q    Type
REMARK                         _______ _______ _______ _____ _____    ______ ____
ROOT
ATOM      1  N   UNL     1       2.852  -0.419   0.037  0.00  0.00    -0.301 N 
ATOM      2  C   UNL     1       2.605   0.216   1.200  0.00  0.00    +0.300 C 
ATOM      3  O   UNL     1       1.661   0.974   1.289  0.00  0.00    -0.265 OA
ATOM      4  H   UNL     1       3.561  -1.079  -0.013  0.00  0.00    +0.150 HD
ENDROOT
BRANCH   2   5
ATOM      5  C   UNL     1       3.491  -0.015   2.380  0.00  0.00    +0.303 C 
ATOM      6  O   UNL     1       4.434  -0.773   2.292  0.00  0.00    -0.265 OA
ATOM      7  N   UNL     1       3.243   0.620   3.543  0.00  0.00    -0.278 N 
ATOM      8  H   UNL     1       2.452   1.173   3.635  0.00  0.00    +0.155 HD
BRANCH   7   9
ATOM      9  C   UNL     1       4.127   0.482   4.616  0.00  0.00    +0.034 A 
ATOM     10  C   UNL     1       3.644   0.468   5.919  0.00  0.00    +0.023 A 
ATOM     11  C   UNL     1       4.520   0.331   6.977  0.00  0.00    +0.006 A 
ATOM     12  C   UNL     1       5.877   0.207   6.742  0.00  0.00    -0.039 A 
ATOM     13  C   UNL     1       6.362   0.221   5.447  0.00  0.00    +0.006 A 
ATOM     14  C   UNL     1       5.490   0.351   4.383  0.00  0.00    +0.023 A 
BRANCH  12  15
ATOM     15  C   UNL     1       6.830   0.058   7.900  0.00  0.00    +0.130 C 
BRANCH  15  16
ATOM     16  C   UNL     1       7.008  -1.404   8.219  0.00  0.00    +0.215 C 
ATOM     17  O   UNL     1       6.418  -2.242   7.570  0.00  0.00    -0.276 OA
ATOM     18  N   UNL     1       7.821  -1.780   9.226  0.00  0.00    -0.329 N 
ATOM     19  H   UNL     1       8.293  -1.110   9.744  0.00  0.00    +0.145 HD
ATOM     20  H   UNL     1       7.936  -2.721   9.431  0.00  0.00    +0.145 HD
ENDBRANCH  15  16
ENDBRANCH  12  15
ENDBRANCH   7   9
ENDBRANCH   2   5
BRANCH   1  21
ATOM     21  C   UNL     1       2.051  -0.112  -1.150  0.00  0.00    +0.104 C 
BRANCH  21  22
ATOM     22  C   UNL     1       2.805  -0.528  -2.386  0.00  0.00    -0.027 A 
ATOM     23  C   UNL     1       3.195  -1.844  -2.547  0.00  0.00    +0.008 A 
ATOM     24  C   UNL     1       3.887  -2.227  -3.681  0.00  0.00    +0.038 A 
ATOM     25  C   UNL     1       4.188  -1.291  -4.656  0.00  0.00    +0.123 A 
ATOM     26  C   UNL     1       3.797   0.027  -4.494  0.00  0.00    +0.038 A 
ATOM     27  C   UNL     1       3.101   0.406  -3.362  0.00  0.00    +0.008 A 
ATOM     28  F   UNL     1       4.864  -1.665  -5.765  0.00  0.00    -0.205 F 
ENDBRANCH  21  22
BRANCH  21  29
ATOM     29  C   UNL     1       0.725  -0.872  -1.081  0.00  0.00    +0.033 C 
BRANCH  29  31
ATOM     30  C   UNL     1       0.415  -0.780  -3.559  0.00  0.00    +0.010 C 
ATOM     31  C   UNL     1      -0.194  -0.397  -2.208  0.00  0.00    -0.036 C 
ATOM     32  C   UNL     1      -0.351   1.123  -2.133  0.00  0.00    +0.010 C 
ATOM     33  C   UNL     1      -1.566  -1.059  -2.061  0.00  0.00    +0.010 C 
ENDBRANCH  29  31
ENDBRANCH  21  29
ENDBRANCH   1  21
TORSDOF 8
