REMARK  Name = ZINC61857001
REMARK  4 active torsions:
REMARK  status: ('A' for Active; 'I' for Inactive)
REMARK    1  A    between atoms: C_3  and  C_19
REMARK    2  A    between atoms: C_6  and  S_7
REMARK    3  A    between atoms: S_7  and  C_8
REMARK    4  A    between atoms: N_12  and  C_13
REMARK                            x       y       z     vdW  Elec       q    Type
REMARK                         _______ _______ _______ _____ _____    ______ ____
ROOT
ATOM      1  C   UNL     1       0.510   0.304  -0.936  0.00  0.00    +0.016 A 
ATOM      2  C   UNL     1       1.735   0.917  -1.063  0.00  0.00    +0.014 A 
ATOM      3  C   UNL     1       2.344   1.498   0.053  0.00  0.00    +0.030 A 
ATOM      4  C   UNL     1       1.704   1.455   1.296  0.00  0.00    +0.052 A 
ATOM      5  C   UNL     1       0.477   0.840   1.417  0.00  0.00    +0.035 A 
ATOM      6  C   UNL     1      -0.125   0.263   0.303  0.00  0.00    +0.017 A 
ATOM      7 CL   UNL     1       2.456   2.175   2.686  0.00  0.00    -0.083 Cl
ENDROOT
BRANCH   3   8
ATOM      8  C   UNL     1       3.659   2.156  -0.080  0.00  0.00    +0.096 C 
ATOM      9  N   UNL     1       4.681   1.762   0.679  0.00  0.00    -0.387 N 
ATOM     10  N   UNL     1       3.824   3.143  -0.960  0.00  0.00    -0.345 N 
ATOM     11  H   UNL     1       4.568   1.026   1.301  0.00  0.00    +0.157 HD
ATOM     12  H   UNL     1       3.080   3.430  -1.513  0.00  0.00    +0.144 HD
ATOM     13  H   UNL     1       4.688   3.575  -1.048  0.00  0.00    +0.144 HD
ATOM     14  H   UNL     1       5.538   2.211   0.610  0.00  0.00    +0.157 HD
ENDBRANCH   3   8
BRANCH   6  15
ATOM     15  S   UNL     1      -1.694  -0.523   0.460  0.00  0.00    -0.048 S 
BRANCH  15  16
ATOM     16  C   UNL     1      -1.299  -2.178   0.918  0.00  0.00    +0.214 A 
ATOM     17  N   UNL     1      -0.103  -2.647   1.197  0.00  0.00    -0.101 NA
ATOM     18  N   UNL     1      -0.166  -3.895   1.492  0.00  0.00    -0.022 NA
ATOM     19  N   UNL     1      -1.385  -4.309   1.426  0.00  0.00    -0.043 NA
ATOM     20  N   UNL     1      -2.171  -3.204   1.055  0.00  0.00    -0.217 N 
BRANCH  20  21
ATOM     21  C   UNL     1      -3.622  -3.172   0.856  0.00  0.00    +0.112 C 
ATOM     22  C   UNL     1      -4.342  -3.636   2.139  0.00  0.00    +0.027 C 
ATOM     23  C   UNL     1      -5.556  -4.446   1.622  0.00  0.00    +0.002 C 
ATOM     24  C   UNL     1      -4.974  -5.187   0.393  0.00  0.00    +0.002 C 
ATOM     25  C   UNL     1      -4.024  -4.158  -0.254  0.00  0.00    +0.027 C 
ENDBRANCH  20  21
ENDBRANCH  15  16
ENDBRANCH   6  15
TORSDOF 4
