REMARK  Name = ZINC04953661
REMARK  5 active torsions:
REMARK  status: ('A' for Active; 'I' for Inactive)
REMARK    1  A    between atoms: C_6  and  C_7
REMARK    2  A    between atoms: C_8  and  C_9
REMARK    3  A    between atoms: C_8  and  C_11
REMARK    4  A    between atoms: N_13  and  C_14
REMARK    5  A    between atoms: C_19  and  N_20
REMARK                            x       y       z     vdW  Elec       q    Type
REMARK                         _______ _______ _______ _____ _____    ______ ____
ROOT
ATOM      1  C   UNL     1      -0.197   1.671  -0.109  0.00  0.00    +0.259 C 
ATOM      2  O   UNL     1       0.864   2.264  -0.069  0.00  0.00    -0.269 OA
ATOM      3  N   UNL     1      -1.352   2.360  -0.190  0.00  0.00    -0.279 N 
ATOM      4  H   UNL     1      -2.192   1.888  -0.301  0.00  0.00    +0.155 HD
ENDROOT
BRANCH   3   5
ATOM      5  C   UNL     1      -1.340   3.757  -0.114  0.00  0.00    +0.064 A 
ATOM      6  C   UNL     1      -0.420   4.401   0.705  0.00  0.00    +0.027 A 
ATOM      7  C   UNL     1      -0.410   5.780   0.778  0.00  0.00    +0.022 A 
ATOM      8  C   UNL     1      -1.315   6.520   0.037  0.00  0.00    +0.043 A 
ATOM      9  C   UNL     1      -2.232   5.881  -0.778  0.00  0.00    +0.054 A 
ATOM     10  C   UNL     1      -2.242   4.503  -0.860  0.00  0.00    +0.149 A 
ATOM     11 CL   UNL     1      -1.299   8.254   0.132  0.00  0.00    -0.083 Cl
BRANCH  10  12
ATOM     12  N   UNL     1      -3.220   3.820  -1.738  0.00  0.00    +0.058 N 
ATOM     13  O   UNL     1      -3.955   4.475  -2.456  0.00  0.00    -0.126 OA
ATOM     14  O   UNL     1      -3.288   2.604  -1.743  0.00  0.00    -0.126 OA
ENDBRANCH  10  12
ENDBRANCH   3   5
BRANCH   1  16
ATOM     15  C   UNL     1       0.960  -0.505   0.001  0.00  0.00    +0.032 C 
ATOM     16  C   UNL     1      -0.220   0.199  -0.076  0.00  0.00    +0.114 C 
BRANCH  15  22
ATOM     17  C   UNL     1       1.901  -2.741   0.545  0.00  0.00    +0.009 A 
ATOM     18  C   UNL     1       1.883  -4.112   0.417  0.00  0.00    +0.020 A 
ATOM     19  C   UNL     1       0.938  -4.725  -0.392  0.00  0.00    +0.041 A 
ATOM     20  C   UNL     1      -0.000  -3.964  -1.071  0.00  0.00    +0.020 A 
ATOM     21  C   UNL     1      -0.000  -2.592  -0.949  0.00  0.00    +0.009 A 
ATOM     22  C   UNL     1       0.952  -1.965  -0.135  0.00  0.00    -0.024 A 
ATOM     23 CL   UNL     1       0.929  -6.453  -0.552  0.00  0.00    -0.084 Cl
ENDBRANCH  15  22
BRANCH  16  24
ATOM     24  C   UNL     1      -1.469  -0.499  -0.123  0.00  0.00    +0.104 C 
ATOM     25  N   UNL     1      -2.460  -1.053  -0.161  0.00  0.00    -0.191 NA
ENDBRANCH  16  24
ENDBRANCH   1  16
TORSDOF 5
