REMARK  Name = ZINC09305991
REMARK  4 active torsions:
REMARK  status: ('A' for Active; 'I' for Inactive)
REMARK    1  A    between atoms: C_1  and  C_2
REMARK    2  A    between atoms: C_2  and  N_3
REMARK    3  A    between atoms: C_10  and  N_14
REMARK    4  A    between atoms: C_15  and  C_17
REMARK                            x       y       z     vdW  Elec       q    Type
REMARK                         _______ _______ _______ _____ _____    ______ ____
ROOT
ATOM      1  N   UNL     1       3.233  -0.261  -3.343  0.00  0.00    -0.300 N 
ATOM      2  C   UNL     1       4.563  -0.461  -3.255  0.00  0.00    +0.220 C 
ATOM      3  O   UNL     1       4.994  -1.404  -2.625  0.00  0.00    -0.275 OA
ATOM      4  H   UNL     1       2.889   0.494  -3.847  0.00  0.00    +0.150 HD
ENDROOT
BRANCH   1  12
ATOM      5  N   UNL     1       0.688  -0.476  -1.203  0.00  0.00    -0.270 N 
ATOM      6  C   UNL     1       0.044  -0.733  -2.414  0.00  0.00    +0.042 A 
ATOM      7  C   UNL     1      -1.298  -0.621  -2.775  0.00  0.00    +0.024 A 
ATOM      8  C   UNL     1      -1.700  -0.937  -4.056  0.00  0.00    +0.002 A 
ATOM      9  C   UNL     1      -0.777  -1.367  -4.992  0.00  0.00    +0.000 A 
ATOM     10  C   UNL     1       0.557  -1.481  -4.642  0.00  0.00    +0.008 A 
ATOM     11  C   UNL     1       0.961  -1.166  -3.364  0.00  0.00    +0.003 A 
ATOM     12  C   UNL     1       2.308  -1.181  -2.678  0.00  0.00    +0.192 C 
ATOM     13  C   UNL     1       2.010  -0.708  -1.271  0.00  0.00    +0.245 C 
ATOM     14  O   UNL     1       2.813  -0.565  -0.374  0.00  0.00    -0.273 OA
BRANCH   5  16
ATOM     15  C   UNL     1      -0.019   1.526   0.010  0.00  0.00    +0.025 C 
ATOM     16  C   UNL     1       0.002  -0.004   0.002  0.00  0.00    +0.110 C 
ENDBRANCH   5  16
ENDBRANCH   1  12
BRANCH   2  17
ATOM     17  C   UNL     1       5.515   0.486  -3.939  0.00  0.00    +0.048 C 
ATOM     18  C   UNL     1       5.317   1.898  -3.384  0.00  0.00    +0.019 C 
ATOM     19  C   UNL     1       6.283   2.859  -4.079  0.00  0.00    -0.009 C 
ATOM     20  C   UNL     1       7.723   2.408  -3.823  0.00  0.00    +0.007 C 
ATOM     21  C   UNL     1       7.921   0.996  -4.379  0.00  0.00    -0.009 C 
ATOM     22  C   UNL     1       6.954   0.035  -3.684  0.00  0.00    +0.019 C 
ATOM     23  C   UNL     1       7.646   0.997  -5.884  0.00  0.00    +0.007 C 
ATOM     24  C   UNL     1       6.206   1.448  -6.139  0.00  0.00    -0.009 C 
ATOM     25  C   UNL     1       6.008   2.860  -5.584  0.00  0.00    +0.007 C 
ATOM     26  C   UNL     1       5.240   0.486  -5.444  0.00  0.00    +0.019 C 
ENDBRANCH   2  17
TORSDOF 3
