REMARK  Name = ZINC61433633
REMARK  9 active torsions:
REMARK  status: ('A' for Active; 'I' for Inactive)
REMARK    1  A    between atoms: C_1  and  C_2
REMARK    2  A    between atoms: C_2  and  C_3
REMARK    3  A    between atoms: C_2  and  C_4
REMARK    4  A    between atoms: C_4  and  C_5
REMARK    5  A    between atoms: C_4  and  N_15
REMARK    6  A    between atoms: N_7  and  N_8
REMARK    7  A    between atoms: N_11  and  C_12
REMARK    8  A    between atoms: C_12  and  C_13
REMARK    9  A    between atoms: C_12  and  C_14
REMARK                            x       y       z     vdW  Elec       q    Type
REMARK                         _______ _______ _______ _____ _____    ______ ____
ROOT
ATOM      1  C   UNL     1      -1.484  -0.345  -0.169  0.00  0.00    +0.178 C 
ENDROOT
BRANCH   1   2
ATOM      2  N   UNL     1      -1.691  -1.788  -0.310  0.00  0.00    -0.318 N 
ATOM      3  C   UNL     1      -1.108  -2.600  -1.233  0.00  0.00    +0.201 A 
ATOM      4  N   UNL     1      -1.515  -3.825  -1.072  0.00  0.00    -0.236 NA
ATOM      5  C   UNL     1      -2.388  -3.883  -0.033  0.00  0.00    +0.092 A 
ATOM      6  C   UNL     1      -2.509  -2.579   0.474  0.00  0.00    +0.072 A 
ATOM      7  C   UNL     1      -3.340  -2.330   1.558  0.00  0.00    +0.069 A 
ATOM      8  C   UNL     1      -4.044  -3.367   2.135  0.00  0.00    +0.160 A 
ATOM      9  C   UNL     1      -3.926  -4.661   1.638  0.00  0.00    +0.161 A 
ATOM     10  C   UNL     1      -3.111  -4.923   0.559  0.00  0.00    +0.071 A 
ATOM     11  F   UNL     1      -4.621  -5.667   2.213  0.00  0.00    -0.202 F 
ATOM     12  F   UNL     1      -4.853  -3.124   3.190  0.00  0.00    -0.202 F 
ENDBRANCH   1   2
BRANCH   1  13
ATOM     13  C   UNL     1      -1.758   0.333  -1.486  0.00  0.00    +0.252 C 
ATOM     14  O   UNL     1      -1.962  -0.332  -2.480  0.00  0.00    -0.272 OA
ATOM     15  N   UNL     1      -1.777   1.679  -1.561  0.00  0.00    -0.231 N 
ATOM     16  H   UNL     1      -1.539   2.211  -0.786  0.00  0.00    +0.173 HD
BRANCH  15  17
ATOM     17  N   UNL     1      -2.140   2.309  -2.759  0.00  0.00    -0.218 N 
ATOM     18  C   UNL     1      -2.158   3.654  -2.833  0.00  0.00    +0.316 C 
ATOM     19  O   UNL     1      -2.473   4.201  -3.873  0.00  0.00    -0.251 OA
ATOM     20  N   UNL     1      -1.828   4.394  -1.756  0.00  0.00    -0.296 N 
ATOM     21  H   UNL     1      -2.377   1.777  -3.534  0.00  0.00    +0.174 HD
ATOM     22  H   UNL     1      -1.577   3.957  -0.927  0.00  0.00    +0.151 HD
BRANCH  20  23
ATOM     23  C   UNL     1      -1.848   5.856  -1.837  0.00  0.00    +0.068 C 
ATOM     24  C   UNL     1      -2.058   6.442  -0.440  0.00  0.00    +0.027 C 
ATOM     25  C   UNL     1      -0.517   6.354  -2.404  0.00  0.00    +0.027 C 
ENDBRANCH  20  23
ENDBRANCH  15  17
ENDBRANCH   1  13
BRANCH   1  27
ATOM     26  C   UNL     1       0.254  -0.801   1.567  0.00  0.00    +0.010 C 
ATOM     27  C   UNL     1      -0.038  -0.075   0.253  0.00  0.00    +0.015 C 
ATOM     28  C   UNL     1       0.912  -0.583  -0.833  0.00  0.00    +0.010 C 
ENDBRANCH   1  27
TORSDOF 5
