REMARK  Name = ZINC15932362
REMARK  11 active torsions:
REMARK  status: ('A' for Active; 'I' for Inactive)
REMARK    1  A    between atoms: C_1  and  C_2
REMARK    2  A    between atoms: C_6  and  N_8
REMARK    3  A    between atoms: C_11  and  C_13
REMARK    4  A    between atoms: C_14  and  C_22
REMARK    5  A    between atoms: C_16  and  C_20
REMARK    6  A    between atoms: C_17  and  N_19
REMARK    7  A    between atoms: C_25  and  O_33
REMARK    8  A    between atoms: C_26  and  O_28
REMARK    9  A    between atoms: O_28  and  C_29
REMARK   10  A    between atoms: C_29  and  C_30
REMARK   11  A    between atoms: O_33  and  C_34
REMARK                            x       y       z     vdW  Elec       q    Type
REMARK                         _______ _______ _______ _____ _____    ______ ____
ROOT
ATOM      1  N   UNL     1      -6.558  -3.597   1.261  0.00  0.00    -0.200 N 
ATOM      2  C   UNL     1      -6.635  -2.300   0.893  0.00  0.00    +0.230 A 
ATOM      3  C   UNL     1      -6.125  -1.551   1.916  0.00  0.00    +0.050 A 
ATOM      4  C   UNL     1      -5.731  -2.416   2.928  0.00  0.00    +0.068 A 
ATOM      5  N   UNL     1      -5.987  -3.644   2.543  0.00  0.00    -0.168 NA
ATOM      6  C   UNL     1      -5.114  -2.014   4.244  0.00  0.00    +0.068 C 
ATOM      7  C   UNL     1      -6.045  -0.047   1.862  0.00  0.00    +0.101 C 
ATOM      8  C   UNL     1      -6.868   0.426   0.689  0.00  0.00    +0.098 C 
ATOM      9  C   UNL     1      -7.331  -0.418  -0.259  0.00  0.00    +0.200 C 
ATOM     10  O   UNL     1      -7.113  -1.749  -0.250  0.00  0.00    -0.423 OA
ENDROOT
BRANCH   1  16
ATOM     11  C   UNL     1      -5.914  -8.274  -0.119  0.00  0.00    +0.044 C 
ATOM     12  C   UNL     1      -6.679  -6.977  -0.188  0.00  0.00    -0.048 A 
ATOM     13  C   UNL     1      -7.792  -6.873  -1.001  0.00  0.00    +0.003 A 
ATOM     14  C   UNL     1      -8.496  -5.685  -1.067  0.00  0.00    +0.002 A 
ATOM     15  C   UNL     1      -8.092  -4.599  -0.314  0.00  0.00    +0.028 A 
ATOM     16  C   UNL     1      -6.972  -4.699   0.500  0.00  0.00    +0.069 A 
ATOM     17  C   UNL     1      -6.267  -5.893   0.563  0.00  0.00    +0.031 A 
ENDBRANCH   1  16
BRANCH   7  18
ATOM     18  C   UNL     1      -4.611   0.380   1.683  0.00  0.00    -0.031 A 
ATOM     19  C   UNL     1      -3.904  -0.029   0.568  0.00  0.00    +0.008 A 
ATOM     20  C   UNL     1      -2.590   0.365   0.396  0.00  0.00    +0.050 A 
ATOM     21  C   UNL     1      -1.976   1.163   1.348  0.00  0.00    +0.162 A 
ATOM     22  C   UNL     1      -2.688   1.575   2.470  0.00  0.00    +0.163 A 
ATOM     23  C   UNL     1      -4.006   1.181   2.634  0.00  0.00    +0.054 A 
BRANCH  21  24
ATOM     24  O   UNL     1      -0.682   1.547   1.184  0.00  0.00    -0.491 OA
ATOM     25  C   UNL     1      -0.013   1.086   0.008  0.00  0.00    +0.277 C 
ENDBRANCH  21  24
BRANCH  22  26
ATOM     26  O   UNL     1      -2.091   2.362   3.405  0.00  0.00    -0.479 OA
BRANCH  26  27
ATOM     27  C   UNL     1      -2.883   2.747   4.531  0.00  0.00    +0.324 C 
BRANCH  27  28
ATOM     28  C   UNL     1      -2.061   3.611   5.452  0.00  0.00    +0.248 C 
ATOM     29  O   UNL     1      -0.910   3.871   5.172  0.00  0.00    -0.272 OA
ATOM     30  N   UNL     1      -2.604   4.093   6.587  0.00  0.00    -0.327 N 
ATOM     31  H   UNL     1      -3.525   3.885   6.811  0.00  0.00    +0.145 HD
ATOM     32  H   UNL     1      -2.075   4.649   7.180  0.00  0.00    +0.145 HD
ENDBRANCH  27  28
ENDBRANCH  26  27
ENDBRANCH  22  26
ENDBRANCH   7  18
BRANCH   9  33
ATOM     33  N   UNL     1      -8.067   0.110  -1.290  0.00  0.00    -0.328 N 
ATOM     34  H   UNL     1      -8.414  -0.471  -1.986  0.00  0.00    +0.145 HD
ATOM     35  H   UNL     1      -8.241   1.063  -1.324  0.00  0.00    +0.145 HD
ENDBRANCH   9  33
BRANCH   8  36
ATOM     36  C   UNL     1      -7.168   1.821   0.576  0.00  0.00    +0.101 C 
ATOM     37  N   UNL     1      -7.407   2.928   0.487  0.00  0.00    -0.191 NA
ENDBRANCH   8  36
TORSDOF 8
