REMARK  Name = ZINC11851387
REMARK  5 active torsions:
REMARK  status: ('A' for Active; 'I' for Inactive)
REMARK    1  A    between atoms: C_1  and  C_2
REMARK    2  A    between atoms: C_9  and  C_12
REMARK    3  A    between atoms: N_15  and  S_18
REMARK    4  A    between atoms: S_18  and  C_21
REMARK    5  A    between atoms: C_24  and  N_27
REMARK                            x       y       z     vdW  Elec       q    Type
REMARK                         _______ _______ _______ _____ _____    ______ ____
ROOT
ATOM      1  C   UNL     1       0.090  -5.501   2.410  0.00  0.00    +0.057 C 
ATOM      2  C   UNL     1       0.930  -6.535   1.657  0.00  0.00    +0.028 C 
ATOM      3  C   UNL     1       0.978  -7.835   2.465  0.00  0.00    +0.110 C 
ATOM      4  N   UNL     1      -0.397  -8.267   2.750  0.00  0.00    -0.177 NA
ATOM      5  C   UNL     1      -1.317  -7.318   3.391  0.00  0.00    +0.110 C 
ATOM      6  C   UNL     1      -1.340  -6.023   2.572  0.00  0.00    +0.028 C 
ENDROOT
BRANCH   1  15
ATOM      7  C   UNL     1      -0.018   1.503   0.010  0.00  0.00    +0.044 C 
ATOM      8  C   UNL     1       0.002  -0.004   0.002  0.00  0.00    -0.048 A 
ATOM      9  C   UNL     1       0.006  -0.684  -1.208  0.00  0.00    +0.005 A 
ATOM     10  C   UNL     1       0.024  -2.062  -1.234  0.00  0.00    +0.028 A 
ATOM     11  C   UNL     1       0.040  -2.773  -0.042  0.00  0.00    +0.066 A 
ATOM     12  C   UNL     1       0.037  -2.084   1.183  0.00  0.00    +0.089 A 
ATOM     13  C   UNL     1       0.023  -0.686   1.185  0.00  0.00    +0.033 A 
ATOM     14  N   UNL     1       0.054  -3.022   2.165  0.00  0.00    -0.232 NA
ATOM     15  C   UNL     1       0.068  -4.210   1.634  0.00  0.00    +0.111 A 
ATOM     16  N   UNL     1       0.060  -4.116   0.277  0.00  0.00    -0.342 N 
ATOM     17  H   UNL     1       0.066  -4.856  -0.350  0.00  0.00    +0.167 HD
ENDBRANCH   1  15
BRANCH   4  18
ATOM     18  S   UNL     1      -0.901  -9.794   2.354  0.00  0.00    +0.061 S 
ATOM     19  O   UNL     1      -2.314  -9.733   2.219  0.00  0.00    -0.153 OA
ATOM     20  O   UNL     1      -0.053 -10.243   1.306  0.00  0.00    -0.153 OA
BRANCH  18  21
ATOM     21  C   UNL     1      -0.573 -10.827   3.744  0.00  0.00    +0.106 A 
ATOM     22  C   UNL     1       0.646 -11.472   3.851  0.00  0.00    +0.030 A 
ATOM     23  C   UNL     1       0.906 -12.282   4.939  0.00  0.00    +0.024 A 
ATOM     24  C   UNL     1      -0.057 -12.449   5.926  0.00  0.00    +0.025 A 
ATOM     25  C   UNL     1      -1.280 -11.799   5.814  0.00  0.00    +0.024 A 
ATOM     26  C   UNL     1      -1.532 -10.986   4.727  0.00  0.00    +0.030 A 
BRANCH  24  27
ATOM     27  N   UNL     1       0.203 -13.268   7.027  0.00  0.00    -0.358 N 
ATOM     28  H   UNL     1       1.057 -13.721   7.103  0.00  0.00    +0.142 HD
ATOM     29  H   UNL     1      -0.471 -13.383   7.715  0.00  0.00    +0.142 HD
ENDBRANCH  24  27
ENDBRANCH  18  21
ENDBRANCH   4  18
TORSDOF 4
