REMARK  Name = ZINC40273563
REMARK  2 active torsions:
REMARK  status: ('A' for Active; 'I' for Inactive)
REMARK    1  A    between atoms: C_6  and  C_7
REMARK    2  A    between atoms: C_7  and  C_9
REMARK                            x       y       z     vdW  Elec       q    Type
REMARK                         _______ _______ _______ _____ _____    ______ ____
ROOT
ATOM      1  C   UNL     1       1.153  -0.432   0.405  0.00  0.00    +0.007 A 
ATOM      2  C   UNL     1       2.295   0.344   0.366  0.00  0.00    +0.030 A 
ATOM      3  C   UNL     1       2.230   1.642  -0.116  0.00  0.00    +0.087 A 
ATOM      4  C   UNL     1       1.014   2.162  -0.561  0.00  0.00    +0.157 A 
ATOM      5  C   UNL     1      -0.126   1.375  -0.518  0.00  0.00    +0.053 A 
ATOM      6  C   UNL     1      -0.054   0.082  -0.036  0.00  0.00    -0.026 A 
ATOM      7  O   UNL     1       1.245   3.433  -0.970  0.00  0.00    -0.408 OA
ATOM      8  C   UNL     1       2.545   3.722  -0.799  0.00  0.00    +0.419 A 
ATOM      9  O   UNL     1       3.069   4.785  -1.071  0.00  0.00    -0.223 OA
ATOM     10  N   UNL     1       3.178   2.652  -0.279  0.00  0.00    -0.288 N 
ATOM     11  H   UNL     1       4.121   2.594  -0.059  0.00  0.00    +0.172 HD
ENDROOT
BRANCH   6  12
ATOM     12  C   UNL     1      -1.295  -0.772   0.010  0.00  0.00    +0.114 C 
ATOM     13 CL   UNL     1      -2.431  -0.251  -1.289  0.00  0.00    -0.116 Cl
BRANCH  12  14
ATOM     14  C   UNL     1      -1.972  -0.614   1.373  0.00  0.00    +0.011 C 
ATOM     15  C   UNL     1      -3.206  -1.536   1.460  0.00  0.00    +0.005 C 
ATOM     16  C   UNL     1      -4.244  -0.707   2.257  0.00  0.00    +0.000 C 
ATOM     17  C   UNL     1      -4.015   0.730   1.727  0.00  0.00    +0.000 C 
ATOM     18  C   UNL     1      -2.486   0.826   1.543  0.00  0.00    +0.005 C 
ENDBRANCH  12  14
ENDBRANCH   6  12
TORSDOF 2
