REMARK  Name = ZINC04562483
REMARK  2 active torsions:
REMARK  status: ('A' for Active; 'I' for Inactive)
REMARK    1  A    between atoms: C_10  and  C_11
REMARK    2  A    between atoms: C_17  and  C_19
REMARK                            x       y       z     vdW  Elec       q    Type
REMARK                         _______ _______ _______ _____ _____    ______ ____
ROOT
ATOM      1  C   UNL     1      -1.522   3.905   1.872  0.00  0.00    +0.248 C 
ATOM      2  O   UNL     1      -1.641   5.075   1.559  0.00  0.00    -0.270 OA
ATOM      3  N   UNL     1      -1.568   2.947   0.925  0.00  0.00    -0.278 N 
ATOM      4  C   UNL     1      -1.318   1.542   1.236  0.00  0.00    +0.120 C 
ATOM      5  C   UNL     1      -0.665   0.815   0.023  0.00  0.00    +0.090 C 
ATOM      6  S   UNL     1      -1.617   1.639  -1.332  0.00  0.00    -0.129 S 
ATOM      7  C   UNL     1      -1.872   3.256  -0.485  0.00  0.00    +0.200 C 
ENDROOT
BRANCH   1  17
ATOM      8  C   UNL     1       1.300   5.682   5.743  0.00  0.00    +0.001 A 
ATOM      9  C   UNL     1       1.134   6.049   4.410  0.00  0.00    +0.001 A 
ATOM     10  C   UNL     1       0.283   5.364   3.596  0.00  0.00    +0.009 A 
ATOM     11  C   UNL     1      -0.435   4.273   4.103  0.00  0.00    -0.006 A 
ATOM     12  C   UNL     1      -0.268   3.898   5.458  0.00  0.00    -0.017 A 
ATOM     13  C   UNL     1       0.618   4.628   6.270  0.00  0.00    +0.008 A 
ATOM     14  C   UNL     1      -0.988   2.804   5.969  0.00  0.00    +0.008 A 
ATOM     15  C   UNL     1      -1.842   2.112   5.164  0.00  0.00    +0.001 A 
ATOM     16  C   UNL     1      -2.023   2.467   3.833  0.00  0.00    +0.014 A 
ATOM     17  C   UNL     1      -1.329   3.536   3.286  0.00  0.00    +0.045 A 
ENDBRANCH   1  17
BRANCH   7  18
ATOM     18  C   UNL     1      -3.300   3.715  -0.634  0.00  0.00    +0.135 A 
ATOM     19  C   UNL     1      -3.775   4.500  -1.617  0.00  0.00    +0.047 A 
ATOM     20  C   UNL     1      -5.155   4.678  -1.367  0.00  0.00    +0.041 A 
ATOM     21  C   UNL     1      -5.441   3.991  -0.247  0.00  0.00    +0.195 A 
ATOM     22  O   UNL     1      -4.314   3.404   0.190  0.00  0.00    -0.465 OA
ENDBRANCH   7  18
TORSDOF 2
