REMARK  Name = ZINC04922908
REMARK  5 active torsions:
REMARK  status: ('A' for Active; 'I' for Inactive)
REMARK    1  A    between atoms: C_1  and  C_2
REMARK    2  A    between atoms: C_2  and  C_3
REMARK    3  A    between atoms: C_6  and  C_9
REMARK    4  A    between atoms: N_16  and  C_23
REMARK    5  A    between atoms: C_20  and  C_21
REMARK                            x       y       z     vdW  Elec       q    Type
REMARK                         _______ _______ _______ _____ _____    ______ ____
ROOT
ATOM      1  C   UNL     1       2.741  -2.312  -4.986  0.00  0.00    +0.070 C 
ATOM      2  C   UNL     1       3.829  -1.413  -5.583  0.00  0.00    +0.110 C 
ATOM      3  C   UNL     1       4.947  -1.263  -4.588  0.00  0.00    +0.222 C 
ATOM      4  O   UNL     1       5.549  -0.213  -4.520  0.00  0.00    -0.275 OA
ATOM      5  N   UNL     1       5.289  -2.285  -3.767  0.00  0.00    -0.248 N 
ATOM      6  C   UNL     1       6.294  -2.009  -2.748  0.00  0.00    +0.222 C 
ATOM      7  N   UNL     1       6.992  -3.161  -2.218  0.00  0.00    -0.304 N 
ATOM      8  C   UNL     1       6.272  -4.375  -1.806  0.00  0.00    +0.182 C 
ATOM      9  S   UNL     1       5.385  -4.973  -3.283  0.00  0.00    -0.090 S 
ATOM     10  C   UNL     1       4.629  -3.490  -3.878  0.00  0.00    +0.087 C 
ATOM     11  C   UNL     1       3.389  -3.562  -4.447  0.00  0.00    +0.065 C 
ENDROOT
BRANCH   1  15
ATOM     12  C   UNL     1       0.751  -0.248  -1.819  0.00  0.00    -0.048 A 
ATOM     13  C   UNL     1       0.034  -0.684  -2.918  0.00  0.00    +0.004 A 
ATOM     14  C   UNL     1       0.678  -1.352  -3.943  0.00  0.00    +0.004 A 
ATOM     15  C   UNL     1       2.039  -1.583  -3.869  0.00  0.00    -0.039 A 
ATOM     16  C   UNL     1       2.756  -1.146  -2.771  0.00  0.00    +0.004 A 
ATOM     17  C   UNL     1       2.113  -0.475  -1.748  0.00  0.00    +0.004 A 
BRANCH  12  19
ATOM     18  C   UNL     1       0.056   1.983  -0.989  0.00  0.00    +0.009 C 
ATOM     19  C   UNL     1       0.049   0.480  -0.702  0.00  0.00    +0.032 C 
ENDBRANCH  12  19
ENDBRANCH   1  15
BRANCH   7  20
ATOM     20  C   UNL     1       8.383  -3.119  -2.096  0.00  0.00    +0.032 A 
ATOM     21  C   UNL     1       9.068  -1.938  -2.352  0.00  0.00    +0.023 A 
ATOM     22  C   UNL     1      10.444  -1.900  -2.230  0.00  0.00    +0.002 A 
ATOM     23  C   UNL     1      11.138  -3.035  -1.853  0.00  0.00    +0.000 A 
ATOM     24  C   UNL     1      10.458  -4.212  -1.597  0.00  0.00    +0.002 A 
ATOM     25  C   UNL     1       9.082  -4.256  -1.712  0.00  0.00    +0.023 A 
ENDBRANCH   7  20
BRANCH  11  26
ATOM     26  C   UNL     1       2.705  -4.818  -4.533  0.00  0.00    +0.098 C 
ATOM     27  N   UNL     1       2.163  -5.813  -4.602  0.00  0.00    -0.191 NA
ENDBRANCH  11  26
TORSDOF 4
