REMARK  Name = ZINC45969240
REMARK  4 active torsions:
REMARK  status: ('A' for Active; 'I' for Inactive)
REMARK    1  A    between atoms: N_12  and  C_16
REMARK    2  A    between atoms: C_16  and  C_17
REMARK    3  A    between atoms: C_17  and  O_19
REMARK    4  A    between atoms: O_19  and  C_20
REMARK                            x       y       z     vdW  Elec       q    Type
REMARK                         _______ _______ _______ _____ _____    ______ ____
ROOT
ATOM      1  C   UNL     1      -0.096   1.368   0.218  0.00  0.00    +0.000 A 
ATOM      2  C   UNL     1       1.095   2.068   0.164  0.00  0.00    +0.000 A 
ATOM      3  C   UNL     1       2.294   1.386   0.120  0.00  0.00    +0.006 A 
ATOM      4  C   UNL     1       2.312   0.001   0.132  0.00  0.00    -0.012 A 
ATOM      5  C   UNL     1       1.118  -0.700   0.188  0.00  0.00    -0.042 A 
ATOM      6  C   UNL     1      -0.083  -0.013   0.229  0.00  0.00    +0.004 A 
ATOM      7  C   UNL     1       1.397  -2.188   0.195  0.00  0.00    +0.038 C 
ATOM      8  C   UNL     1       2.857  -2.330  -0.293  0.00  0.00    +0.045 C 
ATOM      9  C   UNL     1       3.459  -0.972   0.090  0.00  0.00    +0.138 C 
ATOM     10  C   UNL     1       4.174  -1.045   1.414  0.00  0.00    +0.252 C 
ATOM     11  O   UNL     1       3.703  -1.351   2.488  0.00  0.00    -0.272 OA
ATOM     12  N   UNL     1       5.452  -0.698   1.148  0.00  0.00    -0.213 N 
ATOM     13  C   UNL     1       5.626  -0.421  -0.151  0.00  0.00    +0.310 C 
ATOM     14  O   UNL     1       6.690  -0.084  -0.634  0.00  0.00    -0.252 OA
ATOM     15  N   UNL     1       4.489  -0.557  -0.863  0.00  0.00    -0.281 N 
ATOM     16  H   UNL     1       4.377  -0.410  -1.815  0.00  0.00    +0.152 HD
ENDROOT
BRANCH  12  17
ATOM     17  C   UNL     1       6.514  -0.632   2.154  0.00  0.00    +0.238 C 
BRANCH  17  18
ATOM     18  C   UNL     1       7.197  -1.971   2.252  0.00  0.00    +0.330 C 
ATOM     19  O   UNL     1       6.834  -2.887   1.552  0.00  0.00    -0.249 OA
BRANCH  18  20
ATOM     20  O   UNL     1       8.210  -2.147   3.116  0.00  0.00    -0.425 OA
BRANCH  20  21
ATOM     21  C   UNL     1       8.729  -3.397   3.245  0.00  0.00    +0.133 A 
ATOM     22  C   UNL     1       9.590  -3.894   2.277  0.00  0.00    +0.049 A 
ATOM     23  C   UNL     1      10.118  -5.164   2.408  0.00  0.00    +0.043 A 
ATOM     24  C   UNL     1       9.788  -5.941   3.506  0.00  0.00    +0.142 A 
ATOM     25  C   UNL     1       8.928  -5.447   4.473  0.00  0.00    +0.080 A 
ATOM     26  C   UNL     1       8.404  -4.174   4.346  0.00  0.00    +0.069 A 
ATOM     27 CL   UNL     1       8.515  -6.423   5.848  0.00  0.00    -0.080 Cl
ATOM     28  F   UNL     1      10.305  -7.183   3.633  0.00  0.00    -0.204 F 
ENDBRANCH  20  21
ENDBRANCH  18  20
ENDBRANCH  17  18
ENDBRANCH  12  17
TORSDOF 4
