REMARK  Name = ZINC28466380
REMARK  6 active torsions:
REMARK  status: ('A' for Active; 'I' for Inactive)
REMARK    1  A    between atoms: C_1  and  C_2
REMARK    2  A    between atoms: C_2  and  N_3
REMARK    3  A    between atoms: C_7  and  C_20
REMARK    4  A    between atoms: C_11  and  O_19
REMARK    5  A    between atoms: C_13  and  C_17
REMARK    6  A    between atoms: C_13  and  C_18
REMARK                            x       y       z     vdW  Elec       q    Type
REMARK                         _______ _______ _______ _____ _____    ______ ____
ROOT
ATOM      1  N   UNL     1       1.340  -0.648  -2.237  0.00  0.00    -0.257 N 
ATOM      2  C   UNL     1       2.605  -0.853  -2.650  0.00  0.00    +0.305 C 
ATOM      3  O   UNL     1       3.506  -0.744  -1.841  0.00  0.00    -0.253 OA
ATOM      4  N   UNL     1       2.915  -1.173  -3.915  0.00  0.00    -0.292 N 
ATOM      5  C   UNL     1       1.889  -1.283  -4.958  0.00  0.00    +0.119 C 
ATOM      6  C   UNL     1       0.711  -0.389  -4.572  0.00  0.00    +0.130 C 
ATOM      7  C   UNL     1       0.232  -0.817  -3.174  0.00  0.00    +0.148 C 
ATOM      8  C   UNL     1      -0.987   0.022  -2.795  0.00  0.00    +0.062 C 
ATOM      9  C   UNL     1      -2.141  -0.273  -3.759  0.00  0.00    -0.024 C 
ATOM     10  C   UNL     1      -1.748   0.121  -5.185  0.00  0.00    +0.081 C 
ATOM     11  C   UNL     1      -0.435  -0.549  -5.541  0.00  0.00    +0.143 C 
ATOM     12  O   UNL     1      -0.312  -1.185  -6.559  0.00  0.00    -0.297 OA
ATOM     13  C   UNL     1      -3.374   0.527  -3.334  0.00  0.00    +0.011 C 
ATOM     14  C   UNL     1      -2.466  -1.767  -3.716  0.00  0.00    +0.011 C 
ATOM     15  H   UNL     1       3.971  -1.354  -4.162  0.00  0.00    +0.151 HD
ENDROOT
BRANCH   5  16
ATOM     16  C   UNL     1       2.457  -0.832  -6.279  0.00  0.00    -0.026 A 
ATOM     17  C   UNL     1       3.290   0.270  -6.332  0.00  0.00    +0.008 A 
ATOM     18  C   UNL     1       3.815   0.682  -7.542  0.00  0.00    +0.038 A 
ATOM     19  C   UNL     1       3.498  -0.003  -8.703  0.00  0.00    +0.123 A 
ATOM     20  C   UNL     1       2.660  -1.103  -8.649  0.00  0.00    +0.038 A 
ATOM     21  C   UNL     1       2.140  -1.517  -7.437  0.00  0.00    +0.008 A 
ATOM     22  F   UNL     1       4.008   0.402  -9.887  0.00  0.00    -0.205 F 
ENDBRANCH   5  16
BRANCH   1  24
ATOM     23  C   UNL     1       1.088   1.264  -0.733  0.00  0.00    +0.024 C 
ATOM     24  C   UNL     1       1.075  -0.262  -0.849  0.00  0.00    +0.109 C 
ENDBRANCH   1  24
BRANCH   7  25
ATOM     25  O   UNL     1      -0.155  -2.192  -3.203  0.00  0.00    -0.371 OA
ATOM     26  H   UNL     1      -0.980  -2.518  -3.855  0.00  0.00    +0.212 HD
ENDBRANCH   7  25
TORSDOF 3
