REMARK  Name = ZINC51687317
REMARK  5 active torsions:
REMARK  status: ('A' for Active; 'I' for Inactive)
REMARK    1  A    between atoms: C_1  and  C_2
REMARK    2  A    between atoms: C_8  and  C_25
REMARK    3  A    between atoms: C_8  and  C_26
REMARK    4  A    between atoms: C_10  and  N_12
REMARK    5  A    between atoms: C_19  and  C_22
REMARK                            x       y       z     vdW  Elec       q    Type
REMARK                         _______ _______ _______ _____ _____    ______ ____
ROOT
ATOM      1  N   UNL     1      -2.505  -3.298  -0.964  0.00  0.00    -0.292 N 
ATOM      2  C   UNL     1      -3.667  -2.732  -0.582  0.00  0.00    +0.303 C 
ATOM      3  O   UNL     1      -3.829  -2.397   0.575  0.00  0.00    -0.253 OA
ATOM      4  N   UNL     1      -4.650  -2.539  -1.484  0.00  0.00    -0.280 N 
ATOM      5  C   UNL     1      -4.524  -3.039  -2.862  0.00  0.00    +0.137 C 
ATOM      6  C   UNL     1      -4.843  -1.890  -3.825  0.00  0.00    +0.180 C 
ATOM      7  O   UNL     1      -6.103  -1.315  -3.471  0.00  0.00    -0.364 OA
ATOM      8  C   UNL     1      -6.135  -0.731  -2.167  0.00  0.00    +0.221 C 
ATOM      9  C   UNL     1      -5.884  -1.826  -1.117  0.00  0.00    +0.150 C 
ATOM     10  H   UNL     1      -2.402  -3.633  -1.869  0.00  0.00    +0.151 HD
ENDROOT
BRANCH   1  20
ATOM     11  C   UNL     1      -0.020   1.506  -0.001  0.00  0.00    +0.086 C 
ATOM     12  C   UNL     1       0.001  -0.001  -0.006  0.00  0.00    +0.103 A 
ATOM     13  C   UNL     1      -1.081  -0.804  -0.003  0.00  0.00    +0.050 A 
ATOM     14  C   UNL     1      -0.602  -2.126  -0.010  0.00  0.00    +0.014 A 
ATOM     15  C   UNL     1       0.745  -2.061  -0.017  0.00  0.00    +0.111 A 
ATOM     16  O   UNL     1       1.104  -0.771  -0.021  0.00  0.00    -0.464 OA
ATOM     17  C   UNL     1       1.647  -3.272  -0.022  0.00  0.00    +0.081 C 
ATOM     18  C   UNL     1       0.820  -4.493   0.397  0.00  0.00    -0.026 C 
ATOM     19  C   UNL     1      -0.465  -4.551  -0.433  0.00  0.00    +0.034 C 
ATOM     20  C   UNL     1      -1.396  -3.406  -0.013  0.00  0.00    +0.109 C 
ATOM     21  C   UNL     1       1.637  -5.766   0.163  0.00  0.00    +0.011 C 
ATOM     22  C   UNL     1       0.464  -4.383   1.881  0.00  0.00    +0.011 C 
ENDBRANCH   1  20
BRANCH   8  23
ATOM     23  C   UNL     1      -7.485  -0.105  -1.928  0.00  0.00    +0.241 C 
ATOM     24  O   UNL     1      -8.366  -0.233  -2.751  0.00  0.00    -0.273 OA
ATOM     25  N   UNL     1      -7.712   0.596  -0.799  0.00  0.00    -0.327 N 
ATOM     26  H   UNL     1      -7.007   0.697  -0.141  0.00  0.00    +0.145 HD
ATOM     27  H   UNL     1      -8.581   0.998  -0.645  0.00  0.00    +0.145 HD
ENDBRANCH   8  23
TORSDOF 2
