REMARK  Name = ZINC11825675
REMARK  6 active torsions:
REMARK  status: ('A' for Active; 'I' for Inactive)
REMARK    1  A    between atoms: C_1  and  N_2
REMARK    2  A    between atoms: C_3  and  C_5
REMARK    3  A    between atoms: C_16  and  C_18
REMARK    4  A    between atoms: C_18  and  S_19
REMARK    5  A    between atoms: S_19  and  C_20
REMARK    6  A    between atoms: N_24  and  C_25
REMARK                            x       y       z     vdW  Elec       q    Type
REMARK                         _______ _______ _______ _____ _____    ______ ____
ROOT
ATOM      1  C   UNL     1       2.052   3.900  -1.658  0.00  0.00    +0.276 C 
ATOM      2  C   UNL     1       1.008   3.477  -0.614  0.00  0.00    +0.168 C 
ATOM      3  N   UNL     1       1.020   2.005  -0.545  0.00  0.00    -0.264 N 
ATOM      4  C   UNL     1       2.269   1.361  -0.562  0.00  0.00    +0.078 A 
ATOM      5  C   UNL     1       2.365   0.021  -0.225  0.00  0.00    +0.027 A 
ATOM      6  C   UNL     1       3.595  -0.610  -0.251  0.00  0.00    +0.002 A 
ATOM      7  C   UNL     1       4.727   0.095  -0.617  0.00  0.00    +0.004 A 
ATOM      8  C   UNL     1       4.637   1.432  -0.958  0.00  0.00    +0.047 A 
ATOM      9  C   UNL     1       3.407   2.073  -0.934  0.00  0.00    +0.143 A 
ATOM     10  O   UNL     1       3.328   3.388  -1.267  0.00  0.00    -0.476 OA
ATOM     11  C   UNL     1      -0.127   1.302  -0.464  0.00  0.00    +0.230 C 
ATOM     12  O   UNL     1      -0.100   0.090  -0.515  0.00  0.00    -0.274 OA
ENDROOT
BRANCH   1  15
ATOM     13  C   UNL     1       1.102   7.564  -2.235  0.00  0.00    +0.128 C 
ATOM     14  N   UNL     1       1.043   6.101  -2.164  0.00  0.00    -0.315 N 
ATOM     15  C   UNL     1       2.112   5.404  -1.730  0.00  0.00    +0.255 C 
ATOM     16  O   UNL     1       3.122   5.988  -1.397  0.00  0.00    -0.272 OA
ATOM     17  H   UNL     1       0.235   5.635  -2.430  0.00  0.00    +0.148 HD
ENDBRANCH   1  15
BRANCH  11  18
ATOM     18  C   UNL     1      -1.443   2.021  -0.316  0.00  0.00    +0.173 C 
BRANCH  18  19
ATOM     19  S   UNL     1      -2.771   0.808  -0.079  0.00  0.00    -0.077 S 
BRANCH  19  20
ATOM     20  C   UNL     1      -4.224   1.792   0.075  0.00  0.00    +0.194 A 
ATOM     21  N   UNL     1      -4.278   3.100   0.023  0.00  0.00    -0.121 NA
ATOM     22  N   UNL     1      -5.615   3.486   0.188  0.00  0.00    -0.112 NA
ATOM     23  C   UNL     1      -6.334   2.400   0.336  0.00  0.00    +0.221 A 
ATOM     24  N   UNL     1      -5.495   1.325   0.266  0.00  0.00    -0.287 N 
ATOM     25  N   UNL     1      -7.709   2.352   0.526  0.00  0.00    -0.300 N 
ATOM     26  C   UNL     1      -8.043   1.751   1.843  0.00  0.00    +0.108 C 
ATOM     27  C   UNL     1      -9.487   2.249   2.103  0.00  0.00    +0.020 C 
ATOM     28  C   UNL     1      -9.464   3.688   1.541  0.00  0.00    +0.020 C 
ATOM     29  C   UNL     1      -8.290   3.712   0.544  0.00  0.00    +0.108 C 
BRANCH  24  30
ATOM     30  C   UNL     1      -5.887  -0.083   0.376  0.00  0.00    +0.093 C 
ATOM     31  C   UNL     1      -4.789  -1.099   0.697  0.00  0.00    +0.027 C 
ATOM     32  C   UNL     1      -5.393  -1.041  -0.708  0.00  0.00    +0.027 C 
ENDBRANCH  24  30
ENDBRANCH  19  20
ENDBRANCH  18  19
ENDBRANCH  11  18
TORSDOF 5
