REMARK  Name = ZINC02487755
REMARK  4 active torsions:
REMARK  status: ('A' for Active; 'I' for Inactive)
REMARK    1  A    between atoms: C_1  and  O_2
REMARK    2  A    between atoms: O_2  and  C_3
REMARK    3  A    between atoms: C_3  and  C_16
REMARK    4  A    between atoms: N_6  and  C_10
REMARK                            x       y       z     vdW  Elec       q    Type
REMARK                         _______ _______ _______ _____ _____    ______ ____
ROOT
ATOM      1  C   UNL     1       1.285   2.015   0.019  0.00  0.00    +0.313 C 
ATOM      2  C   UNL     1       1.226   3.510   0.264  0.00  0.00    +0.288 C 
ATOM      3  O   UNL     1       0.662   4.342  -0.414  0.00  0.00    -0.269 OA
ATOM      4  N   UNL     1       1.932   3.722   1.393  0.00  0.00    -0.190 N 
ATOM      5  C   UNL     1       2.424   2.581   1.889  0.00  0.00    +0.316 C 
ATOM      6  O   UNL     1       3.094   2.517   2.901  0.00  0.00    -0.252 OA
ATOM      7  N   UNL     1       2.093   1.511   1.143  0.00  0.00    -0.256 N 
ATOM      8  H   UNL     1       2.338   0.588   1.312  0.00  0.00    +0.154 HD
ENDROOT
BRANCH   4   9
ATOM      9  C   UNL     1       2.128   4.982   1.974  0.00  0.00    +0.046 A 
ATOM     10  C   UNL     1       1.691   6.126   1.319  0.00  0.00    +0.024 A 
ATOM     11  C   UNL     1       1.882   7.366   1.896  0.00  0.00    +0.002 A 
ATOM     12  C   UNL     1       2.516   7.470   3.121  0.00  0.00    +0.000 A 
ATOM     13  C   UNL     1       2.957   6.334   3.773  0.00  0.00    +0.002 A 
ATOM     14  C   UNL     1       2.765   5.090   3.203  0.00  0.00    +0.024 A 
ENDBRANCH   4   9
BRANCH   1  15
ATOM     15  C   UNL     1       1.968   1.715  -1.317  0.00  0.00    +0.445 C 
ATOM     16  F   UNL     1       1.270   2.348  -2.350  0.00  0.00    -0.166 F 
ATOM     17  F   UNL     1       3.284   2.190  -1.284  0.00  0.00    -0.166 F 
ATOM     18  F   UNL     1       1.976   0.334  -1.537  0.00  0.00    -0.166 F 
ENDBRANCH   1  15
BRANCH   1  20
ATOM     19  C   UNL     1      -0.706   1.622   1.294  0.00  0.00    +0.197 C 
ATOM     20  O   UNL     1      -0.027   1.449   0.049  0.00  0.00    -0.345 OA
ENDBRANCH   1  20
TORSDOF 3
