REMARK  Name = ZINC46772247
REMARK  12 active torsions:
REMARK  status: ('A' for Active; 'I' for Inactive)
REMARK    1  A    between atoms: C_1  and  C_2
REMARK    2  A    between atoms: C_7  and  N_8
REMARK    3  A    between atoms: N_8  and  C_9
REMARK    4  A    between atoms: C_9  and  N_11
REMARK    5  A    between atoms: N_11  and  N_12
REMARK    6  A    between atoms: C_13  and  C_15
REMARK    7  A    between atoms: C_19  and  S_21
REMARK    8  A    between atoms: S_21  and  N_24
REMARK    9  A    between atoms: N_24  and  C_25
REMARK   10  A    between atoms: C_25  and  C_26
REMARK   11  A    between atoms: C_25  and  C_27
REMARK   12  A    between atoms: C_25  and  C_28
REMARK                            x       y       z     vdW  Elec       q    Type
REMARK                         _______ _______ _______ _____ _____    ______ ____
ROOT
ATOM      1  N   UNL     1      -0.247   1.306   5.075  0.00  0.00    -0.231 N 
ATOM      2  C   UNL     1      -0.322   2.031   6.208  0.00  0.00    +0.260 C 
ATOM      3  O   UNL     1      -0.361   1.470   7.287  0.00  0.00    -0.269 OA
ATOM      4  H   UNL     1      -0.215   1.753   4.214  0.00  0.00    +0.173 HD
ENDROOT
BRANCH   2   5
ATOM      5  C   UNL     1      -0.356   3.506   6.141  0.00  0.00    +0.040 A 
ATOM      6  C   UNL     1      -0.316   4.152   4.904  0.00  0.00    +0.016 A 
ATOM      7  C   UNL     1      -0.348   5.529   4.846  0.00  0.00    +0.041 A 
ATOM      8  C   UNL     1      -0.418   6.272   6.015  0.00  0.00    +0.150 A 
ATOM      9  C   UNL     1      -0.458   5.636   7.246  0.00  0.00    +0.141 A 
ATOM     10  C   UNL     1      -0.433   4.259   7.314  0.00  0.00    +0.044 A 
ATOM     11  F   UNL     1      -0.449   7.622   5.954  0.00  0.00    -0.203 F 
BRANCH   9  12
ATOM     12  S   UNL     1      -0.547   6.588   8.726  0.00  0.00    +0.062 S 
ATOM     13  O   UNL     1      -1.607   7.518   8.547  0.00  0.00    -0.153 OA
ATOM     14  O   UNL     1      -0.518   5.665   9.806  0.00  0.00    -0.153 OA
BRANCH  12  15
ATOM     15  N   UNL     1       0.849   7.474   8.823  0.00  0.00    -0.185 NA
ATOM     16  H   UNL     1       0.815   8.441   8.754  0.00  0.00    +0.149 HD
BRANCH  15  17
ATOM     17  C   UNL     1       2.134   6.797   9.013  0.00  0.00    +0.032 C 
ATOM     18  C   UNL     1       2.438   5.928   7.791  0.00  0.00    +0.029 C 
ATOM     19  C   UNL     1       3.240   7.841   9.184  0.00  0.00    +0.029 C 
ATOM     20  C   UNL     1       2.067   5.916  10.261  0.00  0.00    +0.029 C 
ENDBRANCH  15  17
ENDBRANCH  12  15
ENDBRANCH   9  12
ENDBRANCH   2   5
BRANCH   1  21
ATOM     21  N   UNL     1      -0.215  -0.093   5.138  0.00  0.00    -0.245 N 
ATOM     22  H   UNL     1      -0.247  -0.540   5.999  0.00  0.00    +0.172 HD
BRANCH  21  23
ATOM     23  C   UNL     1      -0.140  -0.818   4.005  0.00  0.00    +0.151 C 
ATOM     24  S   UNL     1      -0.101  -2.528   4.083  0.00  0.00    -0.017 S 
BRANCH  23  25
ATOM     25  N   UNL     1      -0.096  -0.197   2.809  0.00  0.00    -0.296 N 
ATOM     26  H   UNL     1      -0.053   0.771   2.767  0.00  0.00    +0.154 HD
BRANCH  25  33
ATOM     27  C   UNL     1      -1.873   0.600   0.735  0.00  0.00    +0.045 C 
ATOM     28  C   UNL     1      -0.965  -0.594   0.592  0.00  0.00    -0.029 A 
ATOM     29  C   UNL     1      -0.975  -1.335  -0.575  0.00  0.00    +0.005 A 
ATOM     30  C   UNL     1      -0.142  -2.430  -0.707  0.00  0.00    +0.000 A 
ATOM     31  C   UNL     1       0.703  -2.789   0.327  0.00  0.00    +0.002 A 
ATOM     32  C   UNL     1       0.718  -2.053   1.496  0.00  0.00    +0.023 A 
ATOM     33  C   UNL     1      -0.113  -0.948   1.629  0.00  0.00    +0.036 A 
ENDBRANCH  25  33
ENDBRANCH  23  25
ENDBRANCH  21  23
ENDBRANCH   1  21
TORSDOF 8
