REMARK  Name = ZINC41661644
REMARK  6 active torsions:
REMARK  status: ('A' for Active; 'I' for Inactive)
REMARK    1  A    between atoms: C_1  and  O_2
REMARK    2  A    between atoms: O_2  and  C_3
REMARK    3  A    between atoms: C_3  and  C_4
REMARK    4  A    between atoms: C_4  and  C_5
REMARK    5  A    between atoms: C_5  and  N_6
REMARK    6  A    between atoms: C_16  and  C_17
REMARK                            x       y       z     vdW  Elec       q    Type
REMARK                         _______ _______ _______ _____ _____    ______ ____
ROOT
ATOM      1  N   UNL     1       0.024  -4.458  -2.284  0.00  0.00    -0.266 NA
ATOM      2  C   UNL     1       0.746  -4.992  -3.447  0.00  0.00    +0.130 C 
ATOM      3  C   UNL     1       0.947  -6.477  -3.279  0.00  0.00    +0.051 A 
ATOM      4  C   UNL     1       0.812  -7.076  -2.038  0.00  0.00    +0.130 A 
ATOM      5  C   UNL     1       1.004  -8.450  -1.894  0.00  0.00    +0.047 A 
ATOM      6  C   UNL     1       1.324  -9.219  -2.976  0.00  0.00    +0.019 A 
ATOM      7  C   UNL     1       1.461  -8.627  -4.232  0.00  0.00    +0.068 A 
ATOM      8  C   UNL     1       1.273  -7.245  -4.391  0.00  0.00    +0.147 A 
ATOM      9  O   UNL     1       1.456  -6.907  -5.686  0.00  0.00    -0.451 OA
ATOM     10  C   UNL     1       1.766  -7.982  -6.448  0.00  0.00    +0.176 C 
ATOM     11  C   UNL     1       2.010  -7.974  -7.784  0.00  0.00    +0.061 C 
ATOM     12  C   UNL     1       1.790  -9.159  -5.568  0.00  0.00    +0.231 C 
ATOM     13  O   UNL     1       2.027 -10.314  -5.873  0.00  0.00    -0.283 OA
ATOM     14  O   UNL     1       0.488  -6.339  -0.943  0.00  0.00    -0.476 OA
ATOM     15  C   UNL     1       0.655  -4.923  -1.038  0.00  0.00    +0.318 C 
ENDROOT
BRANCH  11  16
ATOM     16  C   UNL     1       1.796  -6.749  -8.562  0.00  0.00    +0.022 A 
ATOM     17  C   UNL     1       1.691  -5.512  -7.913  0.00  0.00    +0.031 A 
ATOM     18  C   UNL     1       1.488  -4.366  -8.652  0.00  0.00    +0.042 A 
ATOM     19  C   UNL     1       1.387  -4.433 -10.033  0.00  0.00    +0.029 A 
ATOM     20  C   UNL     1       1.489  -5.647 -10.687  0.00  0.00    +0.022 A 
ATOM     21  C   UNL     1       1.702  -6.808  -9.963  0.00  0.00    +0.136 A 
ATOM     22  O   UNL     1       1.820  -8.005 -10.593  0.00  0.00    -0.465 OA
ATOM     23  C   UNL     1       1.365  -8.070 -11.948  0.00  0.00    +0.395 C 
ATOM     24  O   UNL     1       1.893  -6.946 -12.662  0.00  0.00    -0.339 OA
ATOM     25  C   UNL     1       1.371  -5.696 -12.189  0.00  0.00    +0.202 C 
ATOM     26 CL   UNL     1       1.359  -2.833  -7.849  0.00  0.00    -0.084 Cl
ENDBRANCH  11  16
BRANCH   1  27
ATOM     27  C   UNL     1      -0.035  -2.991  -2.329  0.00  0.00    +0.090 C 
BRANCH  27  28
ATOM     28  C   UNL     1      -0.976  -2.485  -1.233  0.00  0.00    +0.043 C 
BRANCH  28  29
ATOM     29  C   UNL     1      -1.037  -0.957  -1.280  0.00  0.00    +0.160 C 
BRANCH  29  31
ATOM     30  C   UNL     1      -2.045   0.939  -0.214  0.00  0.00    +0.193 C 
ATOM     31  O   UNL     1      -1.916  -0.484  -0.257  0.00  0.00    -0.383 OA
ENDBRANCH  29  31
ENDBRANCH  28  29
ENDBRANCH  27  28
ENDBRANCH   1  27
TORSDOF 5
