REMARK  Name = ZINC05056774
REMARK  3 active torsions:
REMARK  status: ('A' for Active; 'I' for Inactive)
REMARK    1  A    between atoms: C_3  and  C_7
REMARK    2  A    between atoms: C_7  and  N_8
REMARK    3  A    between atoms: N_17  and  C_18
REMARK                            x       y       z     vdW  Elec       q    Type
REMARK                         _______ _______ _______ _____ _____    ______ ____
ROOT
ATOM      1  N   UNL     1       1.113   2.049   0.002  0.00  0.00    -0.293 N 
ATOM      2  C   UNL     1      -0.016   1.297   0.009  0.00  0.00    +0.204 A 
ATOM      3  N   UNL     1       0.002  -0.004   0.002  0.00  0.00    -0.216 NA
ATOM      4  C   UNL     1       1.150  -0.696  -0.013  0.00  0.00    +0.190 A 
ATOM      5  C   UNL     1       2.370  -0.009  -0.021  0.00  0.00    +0.196 A 
ATOM      6  C   UNL     1       2.329   1.456  -0.012  0.00  0.00    +0.284 A 
ATOM      7  O   UNL     1       3.354   2.116  -0.019  0.00  0.00    -0.265 OA
ATOM      8  N   UNL     1       3.358  -0.914  -0.035  0.00  0.00    -0.122 NA
ATOM      9  N   UNL     1       2.866  -2.104  -0.037  0.00  0.00    -0.058 NA
ATOM     10  N   UNL     1       1.465  -2.024  -0.023  0.00  0.00    -0.194 N 
ENDROOT
BRANCH  10  11
ATOM     11  C   UNL     1       0.565  -3.099  -0.020  0.00  0.00    +0.069 A 
ATOM     12  C   UNL     1      -0.628  -3.005   0.685  0.00  0.00    +0.029 A 
ATOM     13  C   UNL     1      -1.516  -4.063   0.682  0.00  0.00    +0.022 A 
ATOM     14  C   UNL     1      -1.213  -5.219  -0.016  0.00  0.00    +0.041 A 
ATOM     15  C   UNL     1      -0.023  -5.317  -0.715  0.00  0.00    +0.022 A 
ATOM     16  C   UNL     1       0.866  -4.260  -0.719  0.00  0.00    +0.029 A 
ATOM     17 CL   UNL     1      -2.328  -6.550  -0.013  0.00  0.00    -0.084 Cl
ENDBRANCH  10  11
BRANCH   1  18
ATOM     18  C   UNL     1       1.016   3.511   0.011  0.00  0.00    +0.163 C 
BRANCH  18  21
ATOM     19  C   UNL     1       2.112   4.765   3.397  0.00  0.00    +0.020 A 
ATOM     20  C   UNL     1       2.179   4.314   2.087  0.00  0.00    +0.008 A 
ATOM     21  C   UNL     1       0.996   4.004   1.435  0.00  0.00    -0.010 A 
ATOM     22  C   UNL     1      -0.203   4.159   2.105  0.00  0.00    +0.116 A 
ATOM     23  N   UNL     1      -0.228   4.586   3.353  0.00  0.00    -0.263 NA
ATOM     24  C   UNL     1       0.877   4.890   4.004  0.00  0.00    +0.111 A 
ENDBRANCH  18  21
ENDBRANCH   1  18
TORSDOF 3
