REMARK  Name = ZINC04648559
REMARK  3 active torsions:
REMARK  status: ('A' for Active; 'I' for Inactive)
REMARK    1  A    between atoms: C_1  and  C_2
REMARK    2  A    between atoms: C_2  and  C_4
REMARK    3  A    between atoms: C_2  and  N_10
REMARK                            x       y       z     vdW  Elec       q    Type
REMARK                         _______ _______ _______ _____ _____    ______ ____
ROOT
ATOM      1  N   UNL     1       0.688  -0.476  -1.203  0.00  0.00    -0.275 NA
ATOM      2  C   UNL     1       1.800  -1.122  -1.101  0.00  0.00    +0.109 C 
ATOM      3  C   UNL     1       2.607  -1.529  -2.322  0.00  0.00    +0.203 C 
ATOM      4  C   UNL     1       4.031  -1.070  -2.099  0.00  0.00    +0.187 C 
ATOM      5  O   UNL     1       4.662  -0.572  -3.006  0.00  0.00    -0.290 OA
ATOM      6  C   UNL     1       4.646  -1.231  -0.769  0.00  0.00    +0.030 A 
ATOM      7  C   UNL     1       6.032  -1.184  -0.628  0.00  0.00    +0.012 A 
ATOM      8  C   UNL     1       6.603  -1.324   0.623  0.00  0.00    +0.001 A 
ATOM      9  C   UNL     1       5.810  -1.511   1.742  0.00  0.00    +0.001 A 
ATOM     10  C   UNL     1       4.433  -1.566   1.624  0.00  0.00    +0.012 A 
ATOM     11  C   UNL     1       3.841  -1.433   0.372  0.00  0.00    +0.034 A 
ATOM     12  C   UNL     1       2.372  -1.508   0.225  0.00  0.00    +0.209 C 
ATOM     13  O   UNL     1       1.663  -1.870   1.142  0.00  0.00    -0.285 OA
ATOM     14 CL   UNL     1       2.565  -3.321  -2.515  0.00  0.00    -0.106 Cl
ENDROOT
BRANCH   1  16
ATOM     15  C   UNL     1      -0.253   1.524  -0.158  0.00  0.00    +0.038 C 
ATOM     16  C   UNL     1       0.020   0.027  -0.000  0.00  0.00    +0.133 C 
BRANCH  16  17
ATOM     17  C   UNL     1      -1.283  -0.704   0.194  0.00  0.00    -0.023 A 
ATOM     18  C   UNL     1      -2.077  -1.004  -0.897  0.00  0.00    +0.006 A 
ATOM     19  C   UNL     1      -3.272  -1.674  -0.719  0.00  0.00    +0.000 A 
ATOM     20  C   UNL     1      -3.674  -2.045   0.551  0.00  0.00    +0.000 A 
ATOM     21  C   UNL     1      -2.880  -1.746   1.642  0.00  0.00    +0.000 A 
ATOM     22  C   UNL     1      -1.682  -1.079   1.463  0.00  0.00    +0.006 A 
ENDBRANCH  16  17
ENDBRANCH   1  16
TORSDOF 2
