REMARK  Name = ZINC03074661
REMARK  6 active torsions:
REMARK  status: ('A' for Active; 'I' for Inactive)
REMARK    1  A    between atoms: C_1  and  C_2
REMARK    2  A    between atoms: C_3  and  C_20
REMARK    3  A    between atoms: C_4  and  O_19
REMARK    4  A    between atoms: C_7  and  N_8
REMARK    5  A    between atoms: N_8  and  S_9
REMARK    6  A    between atoms: S_9  and  C_12
REMARK                            x       y       z     vdW  Elec       q    Type
REMARK                         _______ _______ _______ _____ _____    ______ ____
ROOT
ATOM      1  N   UNL     1       0.077   2.490   4.718  0.00  0.00    -0.216 N 
ATOM      2  H   UNL     1       0.955   2.900   4.659  0.00  0.00    +0.174 HD
ENDROOT
BRANCH   1   9
ATOM      3  C   UNL     1       1.651   1.410   2.610  0.00  0.00    +0.046 C 
ATOM      4  C   UNL     1       0.153   1.532   2.503  0.00  0.00    -0.022 A 
ATOM      5  C   UNL     1      -0.494   1.113   1.357  0.00  0.00    -0.004 A 
ATOM      6  C   UNL     1      -1.872   1.231   1.256  0.00  0.00    +0.120 A 
ATOM      7  C   UNL     1      -2.603   1.760   2.310  0.00  0.00    +0.047 A 
ATOM      8  C   UNL     1      -1.958   2.179   3.457  0.00  0.00    +0.028 A 
ATOM      9  C   UNL     1      -0.577   2.066   3.557  0.00  0.00    +0.051 A 
ATOM     10  C   UNL     1       0.298   0.534   0.213  0.00  0.00    +0.048 C 
BRANCH   6  11
ATOM     11  O   UNL     1      -2.508   0.823   0.125  0.00  0.00    -0.506 OA
ATOM     12  H   UNL     1      -2.786  -0.103   0.142  0.00  0.00    +0.292 HD
ENDBRANCH   6  11
ENDBRANCH   1   9
BRANCH   1  13
ATOM     13  S   UNL     1      -0.645   2.292   6.195  0.00  0.00    +0.072 S 
ATOM     14  O   UNL     1       0.308   2.690   7.171  0.00  0.00    -0.150 OA
ATOM     15  O   UNL     1      -1.932   2.888   6.100  0.00  0.00    -0.150 OA
BRANCH  13  16
ATOM     16  C   UNL     1      -0.906   0.565   6.421  0.00  0.00    +0.109 A 
ATOM     17  C   UNL     1      -2.087  -0.017   6.000  0.00  0.00    +0.030 A 
ATOM     18  C   UNL     1      -2.290  -1.373   6.173  0.00  0.00    +0.017 A 
ATOM     19  C   UNL     1      -1.314  -2.147   6.776  0.00  0.00    +0.018 A 
ATOM     20  C   UNL     1      -0.135  -1.564   7.202  0.00  0.00    +0.017 A 
ATOM     21  C   UNL     1       0.069  -0.208   7.024  0.00  0.00    +0.030 A 
ATOM     22 BR   UNL     1      -1.594  -4.002   7.018  0.00  0.00    -0.050 Br
ENDBRANCH  13  16
ENDBRANCH   1  13
TORSDOF 4
