REMARK  Name = ZINC63136863
REMARK  5 active torsions:
REMARK  status: ('A' for Active; 'I' for Inactive)
REMARK    1  A    between atoms: C_1  and  C_2
REMARK    2  A    between atoms: C_2  and  C_3
REMARK    3  A    between atoms: C_3  and  C_4
REMARK    4  A    between atoms: C_4  and  N_5
REMARK    5  A    between atoms: C_25  and  C_27
REMARK                            x       y       z     vdW  Elec       q    Type
REMARK                         _______ _______ _______ _____ _____    ______ ____
ROOT
ATOM      1  N   UNL     1       1.466  -2.553   2.411  0.00  0.00    -0.291 N 
ATOM      2  C   UNL     1       2.903  -2.755   2.319  0.00  0.00    +0.203 C 
ATOM      3  C   UNL     1       3.486  -3.253   3.600  0.00  0.00    +0.234 C 
ATOM      4  O   UNL     1       4.681  -3.457   3.632  0.00  0.00    -0.274 OA
ATOM      5  N   UNL     1       2.785  -3.489   4.715  0.00  0.00    -0.279 N 
ATOM      6  C   UNL     1       1.346  -3.264   4.803  0.00  0.00    +0.167 C 
ATOM      7  C   UNL     1       0.761  -2.772   3.520  0.00  0.00    +0.237 C 
ATOM      8  O   UNL     1      -0.433  -2.563   3.484  0.00  0.00    -0.274 OA
ATOM      9  C   UNL     1       1.040  -2.256   5.926  0.00  0.00    +0.065 C 
ATOM     10  C   UNL     1       1.853  -2.686   7.122  0.00  0.00    -0.034 C 
ATOM     11  C   UNL     1       1.512  -2.905   8.386  0.00  0.00    -0.001 A 
ATOM     12  C   UNL     1       0.245  -2.704   9.108  0.00  0.00    +0.010 A 
ATOM     13  C   UNL     1       0.240  -3.062  10.419  0.00  0.00    +0.001 A 
ATOM     14  C   UNL     1       1.354  -3.594  11.077  0.00  0.00    +0.002 A 
ATOM     15  C   UNL     1       2.561  -3.803  10.493  0.00  0.00    +0.026 A 
ATOM     16  C   UNL     1       2.693  -3.458   9.117  0.00  0.00    +0.043 A 
ATOM     17  N   UNL     1       3.724  -3.530   8.327  0.00  0.00    -0.375 N 
ATOM     18  C   UNL     1       3.346  -2.980   7.024  0.00  0.00    +0.131 C 
ATOM     19  C   UNL     1       3.516  -4.001   5.896  0.00  0.00    +0.133 C 
ATOM     20  H   UNL     1       4.594  -3.887   8.561  0.00  0.00    +0.160 HD
ENDROOT
BRANCH  19  21
ATOM     21  C   UNL     1       4.978  -4.157   5.564  0.00  0.00    -0.025 A 
ATOM     22  C   UNL     1       5.833  -3.078   5.688  0.00  0.00    +0.006 A 
ATOM     23  C   UNL     1       7.174  -3.221   5.384  0.00  0.00    +0.015 A 
ATOM     24  C   UNL     1       7.660  -4.443   4.955  0.00  0.00    +0.018 A 
ATOM     25  C   UNL     1       6.803  -5.522   4.831  0.00  0.00    +0.015 A 
ATOM     26  C   UNL     1       5.464  -5.380   5.140  0.00  0.00    +0.006 A 
ATOM     27 BR   UNL     1       9.494  -4.638   4.539  0.00  0.00    -0.050 Br
ENDBRANCH  19  21
BRANCH   1  28
ATOM     28  C   UNL     1       0.756  -2.078   1.222  0.00  0.00    +0.108 C 
BRANCH  28  29
ATOM     29  C   UNL     1       0.733  -0.548   1.220  0.00  0.00    +0.019 C 
BRANCH  29  31
ATOM     30  C   UNL     1      -0.032   1.479  -0.025  0.00  0.00    +0.004 C 
ATOM     31  C   UNL     1      -0.009  -0.051  -0.023  0.00  0.00    -0.002 C 
ENDBRANCH  29  31
ENDBRANCH  28  29
ENDBRANCH   1  28
TORSDOF 4
