REMARK  Name = ZINC66977431
REMARK  8 active torsions:
REMARK  status: ('A' for Active; 'I' for Inactive)
REMARK    1  A    between atoms: C_1  and  C_2
REMARK    2  A    between atoms: C_2  and  N_3
REMARK    3  A    between atoms: C_7  and  N_10
REMARK    4  A    between atoms: C_16  and  N_19
REMARK    5  A    between atoms: N_19  and  C_20
REMARK    6  A    between atoms: N_19  and  S_22
REMARK    7  A    between atoms: C_20  and  C_21
REMARK    8  A    between atoms: S_22  and  C_25
REMARK                            x       y       z     vdW  Elec       q    Type
REMARK                         _______ _______ _______ _____ _____    ______ ____
ROOT
ATOM      1  N   UNL     1       1.208  -3.713  -4.218  0.00  0.00    -0.298 N 
ATOM      2  C   UNL     1       1.067  -4.559  -3.178  0.00  0.00    +0.302 C 
ATOM      3  O   UNL     1       1.073  -4.129  -2.040  0.00  0.00    -0.253 OA
ATOM      4  N   UNL     1       0.919  -5.880  -3.399  0.00  0.00    -0.286 N 
ATOM      5  C   UNL     1       0.649  -6.799  -2.285  0.00  0.00    +0.111 C 
ATOM      6  C   UNL     1      -0.605  -7.616  -2.613  0.00  0.00    +0.039 C 
ATOM      7  C   UNL     1      -0.420  -8.306  -3.967  0.00  0.00    +0.082 C 
ATOM      8  C   UNL     1      -0.233  -7.249  -5.058  0.00  0.00    +0.039 C 
ATOM      9  C   UNL     1       1.019  -6.428  -4.758  0.00  0.00    +0.111 C 
ATOM     10  H   UNL     1       1.276  -4.062  -5.121  0.00  0.00    +0.150 HD
ENDROOT
BRANCH   1  15
ATOM     11  N   UNL     1       2.060  -0.142  -4.903  0.00  0.00    +0.381 N 
ATOM     12  C   UNL     1       0.700   0.410  -4.907  0.00  0.00    -0.079 C 
ATOM     13  C   UNL     1      -0.102  -0.190  -3.750  0.00  0.00    -0.017 C 
ATOM     14  C   UNL     1      -0.166  -1.711  -3.916  0.00  0.00    +0.018 C 
ATOM     15  C   UNL     1       1.259  -2.268  -3.985  0.00  0.00    +0.058 C 
ATOM     16  C   UNL     1       2.010  -1.591  -5.134  0.00  0.00    -0.056 C 
ATOM     17  H   UNL     1       2.492   0.041  -4.010  0.00  0.00    -0.082 HD
BRANCH  11  19
ATOM     18  C   UNL     1       3.007   1.986  -5.662  0.00  0.00    -0.017 C 
ATOM     19  C   UNL     1       2.849   0.495  -5.967  0.00  0.00    -0.082 C 
ENDBRANCH  11  19
ENDBRANCH   1  15
BRANCH   7  20
ATOM     20  N   UNL     1      -1.605  -9.114  -4.268  0.00  0.00    -0.179 NA
BRANCH  20  21
ATOM     21  S   UNL     1      -1.480 -10.762  -4.360  0.00  0.00    +0.029 S 
ATOM     22  O   UNL     1      -2.537 -11.159  -5.223  0.00  0.00    -0.158 OA
ATOM     23  O   UNL     1      -0.126 -11.005  -4.715  0.00  0.00    -0.158 OA
ATOM     24  C   UNL     1      -1.798 -11.348  -2.673  0.00  0.00    +0.215 C 
ENDBRANCH  20  21
BRANCH  20  25
ATOM     25  C   UNL     1      -2.899  -8.463  -4.489  0.00  0.00    +0.106 C 
ATOM     26  C   UNL     1      -3.027  -8.069  -5.962  0.00  0.00    +0.022 C 
ENDBRANCH  20  25
ENDBRANCH   7  20
TORSDOF 5
