REMARK  Name = ZINC49209168
REMARK  4 active torsions:
REMARK  status: ('A' for Active; 'I' for Inactive)
REMARK    1  A    between atoms: C_1  and  N_2
REMARK    2  A    between atoms: N_5  and  C_6
REMARK    3  A    between atoms: C_9  and  C_16
REMARK    4  A    between atoms: C_11  and  C_12
REMARK                            x       y       z     vdW  Elec       q    Type
REMARK                         _______ _______ _______ _____ _____    ______ ____
ROOT
ATOM      1  C   UNL     1      -2.358  -2.710   0.102  0.00  0.00    +0.046 A 
ATOM      2  C   UNL     1      -3.547  -1.988   0.103  0.00  0.00    +0.025 A 
ATOM      3  C   UNL     1      -4.753  -2.644   0.202  0.00  0.00    +0.021 A 
ATOM      4  C   UNL     1      -4.783  -4.038   0.300  0.00  0.00    +0.052 A 
ATOM      5  C   UNL     1      -3.586  -4.761   0.298  0.00  0.00    +0.033 A 
ATOM      6  C   UNL     1      -2.384  -4.098   0.195  0.00  0.00    +0.077 A 
ENDROOT
BRANCH   1  11
ATOM      7  C   UNL     1       0.137   1.189  -1.205  0.00  0.00    +0.129 C 
ATOM      8  N   UNL     1       0.074  -0.131  -0.575  0.00  0.00    -0.302 N 
ATOM      9  C   UNL     1      -1.080  -0.826  -0.578  0.00  0.00    +0.304 C 
ATOM     10  O   UNL     1      -2.071  -0.357  -1.105  0.00  0.00    -0.253 OA
ATOM     11  N   UNL     1      -1.137  -2.041   0.002  0.00  0.00    -0.269 N 
ATOM     12  H   UNL     1       0.864  -0.506  -0.154  0.00  0.00    +0.150 HD
ATOM     13  H   UNL     1      -0.330  -2.451   0.350  0.00  0.00    +0.156 HD
ENDBRANCH   1  11
BRANCH   6  14
ATOM     14  C   UNL     1      -1.093  -4.876   0.187  0.00  0.00    +0.419 C 
ATOM     15  F   UNL     1      -1.373  -6.243   0.290  0.00  0.00    -0.166 F 
ATOM     16  F   UNL     1      -0.407  -4.629  -1.006  0.00  0.00    -0.166 F 
ATOM     17  F   UNL     1      -0.303  -4.479   1.271  0.00  0.00    -0.166 F 
ENDBRANCH   6  14
BRANCH   4  18
ATOM     18  C   UNL     1      -6.035  -4.724   0.403  0.00  0.00    +0.099 C 
ATOM     19  N   UNL     1      -7.029  -5.268   0.485  0.00  0.00    -0.191 NA
ENDBRANCH   4  18
TORSDOF 3
