REMARK  Name = ZINC44023202
REMARK  2 active torsions:
REMARK  status: ('A' for Active; 'I' for Inactive)
REMARK    1  A    between atoms: C_2  and  N_15
REMARK    2  A    between atoms: N_6  and  C_9
REMARK                            x       y       z     vdW  Elec       q    Type
REMARK                         _______ _______ _______ _____ _____    ______ ____
ROOT
ATOM      1  C   UNL     1      -0.011   1.400  -0.124  0.00  0.00    +0.112 A 
ATOM      2  C   UNL     1       1.169   2.080   0.002  0.00  0.00    +0.108 A 
ATOM      3  N   UNL     1       2.343   1.377   0.121  0.00  0.00    -0.296 N 
ATOM      4  C   UNL     1       2.334   0.031   0.114  0.00  0.00    +0.331 A 
ATOM      5  O   UNL     1       3.383  -0.575   0.221  0.00  0.00    -0.246 OA
ATOM      6  N   UNL     1       1.183  -0.654  -0.008  0.00  0.00    -0.258 N 
ATOM      7  C   UNL     1       0.008  -0.004  -0.128  0.00  0.00    +0.259 A 
ATOM      8  O   UNL     1      -1.031  -0.630  -0.238  0.00  0.00    -0.267 OA
ATOM      9  H   UNL     1       3.183   1.853   0.210  0.00  0.00    +0.172 HD
ENDROOT
BRANCH   2  10
ATOM     10  N   UNL     1       1.180   3.451   0.009  0.00  0.00    -0.313 N 
ATOM     11  C   UNL     1       1.278   4.212  -1.246  0.00  0.00    +0.107 C 
ATOM     12  C   UNL     1       2.443   5.201  -1.143  0.00  0.00    +0.019 C 
ATOM     13  C   UNL     1       2.278   6.064   0.112  0.00  0.00    +0.007 C 
ATOM     14  C   UNL     1       2.283   5.162   1.345  0.00  0.00    +0.010 C 
ATOM     15  C   UNL     1       1.088   4.199   1.267  0.00  0.00    +0.078 C 
ATOM     16  C   UNL     1       1.132   3.248   2.462  0.00  0.00    +0.023 C 
ATOM     17  C   UNL     1       1.028   4.064   3.754  0.00  0.00    +0.002 C 
ATOM     18  C   UNL     1       2.188   5.056   3.837  0.00  0.00    +0.000 C 
ATOM     19  C   UNL     1       2.163   5.993   2.622  0.00  0.00    +0.005 C 
ENDBRANCH   2  10
BRANCH   6  20
ATOM     20  C   UNL     1       1.205  -2.118  -0.012  0.00  0.00    +0.095 C 
ATOM     21  C   UNL     1       0.625  -2.634  -1.331  0.00  0.00    +0.025 C 
ATOM     22  C   UNL     1       0.648  -4.164  -1.335  0.00  0.00    +0.002 C 
ATOM     23  C   UNL     1      -0.190  -4.690  -0.168  0.00  0.00    +0.000 C 
ATOM     24  C   UNL     1       0.391  -4.175   1.150  0.00  0.00    +0.002 C 
ATOM     25  C   UNL     1       0.367  -2.645   1.154  0.00  0.00    +0.025 C 
ENDBRANCH   6  20
TORSDOF 2
