REMARK  Name = ZINC00867466
REMARK  11 active torsions:
REMARK  status: ('A' for Active; 'I' for Inactive)
REMARK    1  A    between atoms: C_1  and  C_2
REMARK    2  A    between atoms: C_2  and  O_3
REMARK    3  A    between atoms: O_3  and  C_4
REMARK    4  A    between atoms: C_6  and  C_15
REMARK    5  A    between atoms: C_9  and  O_10
REMARK    6  A    between atoms: O_10  and  C_11
REMARK    7  A    between atoms: C_11  and  C_13
REMARK    8  A    between atoms: C_16  and  C_17
REMARK    9  A    between atoms: C_16  and  C_19
REMARK   10  A    between atoms: N_21  and  C_22
REMARK   11  A    between atoms: C_24  and  N_29
REMARK                            x       y       z     vdW  Elec       q    Type
REMARK                         _______ _______ _______ _____ _____    ______ ____
ROOT
ATOM      1  C   UNL     1       0.067  -6.260  -0.930  0.00  0.00    +0.032 C 
ATOM      2  C   UNL     1       1.052  -6.965  -1.586  0.00  0.00    +0.114 C 
ENDROOT
BRANCH   1   5
ATOM      3  C   UNL     1      -1.192  -2.733  -1.090  0.00  0.00    +0.164 A 
ATOM      4  C   UNL     1      -1.178  -4.112  -1.027  0.00  0.00    +0.057 A 
ATOM      5  C   UNL     1       0.045  -4.796  -0.998  0.00  0.00    -0.019 A 
ATOM      6  C   UNL     1       1.247  -4.076  -1.034  0.00  0.00    +0.026 A 
ATOM      7  C   UNL     1       1.222  -2.701  -1.102  0.00  0.00    +0.060 A 
ATOM      8  C   UNL     1       0.009  -2.024  -1.125  0.00  0.00    +0.186 A 
ATOM      9  I   UNL     1       3.019  -1.625  -1.164  0.00  0.00    -0.040 I 
BRANCH   3  10
ATOM     10  O   UNL     1      -2.376  -2.066  -1.119  0.00  0.00    -0.489 OA
BRANCH  10  12
ATOM     11  C   UNL     1      -4.790  -1.937  -1.120  0.00  0.00    +0.048 C 
ATOM     12  C   UNL     1      -3.567  -2.856  -1.080  0.00  0.00    +0.226 C 
ENDBRANCH  10  12
ENDBRANCH   3  10
BRANCH   8  13
ATOM     13  O   UNL     1      -0.009  -0.667  -1.188  0.00  0.00    -0.421 OA
BRANCH  13  14
ATOM     14  C   UNL     1      -0.014  -0.003  -0.021  0.00  0.00    +0.309 C 
ATOM     15  O   UNL     1      -0.004  -0.613   1.021  0.00  0.00    -0.251 OA
ATOM     16  C   UNL     1      -0.033   1.504  -0.012  0.00  0.00    +0.136 C 
ENDBRANCH  13  14
ENDBRANCH   8  13
ENDBRANCH   1   5
BRANCH   2  17
ATOM     17  C   UNL     1       1.024  -8.436  -1.592  0.00  0.00    +0.259 C 
ATOM     18  O   UNL     1       0.131  -9.029  -1.018  0.00  0.00    -0.269 OA
ATOM     19  N   UNL     1       1.988  -9.125  -2.234  0.00  0.00    -0.279 N 
ATOM     20  H   UNL     1       2.745  -8.657  -2.618  0.00  0.00    +0.155 HD
BRANCH  19  21
ATOM     21  C   UNL     1       1.896 -10.518  -2.345  0.00  0.00    +0.071 A 
ATOM     22  C   UNL     1       0.657 -11.140  -2.283  0.00  0.00    +0.059 A 
ATOM     23  C   UNL     1       0.568 -12.514  -2.399  0.00  0.00    +0.128 A 
ATOM     24  C   UNL     1       1.713 -13.271  -2.566  0.00  0.00    +0.035 A 
ATOM     25  C   UNL     1       2.951 -12.656  -2.623  0.00  0.00    +0.042 A 
ATOM     26  C   UNL     1       3.046 -11.281  -2.513  0.00  0.00    +0.145 A 
ATOM     27  F   UNL     1       4.255 -10.680  -2.569  0.00  0.00    -0.204 F 
BRANCH  23  28
ATOM     28  N   UNL     1      -0.753 -13.177  -2.338  0.00  0.00    +0.056 N 
ATOM     29  O   UNL     1      -0.832 -14.389  -2.435  0.00  0.00    -0.126 OA
ATOM     30  O   UNL     1      -1.763 -12.511  -2.190  0.00  0.00    -0.126 OA
ENDBRANCH  23  28
ENDBRANCH  19  21
ENDBRANCH   2  17
BRANCH   2  31
ATOM     31  C   UNL     1       2.104  -6.266  -2.261  0.00  0.00    +0.104 C 
ATOM     32  N   UNL     1       2.938  -5.712  -2.797  0.00  0.00    -0.191 NA
ENDBRANCH   2  31
TORSDOF 9
