REMARK  Name = ZINC18169547
REMARK  5 active torsions:
REMARK  status: ('A' for Active; 'I' for Inactive)
REMARK    1  A    between atoms: C_7  and  C_20
REMARK    2  A    between atoms: N_9  and  C_10
REMARK    3  A    between atoms: C_10  and  C_11
REMARK    4  A    between atoms: C_11  and  O_12
REMARK    5  A    between atoms: O_12  and  C_13
REMARK                            x       y       z     vdW  Elec       q    Type
REMARK                         _______ _______ _______ _____ _____    ______ ____
ROOT
ATOM      1  C   UNL     1       0.685   1.422  -0.383  0.00  0.00    +0.001 A 
ATOM      2  C   UNL     1       1.902   1.978  -0.019  0.00  0.00    +0.002 A 
ATOM      3  C   UNL     1       2.947   1.176   0.386  0.00  0.00    +0.026 A 
ATOM      4  C   UNL     1       2.785  -0.205   0.435  0.00  0.00    +0.050 A 
ATOM      5  C   UNL     1       1.552  -0.764   0.067  0.00  0.00    +0.007 A 
ATOM      6  C   UNL     1       0.505   0.056  -0.341  0.00  0.00    +0.010 A 
ATOM      7  C   UNL     1       1.709  -2.225   0.226  0.00  0.00    +0.001 A 
ATOM      8  C   UNL     1       3.006  -2.425   0.671  0.00  0.00    +0.095 A 
ATOM      9  N   UNL     1       3.628  -1.239   0.790  0.00  0.00    -0.343 N 
ENDROOT
BRANCH   7  10
ATOM     10  C   UNL     1       0.737  -3.213  -0.023  0.00  0.00    +0.028 C 
ATOM     11  C   UNL     1       1.080  -4.365  -0.724  0.00  0.00    +0.101 C 
ATOM     12  C   UNL     1       0.153  -5.498  -0.839  0.00  0.00    +0.274 C 
ATOM     13  O   UNL     1      -1.068  -5.453  -0.263  0.00  0.00    -0.268 OA
ATOM     14  N   UNL     1       0.540  -6.564  -1.519  0.00  0.00    -0.154 NA
ATOM     15  C   UNL     1       1.735  -6.637  -2.097  0.00  0.00    +0.164 C 
ATOM     16  S   UNL     1       2.135  -8.065  -2.954  0.00  0.00    -0.016 S 
ATOM     17  N   UNL     1       2.645  -5.653  -2.045  0.00  0.00    -0.262 N 
ATOM     18  C   UNL     1       2.388  -4.501  -1.390  0.00  0.00    +0.255 C 
ATOM     19  O   UNL     1       3.212  -3.605  -1.347  0.00  0.00    -0.270 OA
ATOM     20  H   UNL     1       3.500  -5.770  -2.489  0.00  0.00    +0.157 HD
ENDBRANCH   7  10
BRANCH   9  21
ATOM     21  C   UNL     1       5.013  -1.068   1.236  0.00  0.00    +0.163 C 
BRANCH  21  22
ATOM     22  C   UNL     1       5.034  -0.783   2.739  0.00  0.00    +0.250 C 
BRANCH  22  23
ATOM     23  O   UNL     1       6.385  -0.616   3.174  0.00  0.00    -0.487 OA
BRANCH  23  24
ATOM     24  C   UNL     1       6.581  -0.354   4.494  0.00  0.00    +0.156 A 
ATOM     25  C   UNL     1       5.496  -0.267   5.353  0.00  0.00    +0.048 A 
ATOM     26  C   UNL     1       5.697  -0.001   6.694  0.00  0.00    +0.004 A 
ATOM     27  C   UNL     1       6.979   0.178   7.180  0.00  0.00    +0.003 A 
ATOM     28  C   UNL     1       8.063   0.092   6.327  0.00  0.00    +0.042 A 
ATOM     29  C   UNL     1       7.869  -0.180   4.985  0.00  0.00    +0.165 A 
ATOM     30  F   UNL     1       8.928  -0.271   4.152  0.00  0.00    -0.202 F 
ENDBRANCH  23  24
ENDBRANCH  22  23
ENDBRANCH  21  22
ENDBRANCH   9  21
TORSDOF 5
