REMARK  Name = ZINC13636672
REMARK  5 active torsions:
REMARK  status: ('A' for Active; 'I' for Inactive)
REMARK    1  A    between atoms: C_1  and  C_2
REMARK    2  A    between atoms: N_4  and  C_5
REMARK    3  A    between atoms: N_4  and  C_6
REMARK    4  A    between atoms: C_19  and  C_22
REMARK    5  A    between atoms: C_25  and  O_28
REMARK                            x       y       z     vdW  Elec       q    Type
REMARK                         _______ _______ _______ _____ _____    ______ ____
ROOT
ATOM      1  C   UNL     1      -5.910   4.713   0.903  0.00  0.00    +0.036 A 
ATOM      2  C   UNL     1      -6.003   4.423  -0.452  0.00  0.00    +0.025 A 
ATOM      3  C   UNL     1      -5.205   3.444  -1.006  0.00  0.00    +0.025 A 
ATOM      4  C   UNL     1      -4.302   2.742  -0.216  0.00  0.00    +0.031 A 
ATOM      5  C   UNL     1      -4.201   3.048   1.146  0.00  0.00    -0.018 A 
ATOM      6  C   UNL     1      -5.006   4.021   1.697  0.00  0.00    +0.029 A 
ATOM      7  C   UNL     1      -3.196   2.307   1.939  0.00  0.00    +0.049 C 
ATOM      8  C   UNL     1      -3.350   2.100   3.402  0.00  0.00    -0.023 C 
ATOM      9  C   UNL     1      -2.784   0.944   3.729  0.00  0.00    -0.030 C 
ATOM     10  C   UNL     1      -2.227   0.263   2.477  0.00  0.00    +0.033 C 
ATOM     11  C   UNL     1      -3.121   0.855   1.380  0.00  0.00    +0.029 C 
ATOM     12  C   UNL     1      -2.520   0.986  -0.008  0.00  0.00    +0.105 C 
ATOM     13  N   UNL     1      -3.514   1.741  -0.802  0.00  0.00    -0.336 N 
ATOM     14  H   UNL     1      -3.623   1.539  -1.745  0.00  0.00    +0.147 HD
ENDROOT
BRANCH  12  15
ATOM     15  C   UNL     1      -1.220   1.745   0.057  0.00  0.00    -0.027 A 
ATOM     16  C   UNL     1      -1.220   3.124  -0.047  0.00  0.00    +0.009 A 
ATOM     17  C   UNL     1      -0.030   3.822   0.018  0.00  0.00    +0.046 A 
ATOM     18  C   UNL     1       1.166   3.139   0.182  0.00  0.00    +0.117 A 
ATOM     19  C   UNL     1       1.164   1.756   0.281  0.00  0.00    +0.046 A 
ATOM     20  C   UNL     1      -0.029   1.061   0.215  0.00  0.00    +0.009 A 
BRANCH  18  21
ATOM     21  O   UNL     1       2.338   3.825   0.247  0.00  0.00    -0.507 OA
ATOM     22  H   UNL     1       2.592   4.085   1.143  0.00  0.00    +0.292 HD
ENDBRANCH  18  21
ENDBRANCH  12  15
BRANCH   1  26
ATOM     23  C   UNL     1      -8.633   7.275   1.361  0.00  0.00    +0.109 C 
ATOM     24  C   UNL     1      -7.696   6.278   0.729  0.00  0.00    +0.216 C 
ATOM     25  O   UNL     1      -7.816   5.992  -0.444  0.00  0.00    -0.276 OA
ATOM     26  N   UNL     1      -6.726   5.703   1.467  0.00  0.00    -0.275 N 
ATOM     27  C   UNL     1      -6.524   6.113   2.859  0.00  0.00    +0.138 C 
ENDBRANCH   1  26
TORSDOF 3
