REMARK  Name = ZINC16436986
REMARK  5 active torsions:
REMARK  status: ('A' for Active; 'I' for Inactive)
REMARK    1  A    between atoms: C_4  and  C_10
REMARK    2  A    between atoms: C_6  and  N_7
REMARK    3  A    between atoms: C_11  and  C_12
REMARK    4  A    between atoms: C_11  and  C_14
REMARK    5  A    between atoms: N_16  and  C_17
REMARK                            x       y       z     vdW  Elec       q    Type
REMARK                         _______ _______ _______ _____ _____    ______ ____
ROOT
ATOM      1  C   UNL     1       3.477   6.341   0.319  0.00  0.00    +0.033 C 
ATOM      2  C   UNL     1       2.296   5.638   0.234  0.00  0.00    +0.114 C 
ENDROOT
BRANCH   1   6
ATOM      3  C   UNL     1       3.407  10.527   0.979  0.00  0.00    +0.034 A 
ATOM      4  C   UNL     1       4.410   9.759   1.544  0.00  0.00    +0.023 A 
ATOM      5  C   UNL     1       4.439   8.395   1.339  0.00  0.00    +0.048 A 
ATOM      6  C   UNL     1       3.453   7.789   0.546  0.00  0.00    -0.003 A 
ATOM      7  C   UNL     1       2.442   8.575  -0.021  0.00  0.00    +0.042 A 
ATOM      8  C   UNL     1       2.427   9.936   0.199  0.00  0.00    +0.127 A 
ATOM      9 CL   UNL     1       5.694   7.432   2.054  0.00  0.00    -0.083 Cl
BRANCH   8  10
ATOM     10  N   UNL     1       1.359  10.768  -0.400  0.00  0.00    +0.056 N 
ATOM     11  O   UNL     1       0.496  10.250  -1.086  0.00  0.00    -0.126 OA
ATOM     12  O   UNL     1       1.344  11.970  -0.207  0.00  0.00    -0.126 OA
ENDBRANCH   8  10
ENDBRANCH   1   6
BRANCH   2  13
ATOM     13  C   UNL     1       2.320   4.173   0.094  0.00  0.00    +0.259 C 
ATOM     14  O   UNL     1       3.384   3.583   0.053  0.00  0.00    -0.269 OA
ATOM     15  N   UNL     1       1.165   3.485   0.012  0.00  0.00    -0.280 N 
ATOM     16  H   UNL     1       0.320   3.959  -0.041  0.00  0.00    +0.155 HD
BRANCH  15  17
ATOM     17  C   UNL     1       1.183   2.086   0.004  0.00  0.00    +0.054 A 
ATOM     18  C   UNL     1       2.247   1.400   0.574  0.00  0.00    +0.044 A 
ATOM     19  C   UNL     1       2.262   0.018   0.563  0.00  0.00    +0.043 A 
ATOM     20  C   UNL     1       1.217  -0.682  -0.015  0.00  0.00    +0.021 A 
ATOM     21  C   UNL     1       0.156  -0.002  -0.583  0.00  0.00    +0.023 A 
ATOM     22  C   UNL     1       0.135   1.380  -0.576  0.00  0.00    +0.062 A 
ATOM     23 CL   UNL     1      -1.194   2.232  -1.297  0.00  0.00    -0.082 Cl
ATOM     24 CL   UNL     1       3.592  -0.840   1.275  0.00  0.00    -0.083 Cl
ENDBRANCH  15  17
ENDBRANCH   2  13
BRANCH   2  25
ATOM     25  C   UNL     1       1.045   6.332   0.283  0.00  0.00    +0.104 C 
ATOM     26  N   UNL     1       0.052   6.883   0.322  0.00  0.00    -0.191 NA
ENDBRANCH   2  25
TORSDOF 5
