REMARK  Name = ZINC36397061
REMARK  9 active torsions:
REMARK  status: ('A' for Active; 'I' for Inactive)
REMARK    1  A    between atoms: C_1  and  C_2
REMARK    2  A    between atoms: C_2  and  C_4
REMARK    3  A    between atoms: C_2  and  S_19
REMARK    4  A    between atoms: C_4  and  C_6
REMARK    5  A    between atoms: C_8  and  C_17
REMARK    6  A    between atoms: C_8  and  C_18
REMARK    7  A    between atoms: N_15  and  C_16
REMARK    8  A    between atoms: S_19  and  C_20
REMARK    9  A    between atoms: N_24  and  C_29
REMARK                            x       y       z     vdW  Elec       q    Type
REMARK                         _______ _______ _______ _____ _____    ______ ____
ROOT
ATOM      1  C   UNL     1       2.008  -0.523   0.836  0.00  0.00    +0.170 C 
ATOM      2  O   UNL     1       3.081  -0.825   1.321  0.00  0.00    -0.291 OA
ENDROOT
BRANCH   1   3
ATOM      3  C   UNL     1       0.843  -0.600   1.611  0.00  0.00    +0.067 C 
ATOM      4  C   UNL     1       0.894  -1.116   2.863  0.00  0.00    +0.024 C 
ATOM      5  C   UNL     1       2.133  -1.588   3.594  0.00  0.00    +0.030 C 
ATOM      6  C   UNL     1       1.616  -2.059   4.933  0.00  0.00    -0.015 A 
ATOM      7  C   UNL     1       2.240  -2.596   6.038  0.00  0.00    +0.006 A 
ATOM      8  C   UNL     1       1.494  -2.943   7.151  0.00  0.00    +0.000 A 
ATOM      9  C   UNL     1       0.125  -2.749   7.150  0.00  0.00    +0.002 A 
ATOM     10  C   UNL     1      -0.503  -2.212   6.046  0.00  0.00    +0.024 A 
ATOM     11  C   UNL     1       0.241  -1.859   4.920  0.00  0.00    +0.038 A 
ATOM     12  N   UNL     1      -0.157  -1.303   3.706  0.00  0.00    -0.305 N 
ATOM     13  C   UNL     1      -1.543  -0.965   3.375  0.00  0.00    +0.135 C 
ATOM     14  C   UNL     1       3.120  -0.433   3.776  0.00  0.00    +0.022 C 
ATOM     15  C   UNL     1       2.793  -2.743   2.838  0.00  0.00    +0.022 C 
ENDBRANCH   1   3
BRANCH   1  17
ATOM     16  C   UNL     1       1.972   1.463  -0.648  0.00  0.00    +0.028 C 
ATOM     17  C   UNL     1       1.931  -0.065  -0.598  0.00  0.00    +0.120 C 
BRANCH  17  18
ATOM     18  S   UNL     1       3.338  -0.739  -1.524  0.00  0.00    -0.094 S 
BRANCH  18  19
ATOM     19  C   UNL     1       3.029  -0.246  -3.187  0.00  0.00    +0.111 A 
ATOM     20  C   UNL     1       3.920  -0.596  -4.221  0.00  0.00    +0.070 A 
ATOM     21  C   UNL     1       5.130  -1.319  -4.287  0.00  0.00    +0.147 A 
ATOM     22  N   UNL     1       5.534  -1.337  -5.525  0.00  0.00    -0.177 NA
ATOM     23  N   UNL     1       4.625  -0.637  -6.328  0.00  0.00    -0.249 N 
ATOM     24  C   UNL     1       3.620  -0.174  -5.531  0.00  0.00    +0.162 A 
ATOM     25  N   UNL     1       2.512   0.536  -5.740  0.00  0.00    -0.216 NA
ATOM     26  C   UNL     1       1.711   0.839  -4.742  0.00  0.00    +0.224 A 
ATOM     27  N   UNL     1       1.947   0.461  -3.498  0.00  0.00    -0.228 NA
ATOM     28  C   UNL     1       4.734  -0.437  -7.775  0.00  0.00    +0.174 C 
ENDBRANCH  18  19
ENDBRANCH  17  18
ENDBRANCH   1  17
TORSDOF 4
