REMARK  Name = ZINC02146392
REMARK  8 active torsions:
REMARK  status: ('A' for Active; 'I' for Inactive)
REMARK    1  A    between atoms: C_1  and  C_2
REMARK    2  A    between atoms: C_6  and  C_10
REMARK    3  A    between atoms: C_7  and  O_9
REMARK    4  A    between atoms: C_10  and  C_12
REMARK    5  A    between atoms: C_12  and  C_13
REMARK    6  A    between atoms: C_20  and  O_21
REMARK    7  A    between atoms: O_21  and  C_22
REMARK    8  A    between atoms: C_28  and  N_49
REMARK                            x       y       z     vdW  Elec       q    Type
REMARK                         _______ _______ _______ _____ _____    ______ ____
ROOT
ATOM      1  C   UNL     1      -2.942   2.854  -0.079  0.00  0.00    -0.027 C 
ATOM      2  C   UNL     1      -2.026   3.737   0.729  0.00  0.00    -0.012 A 
ATOM      3  C   UNL     1      -2.265   5.086   0.883  0.00  0.00    -0.040 A 
ATOM      4  C   UNL     1      -1.391   5.864   1.627  0.00  0.00    +0.053 A 
ATOM      5  C   UNL     1      -0.277   5.296   2.223  0.00  0.00    +0.170 A 
ATOM      6  C   UNL     1      -0.037   3.934   2.077  0.00  0.00    +0.208 A 
ATOM      7  C   UNL     1      -0.910   3.159   1.326  0.00  0.00    +0.167 A 
ATOM      8  O   UNL     1       1.105   3.616   2.756  0.00  0.00    -0.449 OA
ATOM      9  C   UNL     1       1.333   4.715   3.658  0.00  0.00    +0.467 C 
ATOM     10  O   UNL     1       0.715   5.835   2.990  0.00  0.00    -0.452 OA
ATOM     11  C   UNL     1      -3.467   5.751   0.264  0.00  0.00    +0.017 C 
ATOM     12  C   UNL     1      -4.056   4.856  -0.827  0.00  0.00    -0.074 C 
ATOM     13  C   UNL     1      -5.110   2.697  -1.139  0.00  0.00    -0.095 C 
ATOM     14  N   UNL     1      -4.249   3.510  -0.252  0.00  0.00    +0.383 N 
ATOM     15  H   UNL     1      -4.703   3.599   0.665  0.00  0.00    -0.081 HD
ENDROOT
BRANCH   7  16
ATOM     16  O   UNL     1      -0.676   1.828   1.177  0.00  0.00    -0.491 OA
ATOM     17  C   UNL     1       0.119   1.430   0.059  0.00  0.00    +0.277 C 
ENDBRANCH   7  16
BRANCH   1  18
ATOM     18  C   UNL     1      -3.146   1.529   0.658  0.00  0.00    +0.069 C 
BRANCH  18  19
ATOM     19  C   UNL     1      -3.618   1.804   2.063  0.00  0.00    +0.172 C 
ATOM     20  O   UNL     1      -3.875   2.939   2.406  0.00  0.00    -0.292 OA
BRANCH  19  26
ATOM     21  C   UNL     1      -4.161  -2.557   5.673  0.00  0.00    +0.086 C 
ATOM     22  C   UNL     1      -4.032  -1.372   4.752  0.00  0.00    +0.110 A 
ATOM     23  C   UNL     1      -4.340  -0.151   5.220  0.00  0.00    +0.093 A 
ATOM     24  C   UNL     1      -4.216   0.977   4.363  0.00  0.00    +0.199 A 
ATOM     25  O   UNL     1      -4.480   2.102   4.755  0.00  0.00    -0.287 OA
ATOM     26  C   UNL     1      -3.762   0.736   2.982  0.00  0.00    +0.144 A 
ATOM     27  C   UNL     1      -3.474  -0.579   2.612  0.00  0.00    +0.299 A 
ATOM     28  O   UNL     1      -3.616  -1.573   3.496  0.00  0.00    -0.430 OA
BRANCH  27  29
ATOM     29  O   UNL     1      -3.051  -0.847   1.363  0.00  0.00    -0.479 OA
ATOM     30  H   UNL     1      -2.096  -0.827   1.209  0.00  0.00    +0.295 HD
ENDBRANCH  27  29
ENDBRANCH  19  26
ENDBRANCH  18  19
ENDBRANCH   1  18
TORSDOF 5
