REMARK  Name = ZINC61845038
REMARK  3 active torsions:
REMARK  status: ('A' for Active; 'I' for Inactive)
REMARK    1  A    between atoms: C_1  and  C_2
REMARK    2  A    between atoms: C_6  and  C_7
REMARK    3  A    between atoms: C_9  and  C_12
REMARK                            x       y       z     vdW  Elec       q    Type
REMARK                         _______ _______ _______ _____ _____    ______ ____
ROOT
ATOM      1  C   UNL     1      -1.734   3.710  -0.374  0.00  0.00    +0.245 A 
ATOM      2  N   UNL     1      -1.265   4.477   0.569  0.00  0.00    -0.190 NA
ATOM      3  C   UNL     1      -2.264   4.877   1.377  0.00  0.00    +0.203 A 
ATOM      4  N   UNL     1      -3.386   4.358   0.944  0.00  0.00    -0.056 NA
ATOM      5  O   UNL     1      -3.058   3.594  -0.207  0.00  0.00    -0.336 OA
ENDROOT
BRANCH   1  11
ATOM      6  C   UNL     1      -0.013   1.086   0.008  0.00  0.00    +0.041 C 
ATOM      7  C   UNL     1      -0.742   1.585  -1.213  0.00  0.00    -0.048 C 
ATOM      8  C   UNL     1      -1.243   0.761  -2.085  0.00  0.00    +0.034 C 
ATOM      9  C   UNL     1      -1.952   1.281  -3.272  0.00  0.00    +0.089 C 
ATOM     10  S   UNL     1      -1.854   3.052  -3.058  0.00  0.00    -0.089 S 
ATOM     11  C   UNL     1      -0.925   3.067  -1.470  0.00  0.00    +0.167 C 
ATOM     12  N   UNL     1      -2.512   0.610  -4.242  0.00  0.00    -0.293 NA
ATOM     13  H   UNL     1      -2.949   1.081  -4.968  0.00  0.00    +0.187 HD
ENDBRANCH   1  11
BRANCH   3  14
ATOM     14  C   UNL     1      -2.118   5.759   2.561  0.00  0.00    +0.041 A 
ATOM     15  C   UNL     1      -0.864   6.252   2.915  0.00  0.00    +0.016 A 
ATOM     16  C   UNL     1      -0.733   7.072   4.017  0.00  0.00    +0.039 A 
ATOM     17  C   UNL     1      -1.846   7.405   4.772  0.00  0.00    +0.125 A 
ATOM     18  C   UNL     1      -3.095   6.918   4.425  0.00  0.00    +0.059 A 
ATOM     19  C   UNL     1      -3.237   6.101   3.320  0.00  0.00    +0.054 A 
ATOM     20 CL   UNL     1      -4.804   5.497   2.881  0.00  0.00    -0.083 Cl
ATOM     21  F   UNL     1      -1.713   8.207   5.851  0.00  0.00    -0.205 F 
ENDBRANCH   3  14
TORSDOF 2
