REMARK  Name = ZINC60362999
REMARK  3 active torsions:
REMARK  status: ('A' for Active; 'I' for Inactive)
REMARK    1  A    between atoms: C_3  and  N_10
REMARK    2  A    between atoms: C_4  and  C_8
REMARK    3  A    between atoms: C_14  and  C_17
REMARK                            x       y       z     vdW  Elec       q    Type
REMARK                         _______ _______ _______ _____ _____    ______ ____
ROOT
ATOM      1  N   UNL     1       3.571   2.152  -0.022  0.00  0.00    -0.328 N 
ATOM      2  C   UNL     1       4.196   2.552  -1.290  0.00  0.00    +0.105 C 
ATOM      3  C   UNL     1       4.439   4.064  -1.266  0.00  0.00    +0.019 C 
ATOM      4  C   UNL     1       5.255   4.425  -0.022  0.00  0.00    +0.011 C 
ATOM      5  C   UNL     1       4.471   4.041   1.234  0.00  0.00    +0.062 C 
ATOM      6  C   UNL     1       4.224   2.534   1.238  0.00  0.00    +0.113 C 
ENDROOT
BRANCH   1   9
ATOM      7  C   UNL     1      -0.017   1.380   0.010  0.00  0.00    +0.005 A 
ATOM      8  C   UNL     1       1.164   2.096   0.002  0.00  0.00    +0.024 A 
ATOM      9  C   UNL     1       2.382   1.431  -0.013  0.00  0.00    +0.050 A 
ATOM     10  C   UNL     1       2.408   0.027  -0.021  0.00  0.00    +0.108 A 
ATOM     11  C   UNL     1       1.204  -0.685  -0.013  0.00  0.00    +0.142 A 
ATOM     12  C   UNL     1       0.002  -0.004   0.002  0.00  0.00    +0.040 A 
ATOM     13  F   UNL     1       1.217  -2.036  -0.021  0.00  0.00    -0.204 F 
BRANCH  10  14
ATOM     14  C   UNL     1       3.659  -0.670  -0.038  0.00  0.00    +0.104 C 
ATOM     15  N   UNL     1       4.651  -1.224  -0.051  0.00  0.00    -0.191 NA
ENDBRANCH  10  14
ENDBRANCH   1   9
BRANCH   5  16
ATOM     16  C   UNL     1       5.273   4.433   2.477  0.00  0.00    +0.255 C 
ATOM     17  O   UNL     1       4.532   4.087   3.659  0.00  0.00    -0.349 OA
ATOM     18  C   UNL     1       4.828   5.143   4.604  0.00  0.00    +0.191 C 
ATOM     19  C   UNL     1       4.913   6.381   3.676  0.00  0.00    +0.191 C 
ATOM     20  O   UNL     1       5.504   5.848   2.474  0.00  0.00    -0.349 OA
ENDBRANCH   5  16
TORSDOF 3
