REMARK  Name = ZINC00093056
REMARK  2 active torsions:
REMARK  status: ('A' for Active; 'I' for Inactive)
REMARK    1  A    between atoms: C_9  and  C_12
REMARK    2  A    between atoms: C_17  and  N_21
REMARK                            x       y       z     vdW  Elec       q    Type
REMARK                         _______ _______ _______ _____ _____    ______ ____
ROOT
ATOM      1  C   UNL     1       5.018  -2.515  -0.249  0.00  0.00    +0.015 A 
ATOM      2  C   UNL     1       5.868  -1.900   0.586  0.00  0.00    +0.055 A 
ATOM      3  S   UNL     1       7.219  -3.055   0.729  0.00  0.00    -0.077 S 
ATOM      4  C   UNL     1       6.605  -4.332  -0.336  0.00  0.00    +0.114 A 
ATOM      5  C   UNL     1       5.360  -3.827  -0.771  0.00  0.00    +0.054 A 
ATOM      6  C   UNL     1       4.634  -4.672  -1.654  0.00  0.00    +0.133 A 
ATOM      7  N   UNL     1       5.150  -5.841  -1.998  0.00  0.00    -0.220 NA
ATOM      8  C   UNL     1       6.322  -6.252  -1.548  0.00  0.00    +0.224 A 
ATOM      9  N   UNL     1       7.046  -5.509  -0.734  0.00  0.00    -0.228 NA
ENDROOT
BRANCH   1  18
ATOM     10  C   UNL     1       0.562   1.942  -1.006  0.00  0.00    +0.004 A 
ATOM     11  C   UNL     1       1.780   2.414  -1.461  0.00  0.00    +0.004 A 
ATOM     12  C   UNL     1       2.902   1.611  -1.396  0.00  0.00    +0.049 A 
ATOM     13  C   UNL     1       2.810   0.328  -0.875  0.00  0.00    +0.163 A 
ATOM     14  C   UNL     1       1.585  -0.146  -0.420  0.00  0.00    +0.162 A 
ATOM     15  C   UNL     1       0.463   0.666  -0.487  0.00  0.00    +0.049 A 
ATOM     16  O   UNL     1       1.471  -1.404   0.087  0.00  0.00    -0.484 OA
ATOM     17  C   UNL     1       2.685  -2.052   0.481  0.00  0.00    +0.278 C 
ATOM     18  C   UNL     1       3.719  -1.856  -0.636  0.00  0.00    +0.242 C 
ATOM     19  O   UNL     1       3.925  -0.450  -0.814  0.00  0.00    -0.477 OA
ENDBRANCH   1  18
BRANCH   6  20
ATOM     20  N   UNL     1       3.403  -4.277  -2.147  0.00  0.00    -0.315 N 
ATOM     21  C   UNL     1       3.181  -3.511  -3.382  0.00  0.00    +0.106 C 
ATOM     22  C   UNL     1       1.660  -3.283  -3.512  0.00  0.00    +0.020 C 
ATOM     23  C   UNL     1       1.158  -3.446  -2.053  0.00  0.00    +0.020 C 
ATOM     24  C   UNL     1       2.097  -4.562  -1.525  0.00  0.00    +0.106 C 
ENDBRANCH   6  20
TORSDOF 2
