REMARK  Name = ZINC26493668
REMARK  9 active torsions:
REMARK  status: ('A' for Active; 'I' for Inactive)
REMARK    1  A    between atoms: C_1  and  C_2
REMARK    2  A    between atoms: C_2  and  C_4
REMARK    3  A    between atoms: C_2  and  N_13
REMARK    4  A    between atoms: C_14  and  C_16
REMARK    5  A    between atoms: C_16  and  C_18
REMARK    6  A    between atoms: C_16  and  S_19
REMARK    7  A    between atoms: S_19  and  C_20
REMARK    8  A    between atoms: C_23  and  C_27
REMARK    9  A    between atoms: C_24  and  N_26
REMARK                            x       y       z     vdW  Elec       q    Type
REMARK                         _______ _______ _______ _____ _____    ______ ____
ROOT
ATOM      1  N   UNL     1      -0.993  -2.033   0.888  0.00  0.00    -0.305 N 
ATOM      2  C   UNL     1      -2.038  -2.667   1.454  0.00  0.00    +0.227 C 
ATOM      3  O   UNL     1      -3.169  -2.287   1.235  0.00  0.00    -0.275 OA
ATOM      4  H   UNL     1       0.033  -2.377   1.087  0.00  0.00    +0.149 HD
ENDROOT
BRANCH   1   6
ATOM      5  C   UNL     1      -1.503  -1.377  -1.412  0.00  0.00    +0.036 C 
ATOM      6  C   UNL     1      -1.222  -0.883   0.009  0.00  0.00    +0.136 C 
BRANCH   6   7
ATOM      7  C   UNL     1       0.002  -0.004   0.002  0.00  0.00    +0.126 A 
ATOM      8  C   UNL     1      -0.016   1.336   0.009  0.00  0.00    +0.055 A 
ATOM      9  C   UNL     1       1.388   1.764  -0.002  0.00  0.00    +0.020 A 
ATOM     10  C   UNL     1       2.030   3.002  -0.001  0.00  0.00    +0.011 A 
ATOM     11  C   UNL     1       3.396   3.057  -0.013  0.00  0.00    +0.001 A 
ATOM     12  C   UNL     1       4.146   1.889  -0.027  0.00  0.00    +0.004 A 
ATOM     13  C   UNL     1       3.529   0.657  -0.028  0.00  0.00    +0.047 A 
ATOM     14  C   UNL     1       2.142   0.579  -0.015  0.00  0.00    +0.135 A 
ATOM     15  O   UNL     1       1.270  -0.450  -0.013  0.00  0.00    -0.458 OA
ENDBRANCH   6   7
ENDBRANCH   1   6
BRANCH   2  16
ATOM     16  C   UNL     1      -1.803  -3.849   2.359  0.00  0.00    +0.137 C 
ATOM     17  C   UNL     1      -1.522  -3.356   3.780  0.00  0.00    +0.029 C 
BRANCH  16  18
ATOM     18  S   UNL     1      -3.273  -4.905   2.367  0.00  0.00    -0.074 S 
BRANCH  18  19
ATOM     19  C   UNL     1      -2.683  -6.243   3.349  0.00  0.00    +0.191 A 
ATOM     20  N   UNL     1      -1.439  -6.202   3.813  0.00  0.00    -0.229 NA
ATOM     21  C   UNL     1      -0.956  -7.179   4.558  0.00  0.00    +0.136 A 
ATOM     22  C   UNL     1      -1.770  -8.278   4.850  0.00  0.00    +0.109 A 
ATOM     23  C   UNL     1      -3.084  -8.290   4.335  0.00  0.00    +0.138 A 
ATOM     24  N   UNL     1      -3.492  -7.263   3.599  0.00  0.00    -0.206 NA
BRANCH  23  25
ATOM     25  N   UNL     1      -3.931  -9.349   4.592  0.00  0.00    -0.342 N 
ATOM     26  H   UNL     1      -4.953  -9.348   4.186  0.00  0.00    +0.144 HD
ATOM     27  H   UNL     1      -3.583 -10.195   5.204  0.00  0.00    +0.144 HD
ENDBRANCH  23  25
BRANCH  22  28
ATOM     28  C   UNL     1      -1.284  -9.363   5.649  0.00  0.00    +0.104 C 
ATOM     29  N   UNL     1      -0.898 -10.223   6.283  0.00  0.00    -0.191 NA
ENDBRANCH  22  28
ENDBRANCH  18  19
ENDBRANCH  16  18
ENDBRANCH   2  16
TORSDOF 7
