REMARK  Name = ZINC08833982
REMARK  5 active torsions:
REMARK  status: ('A' for Active; 'I' for Inactive)
REMARK    1  A    between atoms: N_9  and  C_12
REMARK    2  A    between atoms: C_12  and  C_13
REMARK    3  A    between atoms: C_13  and  O_14
REMARK    4  A    between atoms: O_14  and  S_15
REMARK    5  A    between atoms: S_15  and  C_18
REMARK                            x       y       z     vdW  Elec       q    Type
REMARK                         _______ _______ _______ _____ _____    ______ ____
ROOT
ATOM      1  S   UNL     1      -1.514  -0.902   0.013  0.00  0.00    +0.113 S 
ATOM      2  O   UNL     1      -1.202  -2.220   0.443  0.00  0.00    -0.142 OA
ATOM      3  O   UNL     1      -2.464  -0.086   0.684  0.00  0.00    -0.142 OA
ENDROOT
BRANCH   1   4
ATOM      4  C   UNL     1       0.002  -0.004   0.002  0.00  0.00    +0.125 A 
ATOM      5  C   UNL     1       1.189  -0.675   0.038  0.00  0.00    +0.031 A 
ATOM      6  C   UNL     1       2.404   0.012   0.031  0.00  0.00    +0.018 A 
ATOM      7  C   UNL     1       2.410   1.380  -0.013  0.00  0.00    +0.024 A 
ATOM      8  C   UNL     1       1.210   2.103  -0.051  0.00  0.00    +0.009 A 
ATOM      9  C   UNL     1      -0.017   1.399  -0.044  0.00  0.00    +0.011 A 
ATOM     10  C   UNL     1      -1.217   2.131  -0.089  0.00  0.00    +0.010 A 
ATOM     11  C   UNL     1      -1.171   3.494  -0.128  0.00  0.00    +0.001 A 
ATOM     12  C   UNL     1       0.030   4.186  -0.135  0.00  0.00    +0.013 A 
ATOM     13  C   UNL     1       1.251   3.500  -0.096  0.00  0.00    +0.038 A 
ATOM     14  C   UNL     1       2.622   4.078  -0.098  0.00  0.00    +0.225 C 
ATOM     15  O   UNL     1       2.951   5.250  -0.131  0.00  0.00    -0.279 OA
ATOM     16  S   UNL     1       3.666   2.632  -0.035  0.00  0.00    -0.046 S 
ENDBRANCH   1   4
BRANCH   1  17
ATOM     17  O   UNL     1      -1.981  -1.014  -1.431  0.00  0.00    -0.233 OA
BRANCH  17  18
ATOM     18  C   UNL     1      -1.248  -1.965  -2.207  0.00  0.00    +0.213 C 
BRANCH  18  19
ATOM     19  C   UNL     1      -1.800  -1.994  -3.633  0.00  0.00    +0.147 C 
BRANCH  19  28
ATOM     20  C   UNL     1      -0.193   3.115  -6.521  0.00  0.00    +0.001 A 
ATOM     21  C   UNL     1      -1.412   3.573  -6.059  0.00  0.00    +0.001 A 
ATOM     22  C   UNL     1      -2.229   2.751  -5.299  0.00  0.00    +0.014 A 
ATOM     23  C   UNL     1      -1.820   1.461  -5.001  0.00  0.00    +0.049 A 
ATOM     24  C   UNL     1      -0.576   0.994  -5.472  0.00  0.00    +0.049 A 
ATOM     25  C   UNL     1       0.230   1.827  -6.231  0.00  0.00    +0.014 A 
ATOM     26  C   UNL     1      -0.454  -0.396  -4.982  0.00  0.00    +0.254 C 
ATOM     27  O   UNL     1       0.486  -1.138  -5.183  0.00  0.00    -0.270 OA
ATOM     28  N   UNL     1      -1.558  -0.700  -4.277  0.00  0.00    -0.232 N 
ATOM     29  C   UNL     1      -2.413   0.338  -4.245  0.00  0.00    +0.254 C 
ATOM     30  O   UNL     1      -3.492   0.351  -3.686  0.00  0.00    -0.270 OA
ENDBRANCH  19  28
ENDBRANCH  18  19
ENDBRANCH  17  18
ENDBRANCH   1  17
TORSDOF 5
