REMARK  Name = ZINC49964210
REMARK  6 active torsions:
REMARK  status: ('A' for Active; 'I' for Inactive)
REMARK    1  A    between atoms: C_1  and  C_2
REMARK    2  A    between atoms: C_6  and  N_22
REMARK    3  A    between atoms: C_8  and  C_11
REMARK    4  A    between atoms: C_11  and  C_12
REMARK    5  A    between atoms: C_15  and  N_19
REMARK    6  A    between atoms: N_22  and  C_23
REMARK                            x       y       z     vdW  Elec       q    Type
REMARK                         _______ _______ _______ _____ _____    ______ ____
ROOT
ATOM      1  C   UNL     1      -0.019   1.526   0.010  0.00  0.00    +0.007 C 
ATOM      2  C   UNL     1       0.002  -0.004   0.002  0.00  0.00    -0.014 C 
ATOM      3  C   UNL     1       0.718  -0.497  -1.257  0.00  0.00    +0.002 C 
ATOM      4  C   UNL     1       2.154   0.032  -1.268  0.00  0.00    -0.015 C 
ATOM      5  C   UNL     1       2.894  -0.475  -0.028  0.00  0.00    -0.069 C 
ATOM      6  C   UNL     1       2.178   0.019   1.231  0.00  0.00    -0.021 C 
ATOM      7  C   UNL     1       0.742  -0.511   1.242  0.00  0.00    +0.005 C 
ENDROOT
BRANCH   5   8
ATOM      8  N   UNL     1       4.272   0.034  -0.038  0.00  0.00    +0.379 N 
ATOM      9  C   UNL     1       4.995  -0.536  -1.183  0.00  0.00    -0.100 C 
ATOM     10  H   UNL     1       4.258   1.040  -0.116  0.00  0.00    -0.086 HD
ATOM     11  H   UNL     1       4.735  -0.232   0.818  0.00  0.00    -0.086 HD
ENDBRANCH   5   8
BRANCH   6  12
ATOM     12  C   UNL     1       2.917  -0.488   2.470  0.00  0.00    +0.038 C 
BRANCH  12  13
ATOM     13  C   UNL     1       2.286   0.097   3.707  0.00  0.00    -0.029 A 
ATOM     14  C   UNL     1       2.804   1.250   4.268  0.00  0.00    +0.007 A 
ATOM     15  C   UNL     1       2.225   1.787   5.403  0.00  0.00    +0.033 A 
ATOM     16  C   UNL     1       1.127   1.172   5.977  0.00  0.00    +0.128 A 
ATOM     17  C   UNL     1       0.609   0.020   5.416  0.00  0.00    +0.053 A 
ATOM     18  C   UNL     1       1.184  -0.515   4.277  0.00  0.00    +0.046 A 
ATOM     19 CL   UNL     1       0.529  -1.958   3.568  0.00  0.00    -0.083 Cl
BRANCH  16  20
ATOM     20  N   UNL     1       0.509   1.747   7.192  0.00  0.00    +0.056 N 
ATOM     21  O   UNL     1       0.963   2.754   7.683  0.00  0.00    -0.126 OA
ATOM     22  O   UNL     1      -0.451   1.209   7.694  0.00  0.00    -0.126 OA
ENDBRANCH  16  20
ENDBRANCH  12  13
ENDBRANCH   6  12
TORSDOF 4
