REMARK  Name = ZINC31258826
REMARK  7 active torsions:
REMARK  status: ('A' for Active; 'I' for Inactive)
REMARK    1  A    between atoms: C_1  and  N_2
REMARK    2  A    between atoms: C_8  and  C_14
REMARK    3  A    between atoms: N_16  and  C_17
REMARK    4  A    between atoms: C_17  and  C_19
REMARK    5  A    between atoms: C_17  and  C_27
REMARK    6  A    between atoms: C_22  and  O_25
REMARK    7  A    between atoms: O_25  and  C_26
REMARK                            x       y       z     vdW  Elec       q    Type
REMARK                         _______ _______ _______ _____ _____    ______ ____
ROOT
ATOM      1  C   UNL     1       0.935   4.105  -0.097  0.00  0.00    +0.245 C 
ATOM      2  O   UNL     1       1.719   3.318  -0.590  0.00  0.00    -0.270 OA
ATOM      3  N   UNL     1      -0.363   4.079  -0.458  0.00  0.00    -0.304 N 
ATOM      4  H   UNL     1      -1.072   4.792  -0.012  0.00  0.00    +0.150 HD
ENDROOT
BRANCH   1  12
ATOM      5  C   UNL     1       4.600   8.839   5.054  0.00  0.00    +0.154 C 
ATOM      6  N   UNL     1       4.061   7.892   4.074  0.00  0.00    -0.290 N 
ATOM      7  C   UNL     1       2.745   7.927   3.761  0.00  0.00    +0.262 A 
ATOM      8  O   UNL     1       1.995   8.733   4.279  0.00  0.00    -0.267 OA
ATOM      9  C   UNL     1       2.255   6.955   2.772  0.00  0.00    +0.065 A 
ATOM     10  C   UNL     1       0.915   6.915   2.387  0.00  0.00    +0.016 A 
ATOM     11  C   UNL     1       0.499   5.997   1.465  0.00  0.00    +0.014 A 
ATOM     12  C   UNL     1       1.407   5.092   0.900  0.00  0.00    +0.039 A 
ATOM     13  C   UNL     1       2.744   5.111   1.273  0.00  0.00    +0.041 A 
ATOM     14  C   UNL     1       3.183   6.049   2.211  0.00  0.00    +0.080 A 
ATOM     15  N   UNL     1       4.479   6.106   2.601  0.00  0.00    -0.222 NA
ATOM     16  C   UNL     1       4.891   6.982   3.485  0.00  0.00    +0.183 A 
ATOM     17  S   UNL     1       6.595   6.984   3.932  0.00  0.00    -0.011 S 
ENDBRANCH   1  12
BRANCH   3  18
ATOM     18  C   UNL     1      -0.830   3.102  -1.445  0.00  0.00    +0.107 C 
BRANCH  18  19
ATOM     19  C   UNL     1      -2.070   3.625  -2.122  0.00  0.00    -0.027 A 
ATOM     20  C   UNL     1      -3.034   4.285  -1.383  0.00  0.00    +0.009 A 
ATOM     21  C   UNL     1      -4.169   4.771  -2.002  0.00  0.00    +0.046 A 
ATOM     22  C   UNL     1      -4.348   4.585  -3.365  0.00  0.00    +0.120 A 
ATOM     23  C   UNL     1      -3.382   3.917  -4.104  0.00  0.00    +0.046 A 
ATOM     24  C   UNL     1      -2.245   3.439  -3.481  0.00  0.00    +0.009 A 
BRANCH  22  25
ATOM     25  O   UNL     1      -5.467   5.056  -3.976  0.00  0.00    -0.495 OA
ATOM     26  C   UNL     1      -6.418   5.733  -3.153  0.00  0.00    +0.277 C 
ENDBRANCH  22  25
ENDBRANCH  18  19
BRANCH  18  27
ATOM     27  C   UNL     1      -1.150   1.781  -0.743  0.00  0.00    +0.014 C 
ATOM     28  C   UNL     1      -0.013   1.086   0.008  0.00  0.00    +0.006 C 
ATOM     29  C   UNL     1      -1.136   1.773   0.788  0.00  0.00    +0.006 C 
ENDBRANCH  18  27
ENDBRANCH   3  18
TORSDOF 5
