REMARK  Name = ZINC05173399
REMARK  6 active torsions:
REMARK  status: ('A' for Active; 'I' for Inactive)
REMARK    1  A    between atoms: C_1  and  C_2
REMARK    2  A    between atoms: C_2  and  O_3
REMARK    3  A    between atoms: O_3  and  C_4
REMARK    4  A    between atoms: C_7  and  C_11
REMARK    5  A    between atoms: N_13  and  C_14
REMARK    6  A    between atoms: C_16  and  N_21
REMARK                            x       y       z     vdW  Elec       q    Type
REMARK                         _______ _______ _______ _____ _____    ______ ____
ROOT
ATOM      1  C   UNL     1      -1.116   1.737   0.017  0.00  0.00    +0.248 C 
ATOM      2  O   UNL     1      -1.015   2.945  -0.077  0.00  0.00    -0.270 OA
ATOM      3  N   UNL     1      -0.011   0.966   0.007  0.00  0.00    -0.280 N 
ATOM      4  H   UNL     1      -0.094  -0.001   0.017  0.00  0.00    +0.155 HD
ENDROOT
BRANCH   1   8
ATOM      5  C   UNL     1      -4.951  -0.053   0.372  0.00  0.00    +0.134 A 
ATOM      6  C   UNL     1      -3.812  -0.850   0.363  0.00  0.00    +0.047 A 
ATOM      7  C   UNL     1      -2.567  -0.273   0.243  0.00  0.00    +0.017 A 
ATOM      8  C   UNL     1      -2.449   1.115   0.141  0.00  0.00    +0.038 A 
ATOM      9  C   UNL     1      -3.596   1.913   0.151  0.00  0.00    +0.032 A 
ATOM     10  C   UNL     1      -4.838   1.329   0.266  0.00  0.00    +0.060 A 
ATOM     11 BR   UNL     1      -6.392   2.407   0.280  0.00  0.00    -0.046 Br
BRANCH   5  12
ATOM     12  O   UNL     1      -6.177  -0.625   0.485  0.00  0.00    -0.491 OA
BRANCH  12  14
ATOM     13  C   UNL     1      -7.675  -2.508   0.709  0.00  0.00    +0.048 C 
ATOM     14  C   UNL     1      -6.220  -2.050   0.591  0.00  0.00    +0.226 C 
ENDBRANCH  12  14
ENDBRANCH   5  12
ENDBRANCH   1   8
BRANCH   3  15
ATOM     15  C   UNL     1       1.256   1.559  -0.021  0.00  0.00    +0.054 A 
ATOM     16  C   UNL     1       1.455   2.741  -0.723  0.00  0.00    +0.057 A 
ATOM     17  C   UNL     1       2.707   3.324  -0.749  0.00  0.00    +0.128 A 
ATOM     18  C   UNL     1       3.761   2.733  -0.078  0.00  0.00    +0.034 A 
ATOM     19  C   UNL     1       3.567   1.556   0.622  0.00  0.00    +0.024 A 
ATOM     20  C   UNL     1       2.316   0.970   0.657  0.00  0.00    +0.062 A 
ATOM     21 CL   UNL     1       2.071  -0.504   1.541  0.00  0.00    -0.082 Cl
BRANCH  17  22
ATOM     22  N   UNL     1       2.919   4.584  -1.497  0.00  0.00    +0.056 N 
ATOM     23  O   UNL     1       1.991   5.105  -2.088  0.00  0.00    -0.126 OA
ATOM     24  O   UNL     1       4.023   5.099  -1.520  0.00  0.00    -0.126 OA
ENDBRANCH  17  22
ENDBRANCH   3  15
TORSDOF 5
