REMARK  Name = ZINC01921380
REMARK  6 active torsions:
REMARK  status: ('A' for Active; 'I' for Inactive)
REMARK    1  A    between atoms: C_1  and  C_2
REMARK    2  A    between atoms: C_5  and  S_8
REMARK    3  A    between atoms: S_8  and  C_9
REMARK    4  A    between atoms: C_9  and  C_10
REMARK    5  A    between atoms: N_12  and  C_13
REMARK    6  A    between atoms: N_21  and  C_22
REMARK                            x       y       z     vdW  Elec       q    Type
REMARK                         _______ _______ _______ _____ _____    ______ ____
ROOT
ATOM      1  C   UNL     1       2.232   0.945   0.034  0.00  0.00    +0.119 A 
ATOM      2  C   UNL     1       2.680   0.506   1.245  0.00  0.00    +0.112 A 
ATOM      3  C   UNL     1       4.026   0.119   1.377  0.00  0.00    +0.256 A 
ATOM      4  O   UNL     1       4.448  -0.277   2.449  0.00  0.00    -0.268 OA
ATOM      5  N   UNL     1       4.846   0.190   0.309  0.00  0.00    -0.275 N 
ATOM      6  H   UNL     1       5.803  -0.085   0.400  0.00  0.00    +0.173 HD
ATOM      7  C   UNL     1       4.386   0.625  -0.878  0.00  0.00    +0.335 A 
ATOM      8  O   UNL     1       5.142   0.681  -1.829  0.00  0.00    -0.246 OA
ATOM      9  N   UNL     1       3.102   0.995  -1.030  0.00  0.00    -0.250 N 
ENDROOT
BRANCH   9  10
ATOM     10  C   UNL     1       2.648   1.440  -2.280  0.00  0.00    +0.053 A 
ATOM     11  C   UNL     1       2.323   2.777  -2.466  0.00  0.00    +0.028 A 
ATOM     12  C   UNL     1       1.882   3.213  -3.700  0.00  0.00    +0.022 A 
ATOM     13  C   UNL     1       1.753   2.318  -4.747  0.00  0.00    +0.041 A 
ATOM     14  C   UNL     1       2.071   0.984  -4.562  0.00  0.00    +0.022 A 
ATOM     15  C   UNL     1       2.518   0.543  -3.332  0.00  0.00    +0.028 A 
ATOM     16 CL   UNL     1       1.190   2.868  -6.294  0.00  0.00    -0.084 Cl
ENDBRANCH   9  10
BRANCH   1  19
ATOM     17  C   UNL     1      -0.028   0.407  -0.387  0.00  0.00    +0.228 C 
ATOM     18  O   UNL     1       0.288  -0.750  -0.569  0.00  0.00    -0.275 OA
ATOM     19  N   UNL     1       0.918   1.330  -0.124  0.00  0.00    -0.271 N 
ATOM     20  H   UNL     1       0.673   2.265  -0.045  0.00  0.00    +0.156 HD
BRANCH  17  21
ATOM     21  C   UNL     1      -1.477   0.813  -0.462  0.00  0.00    +0.170 C 
BRANCH  21  22
ATOM     22  S   UNL     1      -2.509  -0.664  -0.675  0.00  0.00    -0.116 S 
BRANCH  22  27
ATOM     23  C   UNL     1      -8.136   1.506  -0.911  0.00  0.00    +0.044 C 
ATOM     24  C   UNL     1      -6.731   0.965  -0.852  0.00  0.00    -0.050 A 
ATOM     25  C   UNL     1      -6.512  -0.397  -0.959  0.00  0.00    +0.004 A 
ATOM     26  C   UNL     1      -5.226  -0.897  -0.906  0.00  0.00    +0.015 A 
ATOM     27  C   UNL     1      -4.152  -0.031  -0.744  0.00  0.00    +0.008 A 
ATOM     28  C   UNL     1      -4.376   1.336  -0.632  0.00  0.00    +0.015 A 
ATOM     29  C   UNL     1      -5.664   1.830  -0.692  0.00  0.00    +0.004 A 
ENDBRANCH  22  27
ENDBRANCH  21  22
ENDBRANCH  17  21
ENDBRANCH   1  19
TORSDOF 5
