REMARK  Name = ZINC04992455
REMARK  5 active torsions:
REMARK  status: ('A' for Active; 'I' for Inactive)
REMARK    1  A    between atoms: C_1  and  C_2
REMARK    2  A    between atoms: N_16  and  C_17
REMARK    3  A    between atoms: C_20  and  C_23
REMARK    4  A    between atoms: N_25  and  C_26
REMARK    5  A    between atoms: C_26  and  C_27
REMARK                            x       y       z     vdW  Elec       q    Type
REMARK                         _______ _______ _______ _____ _____    ______ ____
ROOT
ATOM      1  C   UNL     1       2.036   7.740   0.003  0.00  0.00    +0.079 C 
ATOM      2  C   UNL     1       1.635   6.272  -0.162  0.00  0.00    +0.185 C 
ATOM      3  C   UNL     1       2.625   5.384   0.605  0.00  0.00    +0.096 C 
ATOM      4  C   UNL     1       2.251   3.926   0.293  0.00  0.00    +0.114 C 
ATOM      5  C   UNL     1       0.786   3.734   0.617  0.00  0.00    +0.015 A 
ATOM      6  C   UNL     1       0.324   2.460   0.894  0.00  0.00    +0.009 A 
ATOM      7  C   UNL     1      -1.012   2.254   1.184  0.00  0.00    +0.001 A 
ATOM      8  C   UNL     1      -1.889   3.323   1.191  0.00  0.00    +0.004 A 
ATOM      9  C   UNL     1      -1.430   4.596   0.921  0.00  0.00    +0.046 A 
ATOM     10  C   UNL     1      -0.085   4.808   0.632  0.00  0.00    +0.128 A 
ATOM     11  O   UNL     1       0.332   6.075   0.378  0.00  0.00    -0.468 OA
ATOM     12  N   UNL     1       2.409   3.729  -1.157  0.00  0.00    -0.292 N 
ATOM     13  C   UNL     1       2.080   4.718  -2.005  0.00  0.00    +0.310 C 
ATOM     14  O   UNL     1       2.157   4.515  -3.201  0.00  0.00    -0.252 OA
ATOM     15  N   UNL     1       1.671   5.923  -1.579  0.00  0.00    -0.216 N 
ATOM     16  H   UNL     1       2.749   2.887  -1.500  0.00  0.00    +0.151 HD
ENDROOT
BRANCH  15  17
ATOM     17  C   UNL     1       1.266   6.870  -2.519  0.00  0.00    +0.042 A 
ATOM     18  C   UNL     1      -0.085   7.016  -2.819  0.00  0.00    +0.024 A 
ATOM     19  C   UNL     1      -0.488   7.954  -3.743  0.00  0.00    +0.015 A 
ATOM     20  C   UNL     1       0.461   8.752  -4.387  0.00  0.00    +0.037 A 
ATOM     21  C   UNL     1       1.818   8.598  -4.087  0.00  0.00    +0.015 A 
ATOM     22  C   UNL     1       2.214   7.662  -3.159  0.00  0.00    +0.024 A 
BRANCH  20  23
ATOM     23  C   UNL     1       0.033   9.753  -5.383  0.00  0.00    +0.244 C 
ATOM     24  O   UNL     1       0.860  10.446  -5.943  0.00  0.00    -0.270 OA
ATOM     25  N   UNL     1      -1.276   9.900  -5.671  0.00  0.00    -0.304 N 
ATOM     26  H   UNL     1      -1.936   9.348  -5.224  0.00  0.00    +0.149 HD
BRANCH  25  27
ATOM     27  C   UNL     1      -1.701  10.895  -6.659  0.00  0.00    +0.179 C 
BRANCH  27  28
ATOM     28  C   UNL     1      -3.201  10.857  -6.795  0.00  0.00    +0.122 A 
ATOM     29  C   UNL     1      -4.075  11.585  -6.076  0.00  0.00    +0.046 A 
ATOM     30  C   UNL     1      -5.368  11.238  -6.529  0.00  0.00    +0.041 A 
ATOM     31  C   UNL     1      -5.208  10.319  -7.498  0.00  0.00    +0.195 A 
ATOM     32  O   UNL     1      -3.893  10.097  -7.659  0.00  0.00    -0.466 OA
ENDBRANCH  27  28
ENDBRANCH  25  27
ENDBRANCH  20  23
ENDBRANCH  15  17
TORSDOF 4
