REMARK  Name = ZINC65306759
REMARK  9 active torsions:
REMARK  status: ('A' for Active; 'I' for Inactive)
REMARK    1  A    between atoms: C_1  and  C_2
REMARK    2  A    between atoms: C_2  and  C_4
REMARK    3  A    between atoms: C_2  and  N_11
REMARK    4  A    between atoms: C_12  and  C_14
REMARK    5  A    between atoms: N_19  and  C_25
REMARK    6  A    between atoms: N_22  and  C_23
REMARK    7  A    between atoms: N_22  and  C_24
REMARK    8  A    between atoms: C_28  and  O_31
REMARK    9  A    between atoms: O_31  and  C_32
REMARK                            x       y       z     vdW  Elec       q    Type
REMARK                         _______ _______ _______ _____ _____    ______ ____
ROOT
ATOM      1  C   UNL     1      -3.300  -1.548  -1.213  0.00  0.00    +0.078 A 
ATOM      2  C   UNL     1      -4.172  -1.757  -2.260  0.00  0.00    +0.048 A 
ATOM      3  C   UNL     1      -5.513  -2.045  -1.989  0.00  0.00    +0.074 A 
ATOM      4  C   UNL     1      -5.872  -2.098  -0.640  0.00  0.00    +0.112 A 
ATOM      5  S   UNL     1      -4.354  -1.760   0.212  0.00  0.00    -0.064 S 
ATOM      6  N   UNL     1      -7.200  -2.386  -0.564  0.00  0.00    -0.276 N 
ATOM      7  C   UNL     1      -7.660  -2.510  -1.849  0.00  0.00    +0.181 A 
ATOM      8  N   UNL     1      -6.678  -2.312  -2.683  0.00  0.00    -0.327 N 
ATOM      9  N   UNL     1      -8.965  -2.801  -2.205  0.00  0.00    -0.308 N 
ATOM     10  C   UNL     1      -9.954  -1.726  -2.304  0.00  0.00    +0.131 C 
ATOM     11  C   UNL     1      -9.356  -4.185  -2.485  0.00  0.00    +0.131 C 
ATOM     12  H   UNL     1      -6.754  -2.345  -3.649  0.00  0.00    +0.169 HD
ENDROOT
BRANCH   6  13
ATOM     13  C   UNL     1      -7.956  -2.530   0.610  0.00  0.00    +0.050 A 
ATOM     14  C   UNL     1      -8.482  -3.769   0.950  0.00  0.00    +0.030 A 
ATOM     15  C   UNL     1      -9.225  -3.911   2.105  0.00  0.00    +0.047 A 
ATOM     16  C   UNL     1      -9.447  -2.814   2.926  0.00  0.00    +0.120 A 
ATOM     17  C   UNL     1      -8.922  -1.576   2.586  0.00  0.00    +0.047 A 
ATOM     18  C   UNL     1      -8.174  -1.435   1.434  0.00  0.00    +0.030 A 
BRANCH  16  19
ATOM     19  O   UNL     1     -10.179  -2.954   4.063  0.00  0.00    -0.495 OA
ATOM     20  C   UNL     1     -10.368  -1.783   4.860  0.00  0.00    +0.277 C 
ENDBRANCH  16  19
ENDBRANCH   6  13
BRANCH   1  22
ATOM     21  N   UNL     1      -1.181  -1.072  -0.112  0.00  0.00    -0.304 N 
ATOM     22  C   UNL     1      -1.871  -1.237  -1.258  0.00  0.00    +0.251 C 
ATOM     23  O   UNL     1      -1.305  -1.128  -2.330  0.00  0.00    -0.270 OA
ATOM     24  H   UNL     1      -1.632  -1.159   0.743  0.00  0.00    +0.150 HD
BRANCH  21  26
ATOM     25  C   UNL     1       0.439   0.749  -0.317  0.00  0.00    +0.033 C 
ATOM     26  C   UNL     1       0.250  -0.761  -0.157  0.00  0.00    +0.100 C 
BRANCH  26  27
ATOM     27  C   UNL     1       0.904  -1.216   1.122  0.00  0.00    -0.027 A 
ATOM     28  C   UNL     1       0.251  -1.047   2.329  0.00  0.00    +0.008 A 
ATOM     29  C   UNL     1       0.850  -1.465   3.503  0.00  0.00    +0.038 A 
ATOM     30  C   UNL     1       2.103  -2.053   3.470  0.00  0.00    +0.123 A 
ATOM     31  C   UNL     1       2.755  -2.222   2.260  0.00  0.00    +0.038 A 
ATOM     32  C   UNL     1       2.152  -1.808   1.087  0.00  0.00    +0.008 A 
ATOM     33  F   UNL     1       2.688  -2.462   4.617  0.00  0.00    -0.205 F 
ENDBRANCH  26  27
ENDBRANCH  21  26
ENDBRANCH   1  22
TORSDOF 5
