REMARK  Name = ZINC12381670
REMARK  9 active torsions:
REMARK  status: ('A' for Active; 'I' for Inactive)
REMARK    1  A    between atoms: C_1  and  C_2
REMARK    2  A    between atoms: C_2  and  C_3
REMARK    3  A    between atoms: C_2  and  C_4
REMARK    4  A    between atoms: C_2  and  C_5
REMARK    5  A    between atoms: C_8  and  C_11
REMARK    6  A    between atoms: C_14  and  C_27
REMARK    7  A    between atoms: C_14  and  O_31
REMARK    8  A    between atoms: C_16  and  C_18
REMARK    9  A    between atoms: C_21  and  N_24
REMARK                            x       y       z     vdW  Elec       q    Type
REMARK                         _______ _______ _______ _____ _____    ______ ____
ROOT
ATOM      1  C   UNL     1      -1.083  -0.803   0.009  0.00  0.00    +0.269 C 
ATOM      2  O   UNL     1      -0.953  -2.007  -0.099  0.00  0.00    -0.268 OA
ATOM      3  N   UNL     1       0.003  -0.005   0.011  0.00  0.00    -0.148 N 
ATOM      4  C   UNL     1       1.401  -0.463   0.009  0.00  0.00    +0.257 C 
ATOM      5  C   UNL     1       2.211   0.849   0.014  0.00  0.00    +0.124 C 
ATOM      6  C   UNL     1       1.153   1.930   0.018  0.00  0.00    +0.071 C 
ATOM      7  N   UNL     1      -0.015   1.389   0.017  0.00  0.00    -0.178 NA
ENDROOT
BRANCH   1  11
ATOM      8  C   UNL     1      -4.962   0.888   0.376  0.00  0.00    -0.042 A 
ATOM      9  C   UNL     1      -4.808  -0.487   0.367  0.00  0.00    +0.005 A 
ATOM     10  C   UNL     1      -3.551  -1.043   0.248  0.00  0.00    +0.013 A 
ATOM     11  C   UNL     1      -2.433  -0.214   0.136  0.00  0.00    +0.039 A 
ATOM     12  C   UNL     1      -2.595   1.172   0.151  0.00  0.00    +0.013 A 
ATOM     13  C   UNL     1      -3.858   1.715   0.265  0.00  0.00    +0.005 A 
BRANCH   8  15
ATOM     14  C   UNL     1      -6.969   1.035   1.825  0.00  0.00    +0.015 C 
ATOM     15  C   UNL     1      -6.338   1.488   0.507  0.00  0.00    -0.013 C 
ATOM     16  C   UNL     1      -6.233   3.014   0.490  0.00  0.00    +0.015 C 
ATOM     17  C   UNL     1      -7.210   1.024  -0.661  0.00  0.00    +0.015 C 
ENDBRANCH   8  15
ENDBRANCH   1  11
BRANCH   6  18
ATOM     18  C   UNL     1       1.419   3.381   0.024  0.00  0.00    -0.002 A 
ATOM     19  C   UNL     1       2.734   3.853   0.031  0.00  0.00    +0.012 A 
ATOM     20  C   UNL     1       2.975   5.211   0.030  0.00  0.00    +0.033 A 
ATOM     21  C   UNL     1       1.919   6.105   0.034  0.00  0.00    +0.126 A 
ATOM     22  C   UNL     1       0.614   5.644   0.033  0.00  0.00    +0.033 A 
ATOM     23  C   UNL     1       0.358   4.288   0.028  0.00  0.00    +0.012 A 
BRANCH  21  24
ATOM     24  N   UNL     1       2.185   7.561   0.040  0.00  0.00    +0.056 N 
ATOM     25  O   UNL     1       1.258   8.350   0.044  0.00  0.00    -0.126 OA
ATOM     26  O   UNL     1       3.333   7.970   0.041  0.00  0.00    -0.126 OA
ENDBRANCH  21  24
ENDBRANCH   6  18
BRANCH   4  27
ATOM     27  C   UNL     1       1.701  -1.285   1.264  0.00  0.00    +0.438 C 
ATOM     28  F   UNL     1       0.881  -2.419   1.284  0.00  0.00    -0.166 F 
ATOM     29  F   UNL     1       3.043  -1.679   1.253  0.00  0.00    -0.166 F 
ATOM     30  F   UNL     1       1.451  -0.509   2.400  0.00  0.00    -0.166 F 
ENDBRANCH   4  27
BRANCH   4  31
ATOM     31  O   UNL     1       1.680  -1.221  -1.170  0.00  0.00    -0.363 OA
ATOM     32  H   UNL     1       1.147  -2.023  -1.256  0.00  0.00    +0.212 HD
ENDBRANCH   4  31
TORSDOF 6
