REMARK  Name = ZINC01735272
REMARK  4 active torsions:
REMARK  status: ('A' for Active; 'I' for Inactive)
REMARK    1  A    between atoms: C_1  and  C_2
REMARK    2  A    between atoms: C_2  and  C_9
REMARK    3  A    between atoms: C_12  and  S_15
REMARK    4  A    between atoms: S_15  and  N_18
REMARK                            x       y       z     vdW  Elec       q    Type
REMARK                         _______ _______ _______ _____ _____    ______ ____
ROOT
ATOM      1  C   UNL     1      -3.343   4.156  -1.193  0.00  0.00    -0.004 A 
ATOM      2  C   UNL     1      -2.513   5.108  -1.756  0.00  0.00    +0.009 A 
ATOM      3  C   UNL     1      -2.917   5.796  -2.885  0.00  0.00    +0.029 A 
ATOM      4  C   UNL     1      -4.153   5.539  -3.446  0.00  0.00    +0.105 A 
ATOM      5  C   UNL     1      -4.985   4.590  -2.880  0.00  0.00    +0.029 A 
ATOM      6  C   UNL     1      -4.580   3.899  -1.754  0.00  0.00    +0.009 A 
ENDROOT
BRANCH   1   8
ATOM      7  C   UNL     1      -3.336   4.153   1.295  0.00  0.00    +0.061 C 
ATOM      8  C   UNL     1      -2.901   3.402   0.035  0.00  0.00    +0.140 C 
ATOM      9  C   UNL     1      -1.373   3.227   0.032  0.00  0.00    +0.094 C 
ATOM     10  C   UNL     1      -1.174   1.726   0.017  0.00  0.00    +0.034 C 
ATOM     11  C   UNL     1      -0.013   1.076   0.008  0.00  0.00    +0.019 C 
ATOM     12  C   UNL     1      -2.515   1.128   0.021  0.00  0.00    +0.336 C 
ATOM     13  O   UNL     1      -2.732  -0.068   0.015  0.00  0.00    -0.245 OA
ATOM     14  O   UNL     1      -3.469   2.068   0.031  0.00  0.00    -0.450 OA
ENDBRANCH   1   8
BRANCH   4  15
ATOM     15  S   UNL     1      -4.670   6.420  -4.881  0.00  0.00    +0.061 S 
ATOM     16  O   UNL     1      -3.488   6.862  -5.534  0.00  0.00    -0.153 OA
ATOM     17  O   UNL     1      -5.640   5.608  -5.529  0.00  0.00    -0.153 OA
BRANCH  15  18
ATOM     18  N   UNL     1      -5.461   7.779  -4.363  0.00  0.00    -0.177 NA
ATOM     19  C   UNL     1      -6.904   7.883  -4.099  0.00  0.00    +0.109 C 
ATOM     20  C   UNL     1      -7.187   9.336  -3.663  0.00  0.00    +0.018 C 
ATOM     21  C   UNL     1      -5.985  10.115  -4.258  0.00  0.00    +0.018 C 
ATOM     22  C   UNL     1      -4.837   9.088  -4.096  0.00  0.00    +0.109 C 
ENDBRANCH  15  18
ENDBRANCH   4  15
TORSDOF 3
