REMARK  Name = ZINC54808060
REMARK  8 active torsions:
REMARK  status: ('A' for Active; 'I' for Inactive)
REMARK    1  A    between atoms: C_1  and  C_2
REMARK    2  A    between atoms: C_2  and  C_4
REMARK    3  A    between atoms: C_2  and  N_19
REMARK    4  A    between atoms: C_7  and  N_10
REMARK    5  A    between atoms: N_19  and  C_20
REMARK    6  A    between atoms: N_23  and  C_24
REMARK    7  A    between atoms: C_24  and  C_25
REMARK    8  A    between atoms: N_28  and  C_30
REMARK                            x       y       z     vdW  Elec       q    Type
REMARK                         _______ _______ _______ _____ _____    ______ ____
ROOT
ATOM      1  C   UNL     1      -0.473   1.353   0.115  0.00  0.00    +0.033 C 
ATOM      2  C   UNL     1      -0.059  -0.119   0.061  0.00  0.00    +0.104 C 
ENDROOT
BRANCH   2   3
ATOM      3  C   UNL     1      -1.285  -0.990   0.154  0.00  0.00    -0.027 A 
ATOM      4  C   UNL     1      -1.638  -1.800  -0.910  0.00  0.00    +0.007 A 
ATOM      5  C   UNL     1      -2.762  -2.599  -0.828  0.00  0.00    +0.026 A 
ATOM      6  C   UNL     1      -3.537  -2.588   0.324  0.00  0.00    +0.048 A 
ATOM      7  C   UNL     1      -3.180  -1.774   1.390  0.00  0.00    +0.026 A 
ATOM      8  C   UNL     1      -2.052  -0.981   1.304  0.00  0.00    +0.007 A 
BRANCH   6   9
ATOM      9  N   UNL     1      -4.678  -3.397   0.410  0.00  0.00    -0.299 N 
ATOM     10  C   UNL     1      -5.676  -3.488  -0.514  0.00  0.00    +0.205 A 
ATOM     11  N   UNL     1      -6.579  -4.334  -0.114  0.00  0.00    -0.235 NA
ATOM     12  C   UNL     1      -6.224  -4.846   1.093  0.00  0.00    +0.089 A 
ATOM     13  C   UNL     1      -4.998  -4.257   1.444  0.00  0.00    +0.073 A 
ATOM     14  C   UNL     1      -4.383  -4.598   2.640  0.00  0.00    +0.028 A 
ATOM     15  C   UNL     1      -4.977  -5.517   3.479  0.00  0.00    +0.002 A 
ATOM     16  C   UNL     1      -6.186  -6.103   3.136  0.00  0.00    +0.002 A 
ATOM     17  C   UNL     1      -6.815  -5.772   1.957  0.00  0.00    +0.030 A 
ENDBRANCH   6   9
ENDBRANCH   2   3
BRANCH   2  18
ATOM     18  N   UNL     1       0.837  -0.415   1.182  0.00  0.00    -0.282 N 
ATOM     19  C   UNL     1       0.424  -0.102   2.552  0.00  0.00    +0.134 C 
ATOM     20  C   UNL     1       2.040  -0.977   0.953  0.00  0.00    +0.303 C 
ATOM     21  O   UNL     1       2.383  -1.237  -0.185  0.00  0.00    -0.253 OA
ATOM     22  N   UNL     1       2.864  -1.250   1.984  0.00  0.00    -0.295 N 
ATOM     23  H   UNL     1       2.591  -1.042   2.891  0.00  0.00    +0.151 HD
BRANCH  22  24
ATOM     24  C   UNL     1       4.172  -1.860   1.734  0.00  0.00    +0.144 C 
BRANCH  24  25
ATOM     25  C   UNL     1       4.891  -2.060   3.044  0.00  0.00    +0.007 A 
ATOM     26  C   UNL     1       5.740  -1.138   3.665  0.00  0.00    +0.139 A 
ATOM     27  N   UNL     1       6.172  -1.668   4.781  0.00  0.00    -0.180 NA
ATOM     28  N   UNL     1       5.611  -2.946   4.905  0.00  0.00    -0.274 N 
ATOM     29  C   UNL     1       4.824  -3.160   3.829  0.00  0.00    +0.113 A 
ATOM     30  C   UNL     1       5.833  -3.882   6.010  0.00  0.00    +0.172 C 
ENDBRANCH  24  25
ENDBRANCH  22  24
ENDBRANCH   2  18
TORSDOF 5
