REMARK  Name = ZINC45556740
REMARK  5 active torsions:
REMARK  status: ('A' for Active; 'I' for Inactive)
REMARK    1  A    between atoms: C_1  and  C_2
REMARK    2  A    between atoms: C_9  and  C_13
REMARK    3  A    between atoms: C_13  and  O_14
REMARK    4  A    between atoms: O_14  and  C_15
REMARK    5  A    between atoms: C_15  and  C_17
REMARK                            x       y       z     vdW  Elec       q    Type
REMARK                         _______ _______ _______ _____ _____    ______ ____
ROOT
ATOM      1  O   UNL     1       1.309  -4.559   4.314  0.00  0.00    -0.455 OA
ENDROOT
BRANCH   1   2
ATOM      2  C   UNL     1       1.484  -5.144   5.516  0.00  0.00    +0.340 C 
ATOM      3  O   UNL     1       0.623  -5.873   5.967  0.00  0.00    -0.245 OA
BRANCH   2   4
ATOM      4  C   UNL     1       2.719  -4.900   6.282  0.00  0.00    +0.059 A 
ATOM      5  C   UNL     1       3.709  -4.057   5.767  0.00  0.00    +0.017 A 
ATOM      6  C   UNL     1       4.861  -3.831   6.486  0.00  0.00    +0.024 A 
ATOM      7  C   UNL     1       5.042  -4.440   7.724  0.00  0.00    +0.037 A 
ATOM      8  C   UNL     1       4.059  -5.280   8.239  0.00  0.00    -0.025 A 
ATOM      9  C   UNL     1       2.902  -5.506   7.529  0.00  0.00    +0.020 A 
ATOM     10  C   UNL     1       4.262  -5.936   9.580  0.00  0.00    +0.046 C 
ATOM     11  C   UNL     1       5.746  -6.254   9.773  0.00  0.00    +0.101 C 
ATOM     12  C   UNL     1       6.576  -5.044   9.438  0.00  0.00    +0.218 C 
ATOM     13  O   UNL     1       7.588  -4.819  10.068  0.00  0.00    -0.275 OA
ATOM     14  N   UNL     1       6.209  -4.209   8.450  0.00  0.00    -0.285 N 
ATOM     15  H   UNL     1       6.762  -3.440   8.240  0.00  0.00    +0.155 HD
ENDBRANCH   2   4
ENDBRANCH   1   2
BRANCH   1  16
ATOM     16  C   UNL     1       0.088  -4.841   3.627  0.00  0.00    +0.288 C 
BRANCH  16  25
ATOM     17  C   UNL     1      -0.018   1.503   0.010  0.00  0.00    +0.044 C 
ATOM     18  C   UNL     1       0.002  -0.004   0.002  0.00  0.00    -0.046 A 
ATOM     19  C   UNL     1       0.006  -0.703  -1.213  0.00  0.00    +0.021 A 
ATOM     20  C   UNL     1       0.025  -2.055  -1.219  0.00  0.00    +0.096 A 
ATOM     21  N   UNL     1       0.040  -2.756  -0.052  0.00  0.00    -0.268 N 
ATOM     22  C   UNL     1       0.037  -2.103   1.149  0.00  0.00    +0.141 A 
ATOM     23  C   UNL     1       0.023  -0.696   1.176  0.00  0.00    +0.050 A 
ATOM     24  N   UNL     1       0.053  -2.781   2.295  0.00  0.00    -0.231 NA
ATOM     25  C   UNL     1       0.071  -4.105   2.312  0.00  0.00    +0.086 A 
ATOM     26  C   UNL     1       0.075  -4.811   1.125  0.00  0.00    +0.097 A 
ATOM     27  C   UNL     1       0.059  -4.106  -0.083  0.00  0.00    +0.259 A 
ATOM     28  O   UNL     1       0.061  -4.701  -1.149  0.00  0.00    -0.267 OA
ENDBRANCH  16  25
ENDBRANCH   1  16
TORSDOF 4
