REMARK  Name = ZINC62750136
REMARK  3 active torsions:
REMARK  status: ('A' for Active; 'I' for Inactive)
REMARK    1  A    between atoms: C_1  and  C_2
REMARK    2  A    between atoms: N_8  and  C_9
REMARK    3  A    between atoms: C_16  and  C_18
REMARK                            x       y       z     vdW  Elec       q    Type
REMARK                         _______ _______ _______ _____ _____    ______ ____
ROOT
ATOM      1  C   UNL     1       0.907   0.397   2.076  0.00  0.00    -0.054 C 
ATOM      2  C   UNL     1       0.932   1.937   2.070  0.00  0.00    -0.014 C 
ATOM      3  C   UNL     1      -0.038   2.533   3.053  0.00  0.00    -0.002 C 
ATOM      4  C   UNL     1       0.711   2.812   4.372  0.00  0.00    -0.000 C 
ATOM      5  C   UNL     1       0.870   1.615   5.184  0.00  0.00    +0.001 C 
ATOM      6  C   UNL     1       1.706   0.530   4.475  0.00  0.00    +0.013 C 
ATOM      7  C   UNL     1       0.823  -0.191   3.498  0.00  0.00    +0.089 C 
ENDROOT
BRANCH   1  14
ATOM      8  C   UNL     1       0.701  -1.416  -0.058  0.00  0.00    -0.013 C 
ATOM      9  C   UNL     1       1.890  -1.448   0.904  0.00  0.00    -0.071 C 
ATOM     10  C   UNL     1       3.135  -1.937   0.160  0.00  0.00    -0.016 C 
ATOM     11  C   UNL     1       4.322  -1.968   1.126  0.00  0.00    -0.003 C 
ATOM     12  C   UNL     1       4.515  -0.572   1.726  0.00  0.00    -0.019 C 
ATOM     13  C   UNL     1       3.220  -0.134   2.413  0.00  0.00    -0.078 C 
ATOM     14  N   UNL     1       2.130  -0.099   1.431  0.00  0.00    +0.384 N 
ATOM     15  H   UNL     1       2.381   0.517   0.672  0.00  0.00    -0.081 HD
ENDBRANCH   1  14
BRANCH   7  16
ATOM     16  C   UNL     1       1.233  -1.640   3.451  0.00  0.00    +0.357 C 
ATOM     17  O   UNL     1       2.205  -2.019   4.083  0.00  0.00    -0.246 OA
ATOM     18  O   UNL     1       0.594  -2.434   2.782  0.00  0.00    -0.246 OA
ENDBRANCH   7  16
TORSDOF 2
