REMARK  Name = ZINC17057069
REMARK  5 active torsions:
REMARK  status: ('A' for Active; 'I' for Inactive)
REMARK    1  A    between atoms: C_1  and  C_2
REMARK    2  A    between atoms: C_2  and  C_3
REMARK    3  A    between atoms: C_3  and  C_4
REMARK    4  A    between atoms: C_20  and  C_23
REMARK    5  A    between atoms: C_20  and  C_24
REMARK                            x       y       z     vdW  Elec       q    Type
REMARK                         _______ _______ _______ _____ _____    ______ ____
ROOT
ATOM      1  C   UNL     1      -1.413  -2.041   0.005  0.00  0.00    +0.084 A 
ATOM      2  C   UNL     1      -1.409  -2.726  -1.211  0.00  0.00    +0.146 A 
ATOM      3  C   UNL     1      -1.388  -4.101  -1.219  0.00  0.00    +0.008 A 
ATOM      4  C   UNL     1      -1.375  -4.801   0.012  0.00  0.00    +0.040 A 
ATOM      5  C   UNL     1      -1.355  -6.260   0.216  0.00  0.00    +0.095 A 
ATOM      6  C   UNL     1      -1.344  -6.691   1.540  0.00  0.00    +0.104 A 
ATOM      7  C   UNL     1      -1.324  -8.056   1.859  0.00  0.00    +0.266 A 
ATOM      8  O   UNL     1      -1.315  -8.429   3.019  0.00  0.00    -0.267 OA
ATOM      9  N   UNL     1      -1.315  -8.948   0.839  0.00  0.00    -0.313 N 
ATOM     10  H   UNL     1      -1.302  -9.900   1.021  0.00  0.00    +0.170 HD
ATOM     11  C   UNL     1      -1.327  -8.493  -0.440  0.00  0.00    +0.199 A 
ATOM     12  N   UNL     1      -1.345  -7.232  -0.741  0.00  0.00    -0.236 NA
ATOM     13  S   UNL     1      -1.361  -5.202   2.500  0.00  0.00    -0.062 S 
ATOM     14  C   UNL     1      -1.381  -4.015   1.179  0.00  0.00    +0.112 A 
ATOM     15  N   UNL     1      -1.393  -2.700   1.145  0.00  0.00    -0.241 NA
ATOM     16  C   UNL     1      -1.374  -4.891  -2.499  0.00  0.00    +0.049 C 
ATOM     17  C   UNL     1      -1.820  -3.996  -3.659  0.00  0.00    +0.003 C 
ATOM     18  C   UNL     1      -1.049  -2.673  -3.570  0.00  0.00    +0.235 C 
ATOM     19  O   UNL     1      -1.430  -2.007  -2.365  0.00  0.00    -0.489 OA
ATOM     20  C   UNL     1      -1.512  -4.684  -4.990  0.00  0.00    +0.014 C 
ATOM     21  C   UNL     1      -3.323  -3.726  -3.553  0.00  0.00    +0.014 C 
ENDROOT
BRANCH   1  22
ATOM     22  C   UNL     1      -1.433  -0.534   0.013  0.00  0.00    +0.059 C 
BRANCH  22  24
ATOM     23  C   UNL     1      -0.019   1.526   0.010  0.00  0.00    +0.004 C 
ATOM     24  C   UNL     1       0.002  -0.004   0.002  0.00  0.00    +0.003 C 
ENDBRANCH  22  24
ENDBRANCH   1  22
TORSDOF 2
