REMARK  Name = ZINC65417460
REMARK  3 active torsions:
REMARK  status: ('A' for Active; 'I' for Inactive)
REMARK    1  A    between atoms: C_3  and  C_27
REMARK    2  A    between atoms: C_17  and  N_19
REMARK    3  A    between atoms: C_23  and  O_26
REMARK                            x       y       z     vdW  Elec       q    Type
REMARK                         _______ _______ _______ _____ _____    ______ ____
ROOT
ATOM      1  C   UNL     1      -0.003   1.414   0.115  0.00  0.00    +0.021 A 
ATOM      2  C   UNL     1       0.494   1.055  -1.125  0.00  0.00    +0.024 A 
ATOM      3  C   UNL     1       1.674   0.304  -1.177  0.00  0.00    +0.092 A 
ATOM      4  C   UNL     1       2.303  -0.052   0.029  0.00  0.00    +0.139 A 
ATOM      5  N   UNL     1       1.783   0.318   1.189  0.00  0.00    -0.239 NA
ATOM      6  C   UNL     1       0.672   1.026   1.258  0.00  0.00    +0.113 A 
ATOM      7  N   UNL     1       3.471  -0.794   0.004  0.00  0.00    -0.311 N 
ATOM      8  C   UNL     1       4.776  -0.131  -0.120  0.00  0.00    +0.125 C 
ATOM      9  C   UNL     1       5.663  -0.571   1.051  0.00  0.00    +0.127 C 
ATOM     10  N   UNL     1       5.620  -2.036   1.148  0.00  0.00    -0.297 N 
ATOM     11  C   UNL     1       4.314  -2.700   1.272  0.00  0.00    +0.127 C 
ATOM     12  C   UNL     1       3.428  -2.260   0.106  0.00  0.00    +0.125 C 
ATOM     13  C   UNL     1       6.788  -2.778   1.123  0.00  0.00    +0.220 A 
ATOM     14  N   UNL     1       7.950  -2.151   1.015  0.00  0.00    -0.223 NA
ATOM     15  C   UNL     1       9.089  -2.827   0.988  0.00  0.00    +0.118 A 
ATOM     16  C   UNL     1       9.059  -4.205   1.073  0.00  0.00    +0.063 A 
ATOM     17  C   UNL     1       7.820  -4.839   1.186  0.00  0.00    +0.126 A 
ATOM     18  N   UNL     1       6.716  -4.098   1.212  0.00  0.00    -0.199 NA
ENDROOT
BRANCH  17  19
ATOM     19  N   UNL     1       7.742  -6.219   1.274  0.00  0.00    -0.313 N 
ATOM     20  C   UNL     1       6.447  -6.905   1.156  0.00  0.00    +0.106 C 
ATOM     21  C   UNL     1       6.555  -7.976   0.066  0.00  0.00    +0.021 C 
ATOM     22  C   UNL     1       7.731  -8.903   0.381  0.00  0.00    +0.034 C 
ATOM     23  C   UNL     1       9.030  -8.095   0.394  0.00  0.00    +0.132 C 
ATOM     24  C   UNL     1       8.952  -7.026   1.481  0.00  0.00    +0.137 C 
BRANCH  23  25
ATOM     25  O   UNL     1      10.132  -8.967   0.657  0.00  0.00    -0.390 OA
ATOM     26  H   UNL     1      10.240  -9.671   0.004  0.00  0.00    +0.210 HD
ENDBRANCH  23  25
ENDBRANCH  17  19
BRANCH   3  27
ATOM     27  C   UNL     1       2.231  -0.094  -2.435  0.00  0.00    +0.103 C 
ATOM     28  N   UNL     1       2.672  -0.410  -3.432  0.00  0.00    -0.191 NA
ENDBRANCH   3  27
TORSDOF 3
