REMARK  Name = ZINC01443119
REMARK  7 active torsions:
REMARK  status: ('A' for Active; 'I' for Inactive)
REMARK    1  A    between atoms: C_1  and  C_2
REMARK    2  A    between atoms: C_2  and  C_3
REMARK    3  A    between atoms: C_2  and  N_4
REMARK    4  A    between atoms: C_5  and  C_19
REMARK    5  A    between atoms: N_9  and  C_12
REMARK    6  A    between atoms: C_19  and  C_20
REMARK    7  A    between atoms: N_22  and  C_23
REMARK                            x       y       z     vdW  Elec       q    Type
REMARK                         _______ _______ _______ _____ _____    ______ ____
ROOT
ATOM      1  N   UNL     1       1.222   1.649  -0.139  0.00  0.00    -0.270 N 
ATOM      2  C   UNL     1       2.500   0.936   0.024  0.00  0.00    +0.173 C 
ATOM      3  C   UNL     1       3.538   2.035  -0.084  0.00  0.00    +0.248 C 
ATOM      4  O   UNL     1       4.742   1.916  -0.009  0.00  0.00    -0.273 OA
ATOM      5  N   UNL     1       2.844   3.174  -0.279  0.00  0.00    -0.193 N 
ATOM      6  C   UNL     1       1.526   2.948  -0.315  0.00  0.00    +0.316 C 
ATOM      7  O   UNL     1       0.695   3.819  -0.484  0.00  0.00    -0.252 OA
ENDROOT
BRANCH   5   8
ATOM      8  C   UNL     1       3.431   4.439  -0.431  0.00  0.00    +0.046 A 
ATOM      9  C   UNL     1       2.632   5.572  -0.505  0.00  0.00    +0.027 A 
ATOM     10  C   UNL     1       3.212   6.817  -0.648  0.00  0.00    +0.040 A 
ATOM     11  C   UNL     1       4.590   6.934  -0.730  0.00  0.00    +0.124 A 
ATOM     12  C   UNL     1       5.388   5.805  -0.663  0.00  0.00    +0.040 A 
ATOM     13  C   UNL     1       4.811   4.559  -0.513  0.00  0.00    +0.027 A 
ATOM     14  F   UNL     1       5.155   8.152  -0.877  0.00  0.00    -0.205 F 
ENDBRANCH   5   8
BRANCH   1  16
ATOM     15  C   UNL     1      -0.859   1.430  -1.406  0.00  0.00    +0.028 C 
ATOM     16  C   UNL     1      -0.119   1.059  -0.119  0.00  0.00    +0.072 C 
ATOM     17  C   UNL     1      -0.894   1.594   1.087  0.00  0.00    +0.028 C 
ENDBRANCH   1  16
BRANCH   2  18
ATOM     18  C   UNL     1       2.688  -0.093  -1.093  0.00  0.00    +0.128 C 
BRANCH  18  19
ATOM     19  C   UNL     1       3.926  -0.909  -0.822  0.00  0.00    +0.219 C 
ATOM     20  O   UNL     1       4.537  -0.756   0.215  0.00  0.00    -0.275 OA
ATOM     21  N   UNL     1       4.353  -1.808  -1.730  0.00  0.00    -0.285 N 
ATOM     22  H   UNL     1       3.828  -1.978  -2.528  0.00  0.00    +0.155 HD
BRANCH  21  23
ATOM     23  C   UNL     1       5.555  -2.495  -1.523  0.00  0.00    +0.034 A 
ATOM     24  C   UNL     1       6.366  -2.819  -2.603  0.00  0.00    +0.026 A 
ATOM     25  C   UNL     1       7.554  -3.491  -2.396  0.00  0.00    +0.040 A 
ATOM     26  C   UNL     1       7.931  -3.854  -1.114  0.00  0.00    +0.124 A 
ATOM     27  C   UNL     1       7.122  -3.537  -0.036  0.00  0.00    +0.040 A 
ATOM     28  C   UNL     1       5.936  -2.859  -0.238  0.00  0.00    +0.026 A 
ATOM     29  F   UNL     1       9.092  -4.517  -0.914  0.00  0.00    -0.205 F 
ENDBRANCH  21  23
ENDBRANCH  18  19
ENDBRANCH   2  18
TORSDOF 5
