REMARK  Name = ZINC40330405
REMARK  3 active torsions:
REMARK  status: ('A' for Active; 'I' for Inactive)
REMARK    1  A    between atoms: C_3  and  N_23
REMARK    2  A    between atoms: C_4  and  S_8
REMARK    3  A    between atoms: S_8  and  N_11
REMARK                            x       y       z     vdW  Elec       q    Type
REMARK                         _______ _______ _______ _____ _____    ______ ____
ROOT
ATOM      1  S   UNL     1       3.897  -1.055  -0.245  0.00  0.00    +0.063 S 
ATOM      2  O   UNL     1       4.728  -0.594   0.811  0.00  0.00    -0.153 OA
ATOM      3  O   UNL     1       3.561  -2.426  -0.406  0.00  0.00    -0.153 OA
ENDROOT
BRANCH   1   4
ATOM      4  N   UNL     1       4.618  -0.576  -1.657  0.00  0.00    -0.169 NA
ATOM      5  C   UNL     1       4.228  -1.163  -2.950  0.00  0.00    +0.138 C 
ATOM      6  C   UNL     1       3.929  -0.027  -3.933  0.00  0.00    +0.177 C 
ATOM      7  O   UNL     1       5.029   0.887  -3.952  0.00  0.00    -0.374 OA
ATOM      8  C   UNL     1       5.281   1.516  -2.696  0.00  0.00    +0.137 C 
ATOM      9  C   UNL     1       5.670   0.458  -1.666  0.00  0.00    +0.109 C 
ATOM     10  C   UNL     1       6.987  -0.199  -2.084  0.00  0.00    +0.023 C 
ATOM     11  C   UNL     1       8.082   0.862  -2.196  0.00  0.00    +0.002 C 
ATOM     12  C   UNL     1       7.683   1.890  -3.257  0.00  0.00    +0.003 C 
ATOM     13  C   UNL     1       6.396   2.548  -2.830  0.00  0.00    +0.033 C 
ENDBRANCH   1   4
BRANCH   1  17
ATOM     14  C   UNL     1      -0.014   1.209   0.097  0.00  0.00    +0.022 A 
ATOM     15  C   UNL     1       1.184   1.892   0.177  0.00  0.00    +0.026 A 
ATOM     16  C   UNL     1       2.384   1.202   0.072  0.00  0.00    +0.051 A 
ATOM     17  C   UNL     1       2.377  -0.175  -0.112  0.00  0.00    +0.127 A 
ATOM     18  C   UNL     1       1.177  -0.853  -0.191  0.00  0.00    +0.050 A 
ATOM     19  C   UNL     1      -0.018  -0.163  -0.087  0.00  0.00    +0.043 A 
ATOM     20 CL   UNL     1      -1.525  -1.018  -0.187  0.00  0.00    -0.083 Cl
BRANCH  16  21
ATOM     21  N   UNL     1       3.598   1.891   0.152  0.00  0.00    -0.356 N 
ATOM     22  H   UNL     1       3.606   2.861   0.148  0.00  0.00    +0.142 HD
ATOM     23  H   UNL     1       4.431   1.399   0.212  0.00  0.00    +0.142 HD
ENDBRANCH  16  21
ENDBRANCH   1  17
TORSDOF 3
