REMARK  Name = ZINC04483922
REMARK  3 active torsions:
REMARK  status: ('A' for Active; 'I' for Inactive)
REMARK    1  A    between atoms: C_4  and  C_7
REMARK    2  A    between atoms: C_7  and  N_8
REMARK    3  A    between atoms: N_15  and  C_18
REMARK                            x       y       z     vdW  Elec       q    Type
REMARK                         _______ _______ _______ _____ _____    ______ ____
ROOT
ATOM      1  N   UNL     1       4.082  -1.050   1.338  0.00  0.00    -0.219 N 
ATOM      2  C   UNL     1       3.757  -2.305   2.039  0.00  0.00    +0.216 C 
ATOM      3  C   UNL     1       4.399  -2.076   3.435  0.00  0.00    +0.246 C 
ATOM      4  C   UNL     1       3.205  -2.024   4.362  0.00  0.00    +0.255 C 
ATOM      5  O   UNL     1       3.257  -1.863   5.563  0.00  0.00    -0.272 OA
ATOM      6  N   UNL     1       2.083  -2.184   3.652  0.00  0.00    -0.205 N 
ATOM      7  C   UNL     1       2.273  -2.357   2.319  0.00  0.00    +0.251 C 
ATOM      8  O   UNL     1       1.408  -2.525   1.486  0.00  0.00    -0.273 OA
ATOM      9  N   UNL     1       5.013  -0.747   3.322  0.00  0.00    -0.156 NA
ATOM     10  N   UNL     1       4.811  -0.252   2.219  0.00  0.00    -0.082 NA
ENDROOT
BRANCH   6  11
ATOM     11  C   UNL     1       0.808  -2.180   4.236  0.00  0.00    +0.062 A 
ATOM     12  C   UNL     1       0.104  -0.990   4.362  0.00  0.00    +0.025 A 
ATOM     13  C   UNL     1      -1.151  -0.990   4.939  0.00  0.00    +0.002 A 
ATOM     14  C   UNL     1      -1.708  -2.173   5.390  0.00  0.00    +0.002 A 
ATOM     15  C   UNL     1      -1.010  -3.360   5.266  0.00  0.00    +0.022 A 
ATOM     16  C   UNL     1       0.244  -3.368   4.685  0.00  0.00    +0.063 A 
ATOM     17 CL   UNL     1       1.117  -4.860   4.523  0.00  0.00    -0.082 Cl
ENDBRANCH   6  11
BRANCH   1  18
ATOM     18  C   UNL     1       3.711  -0.707  -0.038  0.00  0.00    +0.163 C 
BRANCH  18  22
ATOM     19  C   UNL     1       6.680  -2.189  -2.727  0.00  0.00    +0.000 A 
ATOM     20  C   UNL     1       5.548  -2.938  -2.467  0.00  0.00    +0.000 A 
ATOM     21  C   UNL     1       4.587  -2.458  -1.597  0.00  0.00    +0.005 A 
ATOM     22  C   UNL     1       4.759  -1.230  -0.986  0.00  0.00    -0.029 A 
ATOM     23  C   UNL     1       5.892  -0.482  -1.245  0.00  0.00    +0.005 A 
ATOM     24  C   UNL     1       6.852  -0.961  -2.116  0.00  0.00    +0.000 A 
ENDBRANCH  18  22
ENDBRANCH   1  18
TORSDOF 3
