REMARK  Name = ZINC00897016
REMARK  2 active torsions:
REMARK  status: ('A' for Active; 'I' for Inactive)
REMARK    1  A    between atoms: C_1  and  N_34
REMARK    2  A    between atoms: C_3  and  C_20
REMARK                            x       y       z     vdW  Elec       q    Type
REMARK                         _______ _______ _______ _____ _____    ______ ____
ROOT
ATOM      1  C   UNL     1       2.469   7.922   1.338  0.00  0.00    -0.095 C 
ATOM      2  C   UNL     1       0.136   8.075   0.718  0.00  0.00    -0.059 C 
ATOM      3  C   UNL     1      -0.854   7.668  -0.379  0.00  0.00    +0.109 C 
ATOM      4  C   UNL     1      -0.965   6.167  -0.383  0.00  0.00    -0.012 C 
ATOM      5  C   UNL     1       0.014   5.397   0.056  0.00  0.00    -0.056 C 
ATOM      6  C   UNL     1       1.311   5.943   0.592  0.00  0.00    -0.033 C 
ATOM      7  C   UNL     1       2.553   5.289  -0.029  0.00  0.00    +0.026 C 
ATOM      8  C   UNL     1       2.391   3.791  -0.011  0.00  0.00    -0.023 A 
ATOM      9  C   UNL     1       3.222   2.755  -0.016  0.00  0.00    +0.087 A 
ATOM     10  N   UNL     1       2.509   1.566  -0.008  0.00  0.00    -0.360 N 
ATOM     11  H   UNL     1       2.907   0.681  -0.008  0.00  0.00    +0.165 HD
ATOM     12  C   UNL     1       1.169   1.815   0.001  0.00  0.00    +0.047 A 
ATOM     13  C   UNL     1       1.054   3.208   0.007  0.00  0.00    +0.010 A 
ATOM     14  C   UNL     1      -0.156   3.931   0.030  0.00  0.00    -0.014 A 
ATOM     15  C   UNL     1      -1.304   3.171   0.034  0.00  0.00    +0.009 A 
ATOM     16  C   UNL     1      -1.211   1.781   0.017  0.00  0.00    +0.003 A 
ATOM     17  C   UNL     1      -0.013   1.076   0.008  0.00  0.00    +0.026 A 
ATOM     18  N   UNL     1       1.430   7.408   0.435  0.00  0.00    +0.383 N 
ATOM     19  H   UNL     1       1.700   7.614  -0.533  0.00  0.00    -0.081 HD
ENDROOT
BRANCH   3  20
ATOM     20  C   UNL     1      -2.204   8.276  -0.095  0.00  0.00    +0.361 C 
ATOM     21  O   UNL     1      -2.357   8.982   0.873  0.00  0.00    -0.246 OA
ATOM     22  O   UNL     1      -3.235   8.033  -0.919  0.00  0.00    -0.246 OA
ENDBRANCH   3  20
TORSDOF 1
