REMARK  Name = ZINC06292096
REMARK  6 active torsions:
REMARK  status: ('A' for Active; 'I' for Inactive)
REMARK    1  A    between atoms: C_1  and  C_2
REMARK    2  A    between atoms: C_9  and  S_12
REMARK    3  A    between atoms: S_12  and  C_13
REMARK    4  A    between atoms: C_13  and  C_14
REMARK    5  A    between atoms: N_16  and  C_17
REMARK    6  A    between atoms: C_22  and  N_23
REMARK                            x       y       z     vdW  Elec       q    Type
REMARK                         _______ _______ _______ _____ _____    ______ ____
ROOT
ATOM      1  C   UNL     1       5.543   2.968  -0.047  0.00  0.00    +0.228 C 
ATOM      2  O   UNL     1       6.352   2.064  -0.051  0.00  0.00    -0.275 OA
ATOM      3  N   UNL     1       5.964   4.248  -0.041  0.00  0.00    -0.283 N 
ATOM      4  H   UNL     1       5.320   4.971  -0.104  0.00  0.00    +0.155 HD
ENDROOT
BRANCH   3   5
ATOM      5  C   UNL     1       7.330   4.535   0.059  0.00  0.00    +0.061 A 
ATOM      6  C   UNL     1       8.262   3.703  -0.544  0.00  0.00    +0.045 A 
ATOM      7  C   UNL     1       9.611   3.991  -0.449  0.00  0.00    +0.043 A 
ATOM      8  C   UNL     1      10.036   5.104   0.257  0.00  0.00    +0.022 A 
ATOM      9  C   UNL     1       9.114   5.935   0.865  0.00  0.00    +0.031 A 
ATOM     10  C   UNL     1       7.759   5.656   0.769  0.00  0.00    +0.088 A 
ATOM     11 CL   UNL     1      10.774   2.952  -1.209  0.00  0.00    -0.083 Cl
BRANCH  10  12
ATOM     12  N   UNL     1       6.822   6.498   1.386  0.00  0.00    -0.218 N 
ATOM     13  C   UNL     1       7.075   7.659   2.022  0.00  0.00    +0.225 A 
ATOM     14  N   UNL     1       5.938   8.140   2.454  0.00  0.00    -0.222 NA
ATOM     15  C   UNL     1       4.943   7.317   2.124  0.00  0.00    +0.245 A 
ATOM     16  N   UNL     1       5.435   6.297   1.469  0.00  0.00    -0.153 NA
ENDBRANCH  10  12
ENDBRANCH   3   5
BRANCH   1  17
ATOM     17  C   UNL     1       4.068   2.659  -0.051  0.00  0.00    +0.173 C 
BRANCH  17  18
ATOM     18  S   UNL     1       3.827   0.866  -0.060  0.00  0.00    -0.079 S 
BRANCH  18  27
ATOM     19  C   UNL     1      -3.743   2.103  -0.062  0.00  0.00    +0.044 C 
ATOM     20  C   UNL     1      -2.423   1.376  -0.065  0.00  0.00    -0.048 A 
ATOM     21  C   UNL     1      -2.401  -0.011  -0.072  0.00  0.00    +0.005 A 
ATOM     22  C   UNL     1      -1.201  -0.691  -0.075  0.00  0.00    +0.028 A 
ATOM     23  C   UNL     1      -0.007   0.015  -0.070  0.00  0.00    +0.067 A 
ATOM     24  C   UNL     1      -0.024   1.419  -0.062  0.00  0.00    +0.090 A 
ATOM     25  C   UNL     1      -1.248   2.093  -0.055  0.00  0.00    +0.033 A 
ATOM     26  N   UNL     1       1.270   1.835  -0.059  0.00  0.00    -0.222 NA
ATOM     27  C   UNL     1       2.066   0.794  -0.064  0.00  0.00    +0.168 A 
ATOM     28  N   UNL     1       1.327  -0.356  -0.070  0.00  0.00    -0.333 N 
ATOM     29  H   UNL     1       1.684  -1.290  -0.075  0.00  0.00    +0.168 HD
ENDBRANCH  18  27
ENDBRANCH  17  18
ENDBRANCH   1  17
TORSDOF 5
