REMARK  Name = ZINC48558813
REMARK  7 active torsions:
REMARK  status: ('A' for Active; 'I' for Inactive)
REMARK    1  A    between atoms: C_1  and  C_2
REMARK    2  A    between atoms: C_3  and  C_8
REMARK    3  A    between atoms: C_4  and  C_7
REMARK    4  A    between atoms: C_8  and  N_9
REMARK    5  A    between atoms: N_9  and  C_10
REMARK    6  A    between atoms: N_9  and  C_11
REMARK    7  A    between atoms: C_16  and  N_17
REMARK                            x       y       z     vdW  Elec       q    Type
REMARK                         _______ _______ _______ _____ _____    ______ ____
ROOT
ATOM      1  N   UNL     1       1.371  -0.174  -3.041  0.00  0.00    -0.327 N 
ATOM      2  C   UNL     1       2.075  -1.292  -3.676  0.00  0.00    +0.129 C 
ENDROOT
BRANCH   1   3
ATOM      3  C   UNL     1       2.014   1.056  -2.882  0.00  0.00    +0.060 A 
ATOM      4  C   UNL     1       2.749   1.315  -1.732  0.00  0.00    +0.026 A 
ATOM      5  C   UNL     1       3.383   2.532  -1.579  0.00  0.00    +0.016 A 
ATOM      6  C   UNL     1       3.286   3.493  -2.569  0.00  0.00    +0.016 A 
ATOM      7  C   UNL     1       2.554   3.239  -3.715  0.00  0.00    +0.049 A 
ATOM      8  C   UNL     1       1.923   2.021  -3.877  0.00  0.00    +0.148 A 
ATOM      9  I   UNL     1       4.248   5.339  -2.332  0.00  0.00    -0.044 I 
BRANCH   8  10
ATOM     10  N   UNL     1       1.145   1.748  -5.106  0.00  0.00    +0.058 N 
ATOM     11  O   UNL     1       1.067   2.588  -5.971  0.00  0.00    -0.126 OA
ATOM     12  O   UNL     1       0.589   0.683  -5.245  0.00  0.00    -0.126 OA
ENDBRANCH   8  10
ENDBRANCH   1   3
BRANCH   1  13
ATOM     13  C   UNL     1      -0.005  -0.348  -2.571  0.00  0.00    +0.145 C 
BRANCH  13  16
ATOM     14  C   UNL     1      -0.018   1.503   0.010  0.00  0.00    +0.069 C 
ATOM     15  C   UNL     1       0.002  -0.004   0.002  0.00  0.00    +0.085 A 
ATOM     16  C   UNL     1       0.008  -0.824  -1.141  0.00  0.00    +0.034 A 
ATOM     17  C   UNL     1       0.027  -2.108  -0.735  0.00  0.00    +0.139 A 
ATOM     18  O   UNL     1       0.034  -2.119   0.606  0.00  0.00    -0.359 OA
ATOM     19  N   UNL     1       0.023  -0.775   1.052  0.00  0.00    -0.083 NA
ATOM     20  C   UNL     1       0.039  -3.320  -1.631  0.00  0.00    +0.089 C 
ENDBRANCH  13  16
ENDBRANCH   1  13
TORSDOF 4
