REMARK  Name = ZINC36646807
REMARK  8 active torsions:
REMARK  status: ('A' for Active; 'I' for Inactive)
REMARK    1  A    between atoms: C_1  and  C_2
REMARK    2  A    between atoms: C_3  and  C_28
REMARK    3  A    between atoms: C_5  and  N_9
REMARK    4  A    between atoms: C_6  and  C_7
REMARK    5  A    between atoms: C_10  and  C_12
REMARK    6  A    between atoms: C_12  and  N_13
REMARK    7  A    between atoms: N_16  and  C_19
REMARK    8  A    between atoms: C_19  and  C_20
REMARK                            x       y       z     vdW  Elec       q    Type
REMARK                         _______ _______ _______ _____ _____    ______ ____
ROOT
ATOM      1  N   UNL     1       0.104  -6.971   0.650  0.00  0.00    -0.298 NA
ATOM      2  C   UNL     1      -1.154  -7.059  -0.104  0.00  0.00    +0.066 C 
ATOM      3  C   UNL     1      -1.078  -8.232  -1.084  0.00  0.00    -0.063 C 
ATOM      4  N   UNL     1      -0.844  -9.476  -0.340  0.00  0.00    +0.387 N 
ATOM      5  C   UNL     1       0.428  -9.383   0.388  0.00  0.00    -0.063 C 
ATOM      6  C   UNL     1       0.364  -8.220   1.380  0.00  0.00    +0.066 C 
ATOM      7  H   UNL     1      -1.597  -9.622   0.316  0.00  0.00    -0.081 HD
ENDROOT
BRANCH   1   8
ATOM      8  C   UNL     1       0.092  -5.820   1.563  0.00  0.00    +0.180 C 
BRANCH   8  10
ATOM      9  N   UNL     1       0.056  -3.353   1.393  0.00  0.00    -0.254 N 
ATOM     10  C   UNL     1       0.070  -4.543   0.762  0.00  0.00    +0.233 C 
ATOM     11  O   UNL     1       0.066  -4.588  -0.450  0.00  0.00    -0.274 OA
ATOM     12  H   UNL     1       0.060  -3.317   2.362  0.00  0.00    +0.158 HD
BRANCH   9  17
ATOM     13  C   UNL     1      -0.018   1.503   0.010  0.00  0.00    +0.049 C 
ATOM     14  C   UNL     1       0.002  -0.004   0.002  0.00  0.00    +0.010 A 
ATOM     15  C   UNL     1       0.008  -0.804  -1.074  0.00  0.00    +0.109 A 
ATOM     16  O   UNL     1       0.028  -2.088  -0.680  0.00  0.00    -0.445 OA
ATOM     17  C   UNL     1       0.036  -2.180   0.657  0.00  0.00    +0.210 A 
ATOM     18  C   UNL     1       0.026  -0.894   1.173  0.00  0.00    +0.115 A 
ATOM     19  C   UNL     1      -0.006  -0.334  -2.506  0.00  0.00    +0.086 C 
BRANCH  18  20
ATOM     20  C   UNL     1       0.034  -0.513   2.554  0.00  0.00    +0.105 C 
ATOM     21  N   UNL     1       0.040  -0.211   3.648  0.00  0.00    -0.191 NA
ENDBRANCH  18  20
ENDBRANCH   9  17
ENDBRANCH   8  10
ENDBRANCH   1   8
BRANCH   4  22
ATOM     22  C   UNL     1      -0.789 -10.605  -1.280  0.00  0.00    +0.019 C 
BRANCH  22  23
ATOM     23  C   UNL     1      -0.673 -11.895  -0.509  0.00  0.00    +0.199 C 
ATOM     24  O   UNL     1      -0.639 -11.876   0.703  0.00  0.00    -0.278 OA
ATOM     25  N   UNL     1      -0.606 -13.069  -1.167  0.00  0.00    -0.303 N 
ATOM     26  C   UNL     1      -0.639 -13.107  -2.635  0.00  0.00    +0.107 C 
ATOM     27  C   UNL     1       0.575 -13.896  -3.136  0.00  0.00    +0.019 C 
ATOM     28  C   UNL     1       0.592 -15.274  -2.471  0.00  0.00    +0.003 C 
ATOM     29  C   UNL     1       0.714 -15.110  -0.955  0.00  0.00    +0.019 C 
ATOM     30  C   UNL     1      -0.492 -14.335  -0.430  0.00  0.00    +0.107 C 
ENDBRANCH  22  23
ENDBRANCH   4  22
TORSDOF 6
