REMARK  Name = ZINC63328979
REMARK  10 active torsions:
REMARK  status: ('A' for Active; 'I' for Inactive)
REMARK    1  A    between atoms: C_1  and  C_2
REMARK    2  A    between atoms: C_2  and  C_3
REMARK    3  A    between atoms: C_2  and  C_4
REMARK    4  A    between atoms: C_4  and  C_5
REMARK    5  A    between atoms: C_5  and  C_7
REMARK    6  A    between atoms: C_5  and  N_11
REMARK    7  A    between atoms: C_7  and  O_9
REMARK    8  A    between atoms: O_9  and  C_10
REMARK    9  A    between atoms: C_20  and  O_28
REMARK   10  A    between atoms: O_28  and  C_29
REMARK                            x       y       z     vdW  Elec       q    Type
REMARK                         _______ _______ _______ _____ _____    ______ ____
ROOT
ATOM      1  N   UNL     1      -0.928  -2.538   1.287  0.00  0.00    -0.286 N 
ATOM      2  C   UNL     1      -0.354  -3.754   1.383  0.00  0.00    +0.303 C 
ATOM      3  O   UNL     1      -0.326  -4.491   0.417  0.00  0.00    -0.253 OA
ATOM      4  N   UNL     1       0.188  -4.153   2.551  0.00  0.00    -0.283 N 
ATOM      5  C   UNL     1       0.042  -3.311   3.743  0.00  0.00    +0.114 C 
ATOM      6  C   UNL     1      -0.646  -4.117   4.859  0.00  0.00    +0.052 C 
ATOM      7  C   UNL     1       0.029  -5.466   4.897  0.00  0.00    -0.035 C 
ATOM      8  C   UNL     1       0.573  -6.147   5.898  0.00  0.00    +0.003 A 
ATOM      9  C   UNL     1       0.624  -5.894   7.346  0.00  0.00    +0.055 A 
ATOM     10  C   UNL     1       1.294  -6.806   8.102  0.00  0.00    +0.121 A 
ATOM     11  C   UNL     1       1.924  -7.946   7.581  0.00  0.00    +0.047 A 
ATOM     12  C   UNL     1       1.932  -8.279   6.265  0.00  0.00    +0.029 A 
ATOM     13  C   UNL     1       1.230  -7.373   5.346  0.00  0.00    +0.043 A 
ATOM     14  N   UNL     1       1.053  -7.445   4.062  0.00  0.00    -0.376 N 
ATOM     15  C   UNL     1       0.217  -6.318   3.647  0.00  0.00    +0.124 C 
ATOM     16  C   UNL     1       0.914  -5.431   2.618  0.00  0.00    +0.138 C 
ATOM     17  H   UNL     1      -1.016  -1.980   2.075  0.00  0.00    +0.151 HD
ATOM     18  H   UNL     1       1.415  -8.129   3.476  0.00  0.00    +0.160 HD
ENDROOT
BRANCH  10  19
ATOM     19  O   UNL     1       1.359  -6.599   9.444  0.00  0.00    -0.495 OA
ATOM     20  C   UNL     1       2.068  -7.569  10.217  0.00  0.00    +0.277 C 
ENDBRANCH  10  19
BRANCH   1  21
ATOM     21  C   UNL     1      -1.420  -2.061  -0.008  0.00  0.00    +0.183 C 
BRANCH  21  22
ATOM     22  C   UNL     1      -2.817  -2.579  -0.237  0.00  0.00    +0.327 C 
ATOM     23  O   UNL     1      -3.347  -3.276   0.595  0.00  0.00    -0.249 OA
BRANCH  22  24
ATOM     24  O   UNL     1      -3.471  -2.267  -1.367  0.00  0.00    -0.467 OA
ATOM     25  C   UNL     1      -4.792  -2.793  -1.518  0.00  0.00    +0.280 C 
ENDBRANCH  22  24
ENDBRANCH  21  22
BRANCH  21  26
ATOM     26  C   UNL     1      -1.436  -0.531  -0.015  0.00  0.00    +0.036 C 
BRANCH  26  28
ATOM     27  C   UNL     1       0.792  -0.389  -1.137  0.00  0.00    +0.007 C 
ATOM     28  C   UNL     1      -0.005  -0.006   0.112  0.00  0.00    -0.015 C 
ATOM     29  C   UNL     1      -0.032   1.518   0.252  0.00  0.00    +0.007 C 
ENDBRANCH  26  28
ENDBRANCH  21  26
ENDBRANCH   1  21
TORSDOF 6
