REMARK  Name = ZINC47155607
REMARK  5 active torsions:
REMARK  status: ('A' for Active; 'I' for Inactive)
REMARK    1  A    between atoms: C_1  and  C_2
REMARK    2  A    between atoms: C_3  and  C_18
REMARK    3  A    between atoms: C_4  and  C_11
REMARK    4  A    between atoms: N_9  and  C_10
REMARK    5  A    between atoms: N_20  and  C_21
REMARK                            x       y       z     vdW  Elec       q    Type
REMARK                         _______ _______ _______ _____ _____    ______ ____
ROOT
ATOM      1  C   UNL     1      -0.596   1.621   1.518  0.00  0.00    +0.061 C 
ATOM      2  C   UNL     1      -0.371   0.209   1.041  0.00  0.00    +0.019 C 
ATOM      3  C   UNL     1      -1.434  -0.594   0.820  0.00  0.00    +0.056 C 
ATOM      4  C   UNL     1      -1.163  -2.006   0.341  0.00  0.00    +0.142 C 
ATOM      5  N   UNL     1       0.247  -2.388   0.154  0.00  0.00    -0.315 N 
ATOM      6  C   UNL     1       1.200  -1.472   0.417  0.00  0.00    +0.137 C 
ATOM      7  S   UNL     1       2.843  -1.903   0.205  0.00  0.00    -0.018 S 
ATOM      8  N   UNL     1       0.903  -0.235   0.835  0.00  0.00    -0.289 N 
ATOM      9  C   UNL     1       2.009   0.692   1.089  0.00  0.00    +0.137 C 
ATOM     10  H   UNL     1       0.484  -3.278  -0.150  0.00  0.00    +0.149 HD
ENDROOT
BRANCH   4  11
ATOM     11  C   UNL     1      -1.775  -2.959   1.335  0.00  0.00    +0.013 A 
ATOM     12  C   UNL     1      -2.026  -2.542   2.628  0.00  0.00    +0.008 A 
ATOM     13  C   UNL     1      -2.587  -3.416   3.540  0.00  0.00    +0.001 A 
ATOM     14  C   UNL     1      -2.898  -4.708   3.159  0.00  0.00    +0.003 A 
ATOM     15  C   UNL     1      -2.649  -5.127   1.867  0.00  0.00    +0.039 A 
ATOM     16  C   UNL     1      -2.091  -4.251   0.951  0.00  0.00    +0.129 A 
ATOM     17  F   UNL     1      -1.851  -4.658  -0.315  0.00  0.00    -0.205 F 
ENDBRANCH   4  11
BRANCH   3  18
ATOM     18  C   UNL     1      -2.756  -0.133   1.029  0.00  0.00    +0.248 C 
ATOM     19  O   UNL     1      -2.948   0.968   1.513  0.00  0.00    -0.270 OA
ATOM     20  N   UNL     1      -3.803  -0.912   0.693  0.00  0.00    -0.282 N 
ATOM     21  H   UNL     1      -3.652  -1.813   0.367  0.00  0.00    +0.155 HD
BRANCH  20  22
ATOM     22  C   UNL     1      -5.107  -0.422   0.814  0.00  0.00    +0.034 A 
ATOM     23  C   UNL     1      -5.392   0.892   0.468  0.00  0.00    +0.023 A 
ATOM     24  C   UNL     1      -6.681   1.373   0.589  0.00  0.00    +0.002 A 
ATOM     25  C   UNL     1      -7.688   0.547   1.054  0.00  0.00    +0.000 A 
ATOM     26  C   UNL     1      -7.408  -0.762   1.400  0.00  0.00    +0.002 A 
ATOM     27  C   UNL     1      -6.122  -1.251   1.276  0.00  0.00    +0.023 A 
ENDBRANCH  20  22
ENDBRANCH   3  18
TORSDOF 3
