REMARK  Name = ZINC21718933
REMARK  6 active torsions:
REMARK  status: ('A' for Active; 'I' for Inactive)
REMARK    1  A    between atoms: C_1  and  C_2
REMARK    2  A    between atoms: C_4  and  C_7
REMARK    3  A    between atoms: C_13  and  C_15
REMARK    4  A    between atoms: C_17  and  C_20
REMARK    5  A    between atoms: C_20  and  C_21
REMARK    6  A    between atoms: C_20  and  C_22
REMARK                            x       y       z     vdW  Elec       q    Type
REMARK                         _______ _______ _______ _____ _____    ______ ____
ROOT
ATOM      1  C   UNL     1      -1.482  -3.360  -0.010  0.00  0.00    +0.269 C 
ATOM      2  O   UNL     1      -2.692  -3.248  -0.003  0.00  0.00    -0.268 OA
ATOM      3  N   UNL     1      -0.918  -4.584  -0.020  0.00  0.00    -0.288 N 
ATOM      4  C   UNL     1       0.529  -4.863  -0.023  0.00  0.00    +0.109 C 
ATOM      5  C   UNL     1       0.660  -6.285   0.578  0.00  0.00    +0.021 C 
ATOM      6  C   UNL     1      -0.591  -6.989  -0.011  0.00  0.00    +0.030 C 
ATOM      7  C   UNL     1      -1.645  -5.862  -0.024  0.00  0.00    +0.129 C 
ENDROOT
BRANCH   1  11
ATOM      8  C   UNL     1      -0.018   1.503   0.010  0.00  0.00    +0.089 C 
ATOM      9  C   UNL     1       0.002  -0.004   0.002  0.00  0.00    +0.135 A 
ATOM     10  C   UNL     1      -1.077  -0.807   0.003  0.00  0.00    +0.080 A 
ATOM     11  C   UNL     1      -0.625  -2.149  -0.008  0.00  0.00    +0.168 A 
ATOM     12  N   UNL     1       0.685  -2.130  -0.014  0.00  0.00    -0.073 NA
ATOM     13  O   UNL     1       1.099  -0.775  -0.013  0.00  0.00    -0.359 OA
ENDBRANCH   1  11
BRANCH   7  14
ATOM     14  C   UNL     1      -2.490  -5.968  -1.268  0.00  0.00    +0.104 A 
ATOM     15  C   UNL     1      -3.894  -6.035  -1.309  0.00  0.00    +0.073 A 
ATOM     16  C   UNL     1      -4.271  -6.122  -2.599  0.00  0.00    +0.140 A 
ATOM     17  O   UNL     1      -3.163  -6.111  -3.357  0.00  0.00    -0.359 OA
ATOM     18  N   UNL     1      -2.046  -6.007  -2.492  0.00  0.00    -0.081 NA
BRANCH  16  19
ATOM     19  C   UNL     1      -5.688  -6.215  -3.104  0.00  0.00    +0.052 C 
ATOM     20  C   UNL     1      -5.983  -5.026  -4.019  0.00  0.00    +0.015 C 
ATOM     21  C   UNL     1      -5.866  -7.518  -3.886  0.00  0.00    +0.015 C 
ENDBRANCH  16  19
ENDBRANCH   7  14
TORSDOF 3
