REMARK  Name = ZINC15141090
REMARK  6 active torsions:
REMARK  status: ('A' for Active; 'I' for Inactive)
REMARK    1  A    between atoms: C_1  and  C_2
REMARK    2  A    between atoms: C_3  and  C_24
REMARK    3  A    between atoms: C_7  and  N_11
REMARK    4  A    between atoms: N_11  and  C_12
REMARK    5  A    between atoms: C_12  and  C_14
REMARK    6  A    between atoms: C_12  and  C_15
REMARK                            x       y       z     vdW  Elec       q    Type
REMARK                         _______ _______ _______ _____ _____    ______ ____
ROOT
ATOM      1  N   UNL     1      -2.438   1.909  -0.132  0.00  0.00    -0.319 N 
ATOM      2  H   UNL     1      -2.602   0.960  -0.021  0.00  0.00    +0.148 HD
ENDROOT
BRANCH   1   9
ATOM      3  C   UNL     1      -1.346  -0.659   0.546  0.00  0.00    +0.045 C 
ATOM      4  C   UNL     1      -0.051   0.110   0.485  0.00  0.00    -0.028 A 
ATOM      5  C   UNL     1       1.115  -0.505   0.732  0.00  0.00    -0.008 A 
ATOM      6  S   UNL     1       2.320   0.795   0.542  0.00  0.00    -0.074 S 
ATOM      7  C   UNL     1       1.225   2.129   0.136  0.00  0.00    +0.114 A 
ATOM      8  C   UNL     1      -0.051   1.525   0.160  0.00  0.00    +0.051 A 
ATOM      9  C   UNL     1      -1.141   2.391  -0.132  0.00  0.00    +0.131 A 
ATOM     10  N   UNL     1      -0.899   3.662  -0.408  0.00  0.00    -0.220 NA
ATOM     11  C   UNL     1       0.325   4.160  -0.412  0.00  0.00    +0.224 A 
ATOM     12  N   UNL     1       1.375   3.409  -0.144  0.00  0.00    -0.228 NA
ATOM     13  C   UNL     1       1.351  -1.951   1.086  0.00  0.00    +0.052 C 
ENDBRANCH   1   9
BRANCH   1  14
ATOM     14  C   UNL     1      -3.562   2.833  -0.299  0.00  0.00    +0.137 C 
ATOM     15  C   UNL     1      -3.939   3.429   1.058  0.00  0.00    +0.036 C 
BRANCH  14  16
ATOM     16  C   UNL     1      -4.743   2.089  -0.867  0.00  0.00    +0.158 A 
ATOM     17  N   UNL     1      -5.178   0.917  -0.480  0.00  0.00    -0.132 NA
ATOM     18  N   UNL     1      -6.207   0.572  -1.171  0.00  0.00    -0.129 NA
ATOM     19  C   UNL     1      -6.481   1.517  -2.056  0.00  0.00    +0.161 A 
ATOM     20  N   UNL     1      -5.549   2.510  -1.879  0.00  0.00    -0.285 N 
ATOM     21  C   UNL     1      -5.576   3.630  -2.657  0.00  0.00    +0.094 A 
ATOM     22  C   UNL     1      -6.519   3.779  -3.611  0.00  0.00    +0.018 A 
ATOM     23  C   UNL     1      -7.486   2.780  -3.816  0.00  0.00    +0.005 A 
ATOM     24  C   UNL     1      -7.471   1.658  -3.047  0.00  0.00    +0.048 A 
ENDBRANCH  14  16
ENDBRANCH   1  14
TORSDOF 3
