REMARK  Name = ZINC17071917
REMARK  8 active torsions:
REMARK  status: ('A' for Active; 'I' for Inactive)
REMARK    1  A    between atoms: C_1  and  C_2
REMARK    2  A    between atoms: C_5  and  C_7
REMARK    3  A    between atoms: N_8  and  N_9
REMARK    4  A    between atoms: C_10  and  C_12
REMARK    5  A    between atoms: C_19  and  C_22
REMARK    6  A    between atoms: C_22  and  C_23
REMARK    7  A    between atoms: C_22  and  C_24
REMARK    8  A    between atoms: C_22  and  C_25
REMARK                            x       y       z     vdW  Elec       q    Type
REMARK                         _______ _______ _______ _____ _____    ______ ____
ROOT
ATOM      1  C   UNL     1      -4.243   0.600   0.133  0.00  0.00    +0.049 A 
ATOM      2  C   UNL     1      -4.776   0.670   1.401  0.00  0.00    +0.058 A 
ATOM      3  S   UNL     1      -3.395   1.008   2.393  0.00  0.00    -0.101 S 
ATOM      4  C   UNL     1      -2.148   1.052   1.136  0.00  0.00    -0.006 A 
ATOM      5  C   UNL     1      -2.815   0.808  -0.015  0.00  0.00    -0.025 A 
ATOM      6  C   UNL     1      -2.083   0.762  -1.350  0.00  0.00    +0.037 C 
ATOM      7  C   UNL     1      -0.728   1.461  -1.196  0.00  0.00    +0.009 C 
ATOM      8  C   UNL     1       0.025   0.871   0.001  0.00  0.00    -0.000 C 
ATOM      9  C   UNL     1      -0.681   1.302   1.295  0.00  0.00    +0.046 C 
ENDROOT
BRANCH   1  11
ATOM     10  N   UNL     1      -6.420   0.134  -0.872  0.00  0.00    -0.203 N 
ATOM     11  C   UNL     1      -5.096   0.324  -1.035  0.00  0.00    +0.264 C 
ATOM     12  O   UNL     1      -4.605   0.267  -2.147  0.00  0.00    -0.268 OA
ATOM     13  H   UNL     1      -6.811   0.179   0.014  0.00  0.00    +0.178 HD
BRANCH  10  15
ATOM     14  C   UNL     1      -8.495  -0.391  -1.819  0.00  0.00    +0.176 C 
ATOM     15  N   UNL     1      -7.232  -0.129  -1.984  0.00  0.00    -0.184 NA
BRANCH  14  20
ATOM     16  C   UNL     1      -9.082   0.699   3.035  0.00  0.00    +0.086 C 
ATOM     17  C   UNL     1      -9.371   0.223   1.634  0.00  0.00    +0.103 A 
ATOM     18  C   UNL     1     -10.538  -0.301   1.208  0.00  0.00    +0.045 A 
ATOM     19  C   UNL     1     -10.381  -0.604  -0.157  0.00  0.00    +0.051 A 
ATOM     20  C   UNL     1      -9.106  -0.252  -0.493  0.00  0.00    +0.148 A 
ATOM     21  O   UNL     1      -8.508   0.251   0.605  0.00  0.00    -0.459 OA
ENDBRANCH  14  20
ENDBRANCH  10  15
ENDBRANCH   1  11
BRANCH   8  22
ATOM     22  C   UNL     1       1.465   1.389   0.005  0.00  0.00    -0.035 C 
ATOM     23  C   UNL     1       2.213   0.804   1.205  0.00  0.00    +0.011 C 
ATOM     24  C   UNL     1       2.164   0.964  -1.288  0.00  0.00    +0.011 C 
ATOM     25  C   UNL     1       1.458   2.915   0.104  0.00  0.00    +0.011 C 
ENDBRANCH   8  22
TORSDOF 4
