REMARK  Name = ZINC02433917
REMARK  8 active torsions:
REMARK  status: ('A' for Active; 'I' for Inactive)
REMARK    1  A    between atoms: C_1  and  C_2
REMARK    2  A    between atoms: C_2  and  C_24
REMARK    3  A    between atoms: C_4  and  C_22
REMARK    4  A    between atoms: C_4  and  C_23
REMARK    5  A    between atoms: C_12  and  C_14
REMARK    6  A    between atoms: C_14  and  S_15
REMARK    7  A    between atoms: S_15  and  C_16
REMARK    8  A    between atoms: N_20  and  C_21
REMARK                            x       y       z     vdW  Elec       q    Type
REMARK                         _______ _______ _______ _____ _____    ______ ____
ROOT
ATOM      1  C   UNL     1       0.185   0.737  -0.994  0.00  0.00    +0.021 C 
ATOM      2  C   UNL     1      -0.001  -0.765  -0.753  0.00  0.00    +0.022 C 
ATOM      3  C   UNL     1      -1.479  -1.096  -0.636  0.00  0.00    +0.041 C 
ATOM      4  C   UNL     1      -1.995  -1.089   0.799  0.00  0.00    +0.038 C 
ATOM      5  N   UNL     1      -1.136  -1.953   1.622  0.00  0.00    -0.265 N 
ATOM      6  C   UNL     1       0.250  -1.776   1.559  0.00  0.00    +0.041 A 
ATOM      7  C   UNL     1       0.816  -1.192   0.433  0.00  0.00    -0.016 A 
ATOM      8  C   UNL     1       2.189  -0.995   0.392  0.00  0.00    +0.006 A 
ATOM      9  C   UNL     1       2.991  -1.406   1.439  0.00  0.00    +0.000 A 
ATOM     10  C   UNL     1       2.429  -2.023   2.540  0.00  0.00    +0.002 A 
ATOM     11  C   UNL     1       1.061  -2.210   2.597  0.00  0.00    +0.024 A 
ATOM     12  C   UNL     1      -1.695  -2.899   2.403  0.00  0.00    +0.231 C 
ATOM     13  O   UNL     1      -2.899  -3.046   2.410  0.00  0.00    -0.274 OA
ATOM     14  C   UNL     1      -2.030   0.323   1.383  0.00  0.00    +0.032 C 
ATOM     15  C   UNL     1      -3.423  -1.664   0.820  0.00  0.00    +0.032 C 
ENDROOT
BRANCH   2  16
ATOM     16  C   UNL     1       0.532  -1.486  -1.964  0.00  0.00    -0.037 A 
ATOM     17  C   UNL     1       0.966  -0.766  -3.062  0.00  0.00    +0.004 A 
ATOM     18  C   UNL     1       1.455  -1.428  -4.173  0.00  0.00    +0.000 A 
ATOM     19  C   UNL     1       1.511  -2.809  -4.186  0.00  0.00    +0.000 A 
ATOM     20  C   UNL     1       1.079  -3.529  -3.087  0.00  0.00    +0.000 A 
ATOM     21  C   UNL     1       0.594  -2.867  -1.975  0.00  0.00    +0.004 A 
ENDBRANCH   2  16
BRANCH  12  22
ATOM     22  C   UNL     1      -0.824  -3.773   3.269  0.00  0.00    +0.173 C 
BRANCH  22  23
ATOM     23  S   UNL     1      -1.800  -5.168   3.896  0.00  0.00    -0.075 S 
BRANCH  23  24
ATOM     24  C   UNL     1      -0.657  -6.082   4.875  0.00  0.00    +0.210 A 
ATOM     25  N   UNL     1       0.607  -5.784   5.084  0.00  0.00    -0.102 NA
ATOM     26  N   UNL     1       1.156  -6.660   5.846  0.00  0.00    -0.022 NA
ATOM     27  N   UNL     1       0.301  -7.567   6.175  0.00  0.00    -0.043 NA
ATOM     28  N   UNL     1      -0.915  -7.222   5.559  0.00  0.00    -0.223 N 
ATOM     29  C   UNL     1      -2.188  -7.943   5.639  0.00  0.00    +0.177 C 
ENDBRANCH  23  24
ENDBRANCH  22  23
ENDBRANCH  12  22
TORSDOF 4
