REMARK  Name = ZINC09570588
REMARK  8 active torsions:
REMARK  status: ('A' for Active; 'I' for Inactive)
REMARK    1  A    between atoms: C_1  and  C_2
REMARK    2  A    between atoms: C_2  and  O_3
REMARK    3  A    between atoms: O_3  and  C_4
REMARK    4  A    between atoms: C_13  and  C_14
REMARK    5  A    between atoms: N_16  and  C_17
REMARK    6  A    between atoms: C_17  and  C_18
REMARK    7  A    between atoms: N_22  and  C_23
REMARK    8  A    between atoms: C_26  and  C_29
REMARK                            x       y       z     vdW  Elec       q    Type
REMARK                         _______ _______ _______ _____ _____    ______ ____
ROOT
ATOM      1  C   UNL     1      -1.858   5.770  -0.311  0.00  0.00    +0.249 C 
ATOM      2  O   UNL     1      -2.228   6.043   0.815  0.00  0.00    -0.270 OA
ATOM      3  N   UNL     1      -2.677   5.983  -1.360  0.00  0.00    -0.304 N 
ATOM      4  H   UNL     1      -2.407   5.705  -2.249  0.00  0.00    +0.149 HD
ENDROOT
BRANCH   1  14
ATOM      5  C   UNL     1       0.589   6.044  -0.692  0.00  0.00    +0.133 A 
ATOM      6  C   UNL     1       1.859   5.502  -0.897  0.00  0.00    +0.047 A 
ATOM      7  C   UNL     1       2.066   4.161  -0.946  0.00  0.00    +0.012 A 
ATOM      8  C   UNL     1       0.996   3.261  -0.787  0.00  0.00    -0.017 A 
ATOM      9  C   UNL     1       1.199   1.872  -0.835  0.00  0.00    +0.008 A 
ATOM     10  C   UNL     1       0.140   1.030  -0.678  0.00  0.00    +0.001 A 
ATOM     11  C   UNL     1      -1.145   1.525  -0.476  0.00  0.00    +0.001 A 
ATOM     12  C   UNL     1      -1.377   2.867  -0.419  0.00  0.00    +0.009 A 
ATOM     13  C   UNL     1      -0.311   3.761  -0.576  0.00  0.00    -0.002 A 
ATOM     14  C   UNL     1      -0.516   5.208  -0.527  0.00  0.00    +0.086 A 
BRANCH   5  15
ATOM     15  O   UNL     1       0.428   7.389  -0.651  0.00  0.00    -0.491 OA
BRANCH  15  17
ATOM     16  C   UNL     1       1.222   9.669  -0.767  0.00  0.00    +0.048 C 
ATOM     17  C   UNL     1       1.589   8.188  -0.889  0.00  0.00    +0.226 C 
ENDBRANCH  15  17
ENDBRANCH   5  15
ENDBRANCH   1  14
BRANCH   3  18
ATOM     18  C   UNL     1      -3.974   6.633  -1.157  0.00  0.00    +0.182 C 
BRANCH  18  19
ATOM     19  C   UNL     1      -4.739   6.644  -2.455  0.00  0.00    +0.174 A 
ATOM     20  N   UNL     1      -5.470   5.670  -2.932  0.00  0.00    -0.111 NA
ATOM     21  N   UNL     1      -5.986   6.003  -4.060  0.00  0.00    -0.023 NA
ATOM     22  N   UNL     1      -5.626   7.199  -4.379  0.00  0.00    -0.039 NA
ATOM     23  N   UNL     1      -4.803   7.663  -3.338  0.00  0.00    -0.196 N 
BRANCH  23  24
ATOM     24  C   UNL     1      -4.178   8.916  -3.240  0.00  0.00    +0.069 A 
ATOM     25  C   UNL     1      -4.881  10.070  -3.559  0.00  0.00    +0.028 A 
ATOM     26  C   UNL     1      -4.265  11.302  -3.456  0.00  0.00    +0.005 A 
ATOM     27  C   UNL     1      -2.947  11.386  -3.048  0.00  0.00    -0.050 A 
ATOM     28  C   UNL     1      -2.243  10.238  -2.735  0.00  0.00    +0.005 A 
ATOM     29  C   UNL     1      -2.855   9.003  -2.830  0.00  0.00    +0.028 A 
ATOM     30  C   UNL     1      -2.276  12.731  -2.943  0.00  0.00    +0.044 C 
ENDBRANCH  23  24
ENDBRANCH  18  19
ENDBRANCH   3  18
TORSDOF 6
