REMARK  Name = ZINC00079879
REMARK  5 active torsions:
REMARK  status: ('A' for Active; 'I' for Inactive)
REMARK    1  A    between atoms: C_1  and  O_2
REMARK    2  A    between atoms: O_2  and  C_3
REMARK    3  A    between atoms: C_6  and  C_9
REMARK    4  A    between atoms: C_22  and  N_26
REMARK    5  A    between atoms: C_23  and  C_24
REMARK                            x       y       z     vdW  Elec       q    Type
REMARK                         _______ _______ _______ _____ _____    ______ ____
ROOT
ATOM      1  C   UNL     1       6.087   2.201  -0.034  0.00  0.00    +0.098 C 
ATOM      2  C   UNL     1       4.773   1.462  -0.031  0.00  0.00    +0.008 A 
ATOM      3  C   UNL     1       4.784   0.066  -0.041  0.00  0.00    +0.009 A 
ATOM      4  C   UNL     1       3.629  -0.651  -0.038  0.00  0.00    +0.009 A 
ATOM      5  C   UNL     1       2.393   0.018  -0.021  0.00  0.00    -0.014 A 
ATOM      6  C   UNL     1       1.179  -0.689  -0.013  0.00  0.00    +0.008 A 
ATOM      7  C   UNL     1       0.002  -0.004   0.002  0.00  0.00    +0.001 A 
ATOM      8  C   UNL     1      -0.017   1.389   0.010  0.00  0.00    +0.001 A 
ATOM      9  C   UNL     1       1.141   2.106   0.003  0.00  0.00    +0.012 A 
ATOM     10  C   UNL     1       2.373   1.434  -0.013  0.00  0.00    +0.025 A 
ATOM     11  C   UNL     1       3.593   2.147  -0.017  0.00  0.00    +0.142 A 
ATOM     12  O   UNL     1       3.567   3.501  -0.007  0.00  0.00    -0.440 OA
ATOM     13  C   UNL     1       4.646   4.197  -0.403  0.00  0.00    +0.199 C 
ATOM     14  C   UNL     1       5.878   3.633  -0.439  0.00  0.00    +0.098 C 
ENDROOT
BRANCH   1  18
ATOM     15  C   UNL     1       7.794   2.071   3.881  0.00  0.00    +0.120 A 
ATOM     16  C   UNL     1       8.482   1.530   2.805  0.00  0.00    +0.046 A 
ATOM     17  C   UNL     1       7.928   1.573   1.540  0.00  0.00    +0.008 A 
ATOM     18  C   UNL     1       6.689   2.155   1.347  0.00  0.00    -0.034 A 
ATOM     19  C   UNL     1       6.003   2.700   2.417  0.00  0.00    +0.008 A 
ATOM     20  C   UNL     1       6.551   2.654   3.684  0.00  0.00    +0.046 A 
BRANCH  15  22
ATOM     21  C   UNL     1       7.572   2.607   6.187  0.00  0.00    +0.277 C 
ATOM     22  O   UNL     1       8.337   2.030   5.126  0.00  0.00    -0.495 OA
ENDBRANCH  15  22
ENDBRANCH   1  18
BRANCH  13  23
ATOM     23  N   UNL     1       4.498   5.508  -0.780  0.00  0.00    -0.328 N 
ATOM     24  H   UNL     1       5.269   6.021  -1.067  0.00  0.00    +0.145 HD
ATOM     25  H   UNL     1       3.621   5.923  -0.758  0.00  0.00    +0.145 HD
ENDBRANCH  13  23
BRANCH  14  26
ATOM     26  C   UNL     1       6.999   4.415  -0.868  0.00  0.00    +0.101 C 
ATOM     27  N   UNL     1       7.888   5.034  -1.208  0.00  0.00    -0.191 NA
ENDBRANCH  14  26
TORSDOF 4
