REMARK  Name = ZINC62008770
REMARK  5 active torsions:
REMARK  status: ('A' for Active; 'I' for Inactive)
REMARK    1  A    between atoms: C_4  and  N_23
REMARK    2  A    between atoms: C_6  and  N_7
REMARK    3  A    between atoms: C_8  and  C_10
REMARK    4  A    between atoms: N_12  and  C_13
REMARK    5  A    between atoms: C_18  and  C_19
REMARK                            x       y       z     vdW  Elec       q    Type
REMARK                         _______ _______ _______ _____ _____    ______ ____
ROOT
ATOM      1  N   UNL     1      -1.198  -0.721   0.010  0.00  0.00    -0.278 N 
ATOM      2  C   UNL     1      -2.372  -0.068   0.127  0.00  0.00    +0.303 C 
ATOM      3  O   UNL     1      -2.393   1.145   0.134  0.00  0.00    -0.265 OA
ATOM      4  H   UNL     1      -1.186  -1.687  -0.072  0.00  0.00    +0.155 HD
ENDROOT
BRANCH   1  10
ATOM      5  C   UNL     1       0.122   1.155   0.763  0.00  0.00    +0.025 A 
ATOM      6  C   UNL     1       1.310   1.860   0.759  0.00  0.00    +0.024 A 
ATOM      7  C   UNL     1       2.379   1.413   0.004  0.00  0.00    +0.071 A 
ATOM      8  C   UNL     1       2.263   0.258  -0.750  0.00  0.00    +0.146 A 
ATOM      9  C   UNL     1       1.078  -0.451  -0.750  0.00  0.00    +0.057 A 
ATOM     10  C   UNL     1       0.002  -0.004   0.008  0.00  0.00    +0.036 A 
ATOM     11 CL   UNL     1       3.870   2.303   0.000  0.00  0.00    -0.081 Cl
BRANCH   8  12
ATOM     12  N   UNL     1       3.409  -0.217  -1.558  0.00  0.00    +0.058 N 
ATOM     13  O   UNL     1       3.307  -1.226  -2.216  0.00  0.00    -0.126 OA
ATOM     14  O   UNL     1       4.446   0.404  -1.558  0.00  0.00    -0.126 OA
ENDBRANCH   8  12
ENDBRANCH   1  10
BRANCH   2  15
ATOM     15  C   UNL     1      -3.645  -0.839   0.248  0.00  0.00    +0.300 C 
ATOM     16  O   UNL     1      -3.623  -2.052   0.241  0.00  0.00    -0.265 OA
ATOM     17  N   UNL     1      -4.819  -0.186   0.365  0.00  0.00    -0.304 N 
ATOM     18  H   UNL     1      -4.836   0.783   0.370  0.00  0.00    +0.149 HD
BRANCH  17  19
ATOM     19  C   UNL     1      -6.068  -0.942   0.484  0.00  0.00    +0.085 C 
ATOM     20  C   UNL     1      -6.578  -1.307  -0.912  0.00  0.00    +0.023 C 
ATOM     21  C   UNL     1      -7.883  -2.097  -0.788  0.00  0.00    +0.002 C 
ATOM     22  C   UNL     1      -8.929  -1.242  -0.070  0.00  0.00    +0.001 C 
ATOM     23  C   UNL     1      -8.420  -0.877   1.325  0.00  0.00    +0.014 C 
ATOM     24  C   UNL     1      -7.115  -0.088   1.202  0.00  0.00    +0.113 C 
BRANCH  24  25
ATOM     25  C   UNL     1      -6.605   0.277   2.597  0.00  0.00    +0.395 C 
ATOM     26  F   UNL     1      -5.412   0.999   2.484  0.00  0.00    -0.170 F 
ATOM     27  F   UNL     1      -7.562   1.059   3.253  0.00  0.00    -0.170 F 
ATOM     28  F   UNL     1      -6.375  -0.892   3.330  0.00  0.00    -0.170 F 
ENDBRANCH  24  25
ENDBRANCH  17  19
ENDBRANCH   2  15
TORSDOF 5
