REMARK  Name = ZINC48759929
REMARK  5 active torsions:
REMARK  status: ('A' for Active; 'I' for Inactive)
REMARK    1  A    between atoms: C_1  and  C_2
REMARK    2  A    between atoms: C_2  and  C_3
REMARK    3  A    between atoms: C_7  and  C_21
REMARK    4  A    between atoms: N_10  and  C_11
REMARK    5  A    between atoms: C_16  and  N_17
REMARK                            x       y       z     vdW  Elec       q    Type
REMARK                         _______ _______ _______ _____ _____    ______ ____
ROOT
ATOM      1  C   UNL     1       2.667   0.939   1.970  0.00  0.00    +0.061 A 
ATOM      2  C   UNL     1       2.444   2.291   1.740  0.00  0.00    +0.026 A 
ATOM      3  C   UNL     1       3.017   3.235   2.570  0.00  0.00    +0.017 A 
ATOM      4  C   UNL     1       3.812   2.836   3.629  0.00  0.00    +0.020 A 
ATOM      5  C   UNL     1       4.036   1.490   3.861  0.00  0.00    +0.050 A 
ATOM      6  C   UNL     1       3.461   0.541   3.038  0.00  0.00    +0.148 A 
ATOM      7 BR   UNL     1       4.594   4.131   4.763  0.00  0.00    -0.050 Br
ENDROOT
BRANCH   1  13
ATOM      8  C   UNL     1       0.760  -0.578   1.425  0.00  0.00    +0.099 C 
ATOM      9  C   UNL     1       0.856  -2.107   1.370  0.00  0.00    +0.182 C 
ATOM     10  O   UNL     1       1.449  -2.497   0.129  0.00  0.00    -0.373 OA
ATOM     11  C   UNL     1       2.788  -2.031  -0.051  0.00  0.00    +0.132 C 
ATOM     12  C   UNL     1       2.792  -0.498  -0.069  0.00  0.00    +0.136 C 
ATOM     13  N   UNL     1       2.089  -0.018   1.133  0.00  0.00    -0.320 N 
ATOM     14  C   UNL     1       3.339  -2.559  -1.377  0.00  0.00    +0.039 C 
BRANCH   8  16
ATOM     15  C   UNL     1      -0.422   1.428   0.518  0.00  0.00    +0.006 C 
ATOM     16  C   UNL     1      -0.247  -0.086   0.384  0.00  0.00    +0.021 C 
ENDBRANCH   8  16
ENDBRANCH   1  13
BRANCH   6  17
ATOM     17  N   UNL     1       3.695  -0.898   3.291  0.00  0.00    +0.058 N 
ATOM     18  O   UNL     1       4.402  -1.243   4.209  0.00  0.00    -0.126 OA
ATOM     19  O   UNL     1       3.181  -1.728   2.579  0.00  0.00    -0.126 OA
ENDBRANCH   6  17
TORSDOF 3
