REMARK  Name = ZINC08368205
REMARK  6 active torsions:
REMARK  status: ('A' for Active; 'I' for Inactive)
REMARK    1  A    between atoms: C_1  and  C_2
REMARK    2  A    between atoms: C_3  and  C_16
REMARK    3  A    between atoms: C_4  and  C_15
REMARK    4  A    between atoms: C_9  and  C_11
REMARK    5  A    between atoms: C_16  and  C_17
REMARK    6  A    between atoms: C_17  and  C_18
REMARK                            x       y       z     vdW  Elec       q    Type
REMARK                         _______ _______ _______ _____ _____    ______ ____
ROOT
ATOM      1  C   UNL     1      -3.099   1.929   0.244  0.00  0.00    +0.066 C 
ATOM      2  C   UNL     1      -1.935   0.982   0.109  0.00  0.00    +0.047 A 
ATOM      3  C   UNL     1      -2.166  -0.396   0.004  0.00  0.00    -0.005 A 
ATOM      4  C   UNL     1      -1.108  -1.238  -0.118  0.00  0.00    +0.048 A 
ATOM      5  N   UNL     1       0.150  -0.721  -0.134  0.00  0.00    -0.200 N 
ATOM      6  C   UNL     1       0.341   0.629  -0.029  0.00  0.00    +0.254 A 
ATOM      7  N   UNL     1      -0.708   1.451   0.095  0.00  0.00    -0.216 NA
ATOM      8  N   UNL     1       1.650   0.845  -0.072  0.00  0.00    -0.186 NA
ATOM      9  C   UNL     1       2.291  -0.309  -0.200  0.00  0.00    +0.257 A 
ATOM     10  N   UNL     1       1.424  -1.293  -0.242  0.00  0.00    -0.139 NA
ATOM     11  C   UNL     1      -1.324  -2.725  -0.234  0.00  0.00    +0.066 C 
ENDROOT
BRANCH   9  12
ATOM     12  C   UNL     1       3.788  -0.467  -0.283  0.00  0.00    +0.454 C 
ATOM     13  F   UNL     1       4.229  -0.071  -1.550  0.00  0.00    -0.163 F 
ATOM     14  F   UNL     1       4.396   0.330   0.693  0.00  0.00    -0.163 F 
ATOM     15  F   UNL     1       4.128  -1.807  -0.069  0.00  0.00    -0.163 F 
ENDBRANCH   9  12
BRANCH   3  16
ATOM     16  C   UNL     1      -3.572  -0.937   0.025  0.00  0.00    +0.048 C 
BRANCH  16  17
ATOM     17  C   UNL     1      -3.979  -1.241   1.468  0.00  0.00    +0.101 C 
BRANCH  17  18
ATOM     18  C   UNL     1      -5.386  -1.781   1.490  0.00  0.00    +0.216 C 
ATOM     19  O   UNL     1      -6.002  -1.911   0.453  0.00  0.00    -0.276 OA
ATOM     20  N   UNL     1      -5.960  -2.121   2.661  0.00  0.00    -0.298 N 
ATOM     21  C   UNL     1      -5.269  -1.875   3.936  0.00  0.00    +0.108 C 
ATOM     22  C   UNL     1      -5.217  -3.175   4.735  0.00  0.00    +0.019 C 
ATOM     23  C   UNL     1      -6.629  -3.746   4.879  0.00  0.00    +0.007 C 
ATOM     24  C   UNL     1      -7.194  -4.056   3.488  0.00  0.00    +0.010 C 
ATOM     25  C   UNL     1      -7.285  -2.751   2.693  0.00  0.00    +0.079 C 
ATOM     26  C   UNL     1      -7.764  -3.040   1.274  0.00  0.00    +0.023 C 
ATOM     27  C   UNL     1      -6.814  -3.996   0.575  0.00  0.00    +0.002 C 
ATOM     28  C   UNL     1      -6.763  -5.307   1.364  0.00  0.00    +0.000 C 
ATOM     29  C   UNL     1      -6.249  -5.027   2.776  0.00  0.00    +0.005 C 
ENDBRANCH  17  18
ENDBRANCH  16  17
ENDBRANCH   3  16
TORSDOF 4
