REMARK  Name = ZINC49416053
REMARK  2 active torsions:
REMARK  status: ('A' for Active; 'I' for Inactive)
REMARK    1  A    between atoms: C_9  and  N_11
REMARK    2  A    between atoms: C_12  and  C_14
REMARK                            x       y       z     vdW  Elec       q    Type
REMARK                         _______ _______ _______ _____ _____    ______ ____
ROOT
ATOM      1  C   UNL     1      -0.028   1.383   0.038  0.00  0.00    +0.003 A 
ATOM      2  C   UNL     1       1.128   2.103   0.033  0.00  0.00    +0.010 A 
ATOM      3  C   UNL     1       2.366   1.441   0.010  0.00  0.00    +0.002 A 
ATOM      4  C   UNL     1       3.578   2.160   0.005  0.00  0.00    +0.013 A 
ATOM      5  C   UNL     1       4.745   1.456  -0.017  0.00  0.00    +0.047 A 
ATOM      6  C   UNL     1       4.716   0.056  -0.035  0.00  0.00    +0.139 A 
ATOM      7  N   UNL     1       3.580  -0.609  -0.030  0.00  0.00    -0.227 NA
ATOM      8  C   UNL     1       2.405   0.026  -0.008  0.00  0.00    +0.094 A 
ATOM      9  C   UNL     1       1.190  -0.694  -0.003  0.00  0.00    +0.060 A 
ATOM     10  C   UNL     1      -0.005  -0.008   0.020  0.00  0.00    +0.025 A 
ATOM     11  N   UNL     1       5.920  -0.651  -0.058  0.00  0.00    -0.290 N 
ATOM     12  C   UNL     1       6.066  -2.010  -0.179  0.00  0.00    +0.114 A 
ATOM     13  C   UNL     1       7.388  -2.264  -0.156  0.00  0.00    +0.130 A 
ATOM     14  N   UNL     1       8.037  -1.097  -0.026  0.00  0.00    -0.244 NA
ATOM     15  C   UNL     1       7.170  -0.123   0.028  0.00  0.00    +0.205 A 
ENDROOT
BRANCH   9  16
ATOM     16  N   UNL     1       1.200  -2.090  -0.021  0.00  0.00    -0.280 N 
ATOM     17  C   UNL     1       0.140  -2.765  -0.508  0.00  0.00    +0.248 C 
ATOM     18  O   UNL     1      -0.781  -2.161  -1.023  0.00  0.00    -0.270 OA
ATOM     19  H   UNL     1       1.970  -2.574   0.316  0.00  0.00    +0.155 HD
BRANCH  17  20
ATOM     20  C   UNL     1       0.097  -4.239  -0.416  0.00  0.00    +0.037 A 
ATOM     21  C   UNL     1       1.151  -4.935   0.180  0.00  0.00    +0.014 A 
ATOM     22  C   UNL     1       1.105  -6.311   0.263  0.00  0.00    +0.016 A 
ATOM     23  C   UNL     1       0.017  -7.002  -0.243  0.00  0.00    +0.018 A 
ATOM     24  C   UNL     1      -1.031  -6.318  -0.836  0.00  0.00    +0.016 A 
ATOM     25  C   UNL     1      -1.000  -4.942  -0.919  0.00  0.00    +0.014 A 
ATOM     26 BR   UNL     1      -0.038  -8.889  -0.125  0.00  0.00    -0.050 Br
ENDBRANCH  17  20
ENDBRANCH   9  16
TORSDOF 2
