REMARK  Name = ZINC05137520
REMARK  6 active torsions:
REMARK  status: ('A' for Active; 'I' for Inactive)
REMARK    1  A    between atoms: C_3  and  C_8
REMARK    2  A    between atoms: C_10  and  C_13
REMARK    3  A    between atoms: C_13  and  C_14
REMARK    4  A    between atoms: C_14  and  N_15
REMARK    5  A    between atoms: C_16  and  C_18
REMARK    6  A    between atoms: C_21  and  N_25
REMARK                            x       y       z     vdW  Elec       q    Type
REMARK                         _______ _______ _______ _____ _____    ______ ____
ROOT
ATOM      1  C   UNL     1      -6.346   2.138   1.227  0.00  0.00    +0.110 C 
ENDROOT
BRANCH   1   2
ATOM      2  N   UNL     1      -7.711   2.669   1.236  0.00  0.00    -0.311 N 
ATOM      3  C   UNL     1      -8.091   3.533   2.199  0.00  0.00    +0.245 C 
ATOM      4  O   UNL     1      -7.301   3.871   3.059  0.00  0.00    -0.270 OA
ATOM      5  H   UNL     1      -8.341   2.400   0.550  0.00  0.00    +0.149 HD
BRANCH   3   6
ATOM      6  C   UNL     1      -9.468   4.069   2.209  0.00  0.00    +0.055 A 
ATOM      7  C   UNL     1     -10.378   3.683   1.223  0.00  0.00    +0.017 A 
ATOM      8  C   UNL     1     -11.661   4.187   1.238  0.00  0.00    +0.033 A 
ATOM      9  C   UNL     1     -12.049   5.073   2.228  0.00  0.00    +0.128 A 
ATOM     10  C   UNL     1     -11.154   5.460   3.208  0.00  0.00    +0.053 A 
ATOM     11  C   UNL     1      -9.867   4.960   3.208  0.00  0.00    +0.055 A 
ATOM     12 CL   UNL     1      -8.746   5.441   4.444  0.00  0.00    -0.083 Cl
BRANCH   9  13
ATOM     13  N   UNL     1     -13.429   5.609   2.237  0.00  0.00    +0.056 N 
ATOM     14  O   UNL     1     -14.220   5.269   1.375  0.00  0.00    -0.126 OA
ATOM     15  O   UNL     1     -13.774   6.389   3.107  0.00  0.00    -0.126 OA
ENDBRANCH   9  13
ENDBRANCH   3   6
ENDBRANCH   1   2
BRANCH   1  16
ATOM     16  C   UNL     1      -6.177   1.188   0.039  0.00  0.00    +0.074 C 
BRANCH  16  19
ATOM     17  C   UNL     1      -2.503   1.007   0.020  0.00  0.00    +0.109 A 
ATOM     18  N   UNL     1      -3.748   1.461   0.028  0.00  0.00    -0.244 NA
ATOM     19  C   UNL     1      -4.772   0.641   0.029  0.00  0.00    +0.051 A 
ATOM     20  C   UNL     1      -4.565  -0.703   0.021  0.00  0.00    +0.070 A 
ATOM     21  S   UNL     1      -2.777  -0.760   0.004  0.00  0.00    -0.075 S 
BRANCH  17  24
ATOM     22  C   UNL     1      -0.049   3.851   0.022  0.00  0.00    +0.003 A 
ATOM     23  C   UNL     1      -1.240   3.154   0.029  0.00  0.00    +0.011 A 
ATOM     24  C   UNL     1      -1.229   1.759   0.017  0.00  0.00    +0.010 A 
ATOM     25  C   UNL     1      -0.013   1.076   0.008  0.00  0.00    +0.049 A 
ATOM     26  C   UNL     1       1.173   1.785   0.000  0.00  0.00    +0.124 A 
ATOM     27  C   UNL     1       1.155   3.170   0.008  0.00  0.00    +0.038 A 
ATOM     28  F   UNL     1       2.353   1.126  -0.014  0.00  0.00    -0.205 F 
ENDBRANCH  17  24
ENDBRANCH  16  19
ENDBRANCH   1  16
TORSDOF 6
