REMARK  Name = ZINC21880968
REMARK  3 active torsions:
REMARK  status: ('A' for Active; 'I' for Inactive)
REMARK    1  A    between atoms: C_6  and  S_7
REMARK    2  A    between atoms: S_7  and  N_10
REMARK    3  A    between atoms: C_13  and  N_16
REMARK                            x       y       z     vdW  Elec       q    Type
REMARK                         _______ _______ _______ _____ _____    ______ ____
ROOT
ATOM      1  S   UNL     1      -3.921  -0.964  -0.029  0.00  0.00    +0.061 S 
ATOM      2  O   UNL     1      -4.912  -0.105  -0.574  0.00  0.00    -0.153 OA
ATOM      3  O   UNL     1      -3.618  -2.232  -0.594  0.00  0.00    -0.153 OA
ENDROOT
BRANCH   1   9
ATOM      4  C   UNL     1      -2.441   1.334   0.007  0.00  0.00    +0.030 A 
ATOM      5  C   UNL     1      -1.258   2.033   0.017  0.00  0.00    +0.025 A 
ATOM      6  C   UNL     1      -0.017   1.374   0.010  0.00  0.00    +0.037 A 
ATOM      7  C   UNL     1       0.002  -0.004   0.002  0.00  0.00    -0.024 A 
ATOM      8  C   UNL     1      -1.205  -0.703  -0.012  0.00  0.00    +0.034 A 
ATOM      9  C   UNL     1      -2.416  -0.049  -0.010  0.00  0.00    +0.106 A 
ATOM     10  C   UNL     1       1.234  -0.850   0.011  0.00  0.00    +0.037 C 
ATOM     11  C   UNL     1       2.382  -0.318   0.811  0.00  0.00    +0.014 C 
ATOM     12  C   UNL     1       3.136   0.791   0.118  0.00  0.00    +0.096 C 
ATOM     13  C   UNL     1       2.369   2.065   0.115  0.00  0.00    +0.217 C 
ATOM     14  O   UNL     1       3.016   3.085   0.229  0.00  0.00    -0.275 OA
ATOM     15  N   UNL     1       1.079   2.207   0.004  0.00  0.00    -0.285 N 
ATOM     16  H   UNL     1       0.945   3.291  -0.121  0.00  0.00    +0.155 HD
ENDBRANCH   1   9
BRANCH   1  17
ATOM     17  N   UNL     1      -4.347  -1.238   1.548  0.00  0.00    -0.177 NA
ATOM     18  C   UNL     1      -3.888  -2.445   2.248  0.00  0.00    +0.108 C 
ATOM     19  C   UNL     1      -3.195  -2.020   3.552  0.00  0.00    +0.002 C 
ATOM     20  C   UNL     1      -4.149  -1.145   4.368  0.00  0.00    -0.066 C 
ATOM     21  C   UNL     1      -4.494   0.116   3.572  0.00  0.00    +0.002 C 
ATOM     22  C   UNL     1      -5.197  -0.282   2.271  0.00  0.00    +0.108 C 
BRANCH  20  23
ATOM     23  N   UNL     1      -3.505  -0.765   5.632  0.00  0.00    +0.382 N 
ATOM     24  C   UNL     1      -2.260  -0.026   5.386  0.00  0.00    -0.078 C 
ATOM     25  C   UNL     1      -1.694   0.478   6.716  0.00  0.00    -0.019 C 
ATOM     26  C   UNL     1      -1.428  -0.716   7.637  0.00  0.00    -0.004 C 
ATOM     27  C   UNL     1      -2.730  -1.495   7.838  0.00  0.00    -0.019 C 
ATOM     28  C   UNL     1      -3.266  -1.942   6.476  0.00  0.00    -0.078 C 
ATOM     29  H   UNL     1      -4.190  -0.096   6.175  0.00  0.00    -0.081 HD
ENDBRANCH  20  23
ENDBRANCH   1  17
TORSDOF 3
