REMARK  Name = ZINC20418399
REMARK  6 active torsions:
REMARK  status: ('A' for Active; 'I' for Inactive)
REMARK    1  A    between atoms: C_1  and  C_2
REMARK    2  A    between atoms: C_7  and  C_8
REMARK    3  A    between atoms: N_10  and  C_11
REMARK    4  A    between atoms: C_11  and  C_27
REMARK    5  A    between atoms: C_13  and  C_14
REMARK    6  A    between atoms: N_18  and  C_21
REMARK                            x       y       z     vdW  Elec       q    Type
REMARK                         _______ _______ _______ _____ _____    ______ ____
ROOT
ATOM      1  C   UNL     1      -5.184   4.382   1.031  0.00  0.00    +0.241 C 
ATOM      2  C   UNL     1      -4.285   5.562   0.709  0.00  0.00    +0.098 C 
ATOM      3  C   UNL     1      -4.649   6.846   0.541  0.00  0.00    +0.164 C 
ATOM      4  C   UNL     1      -6.109   7.218   0.512  0.00  0.00    +0.091 C 
ATOM      5  O   UNL     1      -3.708   7.800   0.398  0.00  0.00    -0.292 OA
ATOM      6  C   UNL     1      -2.979   5.017   0.629  0.00  0.00    +0.260 C 
ATOM      7  O   UNL     1      -1.977   5.665   0.389  0.00  0.00    -0.269 OA
ATOM      8  N   UNL     1      -2.992   3.698   0.849  0.00  0.00    -0.204 N 
ATOM      9  C   UNL     1      -4.220   3.215   1.098  0.00  0.00    +0.264 C 
ATOM     10  O   UNL     1      -4.505   2.060   1.333  0.00  0.00    -0.272 OA
ENDROOT
BRANCH   8  11
ATOM     11  C   UNL     1      -1.839   2.902   0.829  0.00  0.00    +0.044 A 
ATOM     12  C   UNL     1      -1.396   2.289   1.993  0.00  0.00    +0.024 A 
ATOM     13  C   UNL     1      -0.257   1.509   1.970  0.00  0.00    +0.002 A 
ATOM     14  C   UNL     1       0.436   1.329   0.787  0.00  0.00    +0.000 A 
ATOM     15  C   UNL     1      -0.005   1.933  -0.375  0.00  0.00    +0.002 A 
ATOM     16  C   UNL     1      -1.141   2.719  -0.358  0.00  0.00    +0.024 A 
ENDBRANCH   8  11
BRANCH   1  19
ATOM     17  C   UNL     1      -7.005   3.121   0.016  0.00  0.00    +0.246 C 
ATOM     18  O   UNL     1      -6.941   2.338   0.943  0.00  0.00    -0.270 OA
ATOM     19  N   UNL     1      -6.169   4.178  -0.033  0.00  0.00    -0.287 N 
ATOM     20  H   UNL     1      -6.227   4.886  -0.873  0.00  0.00    +0.151 HD
BRANCH  17  27
ATOM     21  C   UNL     1      -8.888   0.934   0.210  0.00  0.00    +0.044 C 
ATOM     22  C   UNL     1      -8.913   1.863  -0.976  0.00  0.00    -0.038 A 
ATOM     23  C   UNL     1      -9.839   1.677  -1.981  0.00  0.00    +0.004 A 
ATOM     24  C   UNL     1      -9.863   2.529  -3.070  0.00  0.00    +0.000 A 
ATOM     25  C   UNL     1      -8.960   3.574  -3.159  0.00  0.00    +0.001 A 
ATOM     26  C   UNL     1      -8.032   3.775  -2.158  0.00  0.00    +0.013 A 
ATOM     27  C   UNL     1      -7.999   2.915  -1.059  0.00  0.00    +0.040 A 
ENDBRANCH  17  27
ENDBRANCH   1  19
BRANCH   1  28
ATOM     28  C   UNL     1      -5.881   4.583   2.378  0.00  0.00    +0.424 C 
ATOM     29  F   UNL     1      -4.943   4.986   3.334  0.00  0.00    -0.167 F 
ATOM     30  F   UNL     1      -6.868   5.567   2.250  0.00  0.00    -0.167 F 
ATOM     31  F   UNL     1      -6.471   3.381   2.781  0.00  0.00    -0.167 F 
ENDBRANCH   1  28
TORSDOF 4
