REMARK  Name = ZINC45737123
REMARK  6 active torsions:
REMARK  status: ('A' for Active; 'I' for Inactive)
REMARK    1  A    between atoms: C_1  and  C_2
REMARK    2  A    between atoms: C_15  and  C_17
REMARK    3  A    between atoms: C_17  and  C_19
REMARK    4  A    between atoms: C_17  and  S_20
REMARK    5  A    between atoms: S_20  and  C_21
REMARK    6  A    between atoms: N_25  and  C_26
REMARK                            x       y       z     vdW  Elec       q    Type
REMARK                         _______ _______ _______ _____ _____    ______ ____
ROOT
ATOM      1  C   UNL     1      -0.019   1.526   0.010  0.00  0.00    +0.008 C 
ATOM      2  C   UNL     1       0.002  -0.004   0.002  0.00  0.00    -0.008 C 
ATOM      3  C   UNL     1       0.719  -0.498  -1.257  0.00  0.00    +0.022 C 
ATOM      4  C   UNL     1       0.722  -2.030  -1.274  0.00  0.00    +0.108 C 
ATOM      5  N   UNL     1       1.299  -2.520  -0.015  0.00  0.00    -0.297 N 
ATOM      6  C   UNL     1       0.725  -2.042   1.252  0.00  0.00    +0.079 C 
ATOM      7  C   UNL     1       0.742  -0.511   1.240  0.00  0.00    +0.012 C 
ATOM      8  C   UNL     1       0.082   0.033   2.505  0.00  0.00    +0.005 C 
ATOM      9  C   UNL     1      -1.361  -0.467   2.592  0.00  0.00    +0.000 C 
ATOM     10  C   UNL     1      -1.363  -1.997   2.630  0.00  0.00    +0.002 C 
ATOM     11  C   UNL     1      -0.715  -2.549   1.359  0.00  0.00    +0.023 C 
ATOM     12  C   UNL     1       2.331  -3.388  -0.022  0.00  0.00    +0.229 C 
ATOM     13  O   UNL     1       2.796  -3.783   1.026  0.00  0.00    -0.274 OA
ENDROOT
BRANCH  12  14
ATOM     14  C   UNL     1       2.905  -3.866  -1.330  0.00  0.00    +0.137 C 
ATOM     15  C   UNL     1       3.941  -2.859  -1.832  0.00  0.00    +0.029 C 
BRANCH  14  16
ATOM     16  S   UNL     1       3.698  -5.480  -1.088  0.00  0.00    -0.074 S 
BRANCH  16  17
ATOM     17  C   UNL     1       4.181  -5.965  -2.712  0.00  0.00    +0.192 A 
ATOM     18  N   UNL     1       3.996  -5.283  -3.818  0.00  0.00    -0.123 NA
ATOM     19  N   UNL     1       4.472  -5.935  -4.818  0.00  0.00    -0.137 NA
ATOM     20  C   UNL     1       4.985  -7.062  -4.413  0.00  0.00    +0.225 A 
ATOM     21  N   UNL     1       4.823  -7.120  -3.057  0.00  0.00    -0.312 N 
ATOM     22  C   UNL     1       5.247  -8.198  -2.160  0.00  0.00    +0.152 C 
ENDBRANCH  16  17
ENDBRANCH  14  16
ENDBRANCH  12  14
TORSDOF 3
