REMARK  Name = ZINC38728265
REMARK  10 active torsions:
REMARK  status: ('A' for Active; 'I' for Inactive)
REMARK    1  A    between atoms: C_1  and  C_2
REMARK    2  A    between atoms: C_2  and  C_3
REMARK    3  A    between atoms: N_16  and  C_27
REMARK    4  A    between atoms: C_17  and  C_19
REMARK    5  A    between atoms: C_24  and  O_25
REMARK    6  A    between atoms: O_25  and  C_26
REMARK    7  A    between atoms: C_27  and  C_28
REMARK    8  A    between atoms: C_28  and  N_29
REMARK    9  A    between atoms: N_29  and  C_30
REMARK   10  A    between atoms: N_29  and  C_31
REMARK                            x       y       z     vdW  Elec       q    Type
REMARK                         _______ _______ _______ _____ _____    ______ ____
ROOT
ATOM      1  C   UNL     1       0.731  -0.503   1.223  0.00  0.00    -0.047 A 
ATOM      2  C   UNL     1       2.103  -0.710   1.173  0.00  0.00    +0.007 A 
ATOM      3  C   UNL     1       2.787  -1.168   2.276  0.00  0.00    +0.047 A 
ATOM      4  C   UNL     1       2.104  -1.430   3.464  0.00  0.00    +0.139 A 
ATOM      5  C   UNL     1       0.717  -1.212   3.504  0.00  0.00    +0.065 A 
ATOM      6  C   UNL     1       0.040  -0.746   2.377  0.00  0.00    +0.019 A 
ATOM      7  C   UNL     1      -0.017  -1.473   4.768  0.00  0.00    +0.199 A 
ATOM      8  O   UNL     1      -1.232  -1.474   4.846  0.00  0.00    -0.287 OA
ATOM      9  C   UNL     1       0.862  -1.732   5.914  0.00  0.00    +0.072 A 
ATOM     10  C   UNL     1       2.204  -1.919   5.744  0.00  0.00    +0.199 A 
ATOM     11  O   UNL     1       2.795  -1.887   4.533  0.00  0.00    -0.450 OA
ATOM     12  C   UNL     1       2.811  -2.146   7.067  0.00  0.00    +0.283 C 
ATOM     13  O   UNL     1       3.993  -2.343   7.266  0.00  0.00    -0.267 OA
ATOM     14  N   UNL     1       1.862  -2.104   8.025  0.00  0.00    -0.285 N 
ATOM     15  C   UNL     1       0.568  -1.843   7.374  0.00  0.00    +0.148 C 
ENDROOT
BRANCH  15  16
ATOM     16  C   UNL     1      -0.381  -2.985   7.628  0.00  0.00    +0.019 A 
ATOM     17  C   UNL     1       0.105  -4.207   8.053  0.00  0.00    +0.009 A 
ATOM     18  C   UNL     1      -0.766  -5.255   8.285  0.00  0.00    +0.001 A 
ATOM     19  C   UNL     1      -2.125  -5.085   8.094  0.00  0.00    +0.004 A 
ATOM     20  C   UNL     1      -2.616  -3.865   7.669  0.00  0.00    +0.046 A 
ATOM     21  C   UNL     1      -1.745  -2.810   7.440  0.00  0.00    +0.125 A 
BRANCH  21  22
ATOM     22  O   UNL     1      -2.226  -1.607   7.028  0.00  0.00    -0.495 OA
ATOM     23  C   UNL     1      -3.640  -1.499   6.856  0.00  0.00    +0.277 C 
ENDBRANCH  21  22
ENDBRANCH  15  16
BRANCH   1  25
ATOM     24  C   UNL     1      -0.019   1.526   0.010  0.00  0.00    +0.009 C 
ATOM     25  C   UNL     1       0.002  -0.004   0.002  0.00  0.00    +0.032 C 
ENDBRANCH   1  25
BRANCH  14  26
ATOM     26  C   UNL     1       2.081  -2.286   9.462  0.00  0.00    +0.090 C 
BRANCH  26  27
ATOM     27  C   UNL     1       2.369  -0.930  10.110  0.00  0.00    -0.060 C 
BRANCH  27  28
ATOM     28  N   UNL     1       2.589  -1.113  11.551  0.00  0.00    +0.377 N 
ATOM     29  C   UNL     1       2.983   0.168  12.153  0.00  0.00    -0.097 C 
ATOM     30  C   UNL     1       1.349  -1.589  12.179  0.00  0.00    -0.097 C 
ATOM     31  H   UNL     1       3.321  -1.792  11.696  0.00  0.00    -0.083 HD
ENDBRANCH  27  28
ENDBRANCH  26  27
ENDBRANCH  14  26
TORSDOF 6
