REMARK  Name = ZINC04972526
REMARK  4 active torsions:
REMARK  status: ('A' for Active; 'I' for Inactive)
REMARK    1  A    between atoms: C_1  and  C_2
REMARK    2  A    between atoms: C_6  and  N_22
REMARK    3  A    between atoms: C_10  and  C_12
REMARK    4  A    between atoms: C_23  and  C_25
REMARK                            x       y       z     vdW  Elec       q    Type
REMARK                         _______ _______ _______ _____ _____    ______ ____
ROOT
ATOM      1  C   UNL     1       3.013  -0.317  -1.006  0.00  0.00    +0.008 C 
ATOM      2  C   UNL     1       2.285   0.736  -1.839  0.00  0.00    -0.007 C 
ATOM      3  C   UNL     1       2.265   2.041  -1.095  0.00  0.00    +0.006 C 
ATOM      4  C   UNL     1       1.421   1.995   0.144  0.00  0.00    +0.027 C 
ATOM      5  C   UNL     1      -0.017   1.679  -0.082  0.00  0.00    +0.099 C 
ATOM      6  C   UNL     1      -0.340   0.178  -0.202  0.00  0.00    -0.045 C 
ATOM      7  C   UNL     1       0.128  -0.468  -1.125  0.00  0.00    -0.065 C 
ATOM      8  C   UNL     1       0.946   0.225  -2.225  0.00  0.00    +0.015 C 
ATOM      9  C   UNL     1       1.027  -0.558  -3.519  0.00  0.00    +0.012 C 
ATOM     10  C   UNL     1       0.011  -1.944  -1.469  0.00  0.00    +0.031 C 
ATOM     11  C   UNL     1      -0.132  -2.914  -0.343  0.00  0.00    +0.010 C 
ATOM     12  C   UNL     1      -1.229  -2.710   0.615  0.00  0.00    +0.065 C 
ATOM     13  C   UNL     1      -1.073  -1.548   1.546  0.00  0.00    +0.174 C 
ATOM     14  C   UNL     1      -1.287  -0.202   0.929  0.00  0.00    +0.097 C 
ATOM     15  O   UNL     1      -2.033  -1.703   2.627  0.00  0.00    -0.346 OA
ATOM     16  C   UNL     1      -1.327  -2.422   3.661  0.00  0.00    +0.191 C 
ATOM     17  C   UNL     1       0.090  -1.809   3.552  0.00  0.00    +0.191 C 
ATOM     18  O   UNL     1       0.245  -1.591   2.139  0.00  0.00    -0.346 OA
ENDROOT
BRANCH   5  19
ATOM     19  N   UNL     1      -0.832   2.383   0.885  0.00  0.00    -0.309 N 
ATOM     20  C   UNL     1      -2.039   2.863   0.527  0.00  0.00    +0.210 C 
ATOM     21  O   UNL     1      -2.443   2.705  -0.606  0.00  0.00    -0.276 OA
ATOM     22  C   UNL     1      -2.888   3.596   1.534  0.00  0.00    +0.109 C 
ATOM     23  H   UNL     1      -0.509   2.510   1.791  0.00  0.00    +0.149 HD
ENDBRANCH   5  19
TORSDOF 1
