REMARK  Name = ZINC64890003
REMARK  4 active torsions:
REMARK  status: ('A' for Active; 'I' for Inactive)
REMARK    1  A    between atoms: C_1  and  C_2
REMARK    2  A    between atoms: C_9  and  S_14
REMARK    3  A    between atoms: S_14  and  N_17
REMARK    4  A    between atoms: C_23  and  C_25
REMARK                            x       y       z     vdW  Elec       q    Type
REMARK                         _______ _______ _______ _____ _____    ______ ____
ROOT
ATOM      1  S   UNL     1       3.678   0.829   0.832  0.00  0.00    +0.061 S 
ATOM      2  O   UNL     1       4.113   0.088   1.964  0.00  0.00    -0.153 OA
ATOM      3  O   UNL     1       3.481   0.229  -0.441  0.00  0.00    -0.153 OA
ENDROOT
BRANCH   1  11
ATOM      4  C   UNL     1      -1.157   5.584   1.485  0.00  0.00    +0.062 C 
ATOM      5  C   UNL     1      -1.970   4.291   1.402  0.00  0.00    +0.256 C 
ATOM      6  C   UNL     1      -1.893   3.739   0.001  0.00  0.00    +0.258 C 
ATOM      7  O   UNL     1      -2.727   4.051  -0.823  0.00  0.00    -0.271 OA
ATOM      8  N   UNL     1      -0.891   2.897  -0.333  0.00  0.00    -0.279 N 
ATOM      9  C   UNL     1       0.040   2.525   0.647  0.00  0.00    +0.078 A 
ATOM     10  C   UNL     1       1.243   1.937   0.295  0.00  0.00    +0.055 A 
ATOM     11  C   UNL     1       2.146   1.577   1.278  0.00  0.00    +0.107 A 
ATOM     12  C   UNL     1       1.851   1.802   2.610  0.00  0.00    +0.032 A 
ATOM     13  C   UNL     1       0.651   2.389   2.969  0.00  0.00    +0.049 A 
ATOM     14  C   UNL     1      -0.257   2.753   1.990  0.00  0.00    +0.143 A 
ATOM     15  O   UNL     1      -1.440   3.335   2.324  0.00  0.00    -0.478 OA
ATOM     16  H   UNL     1      -0.816   2.555  -1.238  0.00  0.00    +0.155 HD
ENDBRANCH   1  11
BRANCH   1  17
ATOM     17  N   UNL     1       4.775   2.050   0.615  0.00  0.00    -0.174 NA
ATOM     18  C   UNL     1       4.945   2.677  -0.703  0.00  0.00    +0.128 C 
ATOM     19  C   UNL     1       4.742   4.190  -0.556  0.00  0.00    +0.125 C 
ATOM     20  N   UNL     1       5.563   4.667   0.566  0.00  0.00    -0.295 N 
ATOM     21  C   UNL     1       5.393   4.040   1.885  0.00  0.00    +0.125 C 
ATOM     22  C   UNL     1       5.591   2.531   1.739  0.00  0.00    +0.128 C 
ATOM     23  C   UNL     1       6.455   5.661   0.390  0.00  0.00    +0.253 C 
ATOM     24  O   UNL     1       7.046   6.126   1.347  0.00  0.00    -0.269 OA
BRANCH  23  25
ATOM     25  C   UNL     1       6.715   6.183  -0.955  0.00  0.00    +0.074 A 
ATOM     26  C   UNL     1       7.100   7.458  -1.339  0.00  0.00    +0.021 A 
ATOM     27  C   UNL     1       7.269   7.651  -2.689  0.00  0.00    +0.008 A 
ATOM     28  C   UNL     1       7.054   6.612  -3.534  0.00  0.00    +0.046 A 
ATOM     29  S   UNL     1       6.624   5.341  -2.524  0.00  0.00    -0.092 S 
ENDBRANCH  23  25
ENDBRANCH   1  17
TORSDOF 3
