REMARK  Name = ZINC09861426
REMARK  4 active torsions:
REMARK  status: ('A' for Active; 'I' for Inactive)
REMARK    1  A    between atoms: C_3  and  C_6
REMARK    2  A    between atoms: C_14  and  C_16
REMARK    3  A    between atoms: C_16  and  N_53
REMARK    4  A    between atoms: C_24  and  C_26
REMARK                            x       y       z     vdW  Elec       q    Type
REMARK                         _______ _______ _______ _____ _____    ______ ____
ROOT
ATOM      1  C   UNL     1       0.427   2.150  -3.064  0.00  0.00    +0.020 C 
ENDROOT
BRANCH   1  10
ATOM      2  C   UNL     1      -0.253  -1.466  -8.013  0.00  0.00    +0.282 C 
ATOM      3  O   UNL     1      -1.080  -1.420  -8.904  0.00  0.00    -0.267 OA
ATOM      4  N   UNL     1      -0.466  -0.802  -6.860  0.00  0.00    -0.292 N 
ATOM      5  C   UNL     1      -1.756  -0.147  -6.602  0.00  0.00    +0.127 C 
ATOM      6  C   UNL     1      -1.500   1.330  -6.279  0.00  0.00    +0.126 C 
ATOM      7  N   UNL     1      -0.448   1.411  -5.256  0.00  0.00    -0.300 N 
ATOM      8  C   UNL     1       0.844   0.761  -5.517  0.00  0.00    +0.126 C 
ATOM      9  C   UNL     1       0.586  -0.721  -5.838  0.00  0.00    +0.127 C 
ATOM     10  C   UNL     1      -0.662   2.075  -4.103  0.00  0.00    +0.199 C 
ATOM     11  O   UNL     1      -1.730   2.611  -3.901  0.00  0.00    -0.278 OA
BRANCH   2  14
ATOM     12  C   UNL     1       2.609  -3.471  -9.073  0.00  0.00    +0.042 A 
ATOM     13  C   UNL     1       1.385  -2.843  -9.352  0.00  0.00    +0.054 A 
ATOM     14  C   UNL     1       0.978  -2.243  -8.195  0.00  0.00    +0.189 A 
ATOM     15  O   UNL     1       1.903  -2.497  -7.246  0.00  0.00    -0.458 OA
ATOM     16  C   UNL     1       2.888  -3.236  -7.771  0.00  0.00    +0.196 A 
ENDBRANCH   2  14
ENDBRANCH   1  10
BRANCH   1  25
ATOM     17  C   UNL     1      -0.293   4.346  -2.318  0.00  0.00    -0.072 C 
ATOM     18  C   UNL     1      -0.372   5.215  -1.052  0.00  0.00    +0.024 C 
ATOM     19  C   UNL     1      -1.256   4.513  -0.073  0.00  0.00    -0.010 A 
ATOM     20  C   UNL     1      -1.670   3.216  -0.135  0.00  0.00    -0.046 A 
ATOM     21  C   UNL     1      -2.499   2.777   0.894  0.00  0.00    +0.010 A 
ATOM     22  C   UNL     1      -2.851   3.627   1.888  0.00  0.00    +0.045 A 
ATOM     23  S   UNL     1      -2.009   5.127   1.407  0.00  0.00    -0.101 S 
ATOM     24  C   UNL     1      -1.217   2.336  -1.296  0.00  0.00    +0.002 C 
ATOM     25  N   UNL     1      -0.011   2.947  -1.900  0.00  0.00    +0.393 N 
ATOM     26  H   UNL     1       0.741   2.957  -1.201  0.00  0.00    -0.080 HD
BRANCH  24  27
ATOM     27  C   UNL     1      -0.860   0.965  -0.782  0.00  0.00    -0.019 A 
ATOM     28  C   UNL     1      -1.594  -0.174  -0.809  0.00  0.00    +0.010 A 
ATOM     29  C   UNL     1      -1.056  -1.331  -0.276  0.00  0.00    +0.008 A 
ATOM     30  C   UNL     1       0.185  -1.289   0.268  0.00  0.00    +0.045 A 
ATOM     31  S   UNL     1       0.636   0.422   0.026  0.00  0.00    -0.103 S 
ENDBRANCH  24  27
ENDBRANCH   1  25
TORSDOF 4
