REMARK  Name = ZINC13655368
REMARK  5 active torsions:
REMARK  status: ('A' for Active; 'I' for Inactive)
REMARK    1  A    between atoms: C_1  and  C_2
REMARK    2  A    between atoms: C_9  and  N_13
REMARK    3  A    between atoms: C_10  and  C_11
REMARK    4  A    between atoms: C_14  and  C_16
REMARK    5  A    between atoms: N_20  and  C_21
REMARK                            x       y       z     vdW  Elec       q    Type
REMARK                         _______ _______ _______ _____ _____    ______ ____
ROOT
ATOM      1  C   UNL     1       0.367   5.746   0.289  0.00  0.00    +0.008 C 
ATOM      2  C   UNL     1       0.201   4.247   0.543  0.00  0.00    -0.009 C 
ATOM      3  C   UNL     1      -0.966   3.708  -0.291  0.00  0.00    +0.008 C 
ATOM      4  C   UNL     1      -1.297   2.278   0.135  0.00  0.00    +0.037 C 
ATOM      5  C   UNL     1      -0.019   1.448   0.107  0.00  0.00    -0.018 A 
ATOM      6  C   UNL     1       1.196   2.040   0.104  0.00  0.00    -0.004 A 
ATOM      7  S   UNL     1       2.351   0.700   0.060  0.00  0.00    -0.077 S 
ATOM      8  C   UNL     1       1.239  -0.628   0.048  0.00  0.00    +0.090 A 
ATOM      9  C   UNL     1       0.001  -0.004   0.077  0.00  0.00    +0.084 A 
ATOM     10  C   UNL     1       1.484   3.509   0.132  0.00  0.00    +0.046 C 
ENDROOT
BRANCH   8  11
ATOM     11  N   UNL     1       1.519  -1.986   0.016  0.00  0.00    -0.274 N 
ATOM     12  C   UNL     1       2.798  -2.410  -0.010  0.00  0.00    +0.267 C 
ATOM     13  O   UNL     1       3.704  -1.604  -0.103  0.00  0.00    -0.268 OA
ATOM     14  H   UNL     1       0.794  -2.631   0.012  0.00  0.00    +0.156 HD
BRANCH  12  15
ATOM     15  C   UNL     1       3.098  -3.848   0.074  0.00  0.00    +0.123 A 
ATOM     16  C   UNL     1       2.184  -4.888   0.087  0.00  0.00    +0.054 A 
ATOM     17  C   UNL     1       2.951  -6.052   0.174  0.00  0.00    +0.135 A 
ATOM     18  N   UNL     1       4.211  -5.701   0.217  0.00  0.00    -0.179 NA
ATOM     19  N   UNL     1       4.333  -4.424   0.161  0.00  0.00    -0.262 N 
ATOM     20  C   UNL     1       5.604  -3.696   0.186  0.00  0.00    +0.173 C 
ENDBRANCH  12  15
ENDBRANCH   8  11
BRANCH   9  21
ATOM     21  C   UNL     1      -1.214  -0.763   0.078  0.00  0.00    +0.102 C 
ATOM     22  N   UNL     1      -2.177  -1.365   0.079  0.00  0.00    -0.191 NA
ENDBRANCH   9  21
TORSDOF 3
