REMARK  Name = ZINC51740764
REMARK  6 active torsions:
REMARK  status: ('A' for Active; 'I' for Inactive)
REMARK    1  A    between atoms: C_1  and  C_2
REMARK    2  A    between atoms: C_2  and  C_3
REMARK    3  A    between atoms: C_6  and  C_8
REMARK    4  A    between atoms: C_10  and  C_11
REMARK    5  A    between atoms: C_10  and  C_13
REMARK    6  A    between atoms: N_15  and  C_16
REMARK                            x       y       z     vdW  Elec       q    Type
REMARK                         _______ _______ _______ _____ _____    ______ ____
ROOT
ATOM      1  C   UNL     1       0.819  -1.550  -4.641  0.00  0.00    +0.243 C 
ATOM      2  O   UNL     1       1.848  -1.948  -5.420  0.00  0.00    -0.282 OA
ATOM      3  C   UNL     1      -0.473  -1.490  -5.167  0.00  0.00    +0.164 C 
ENDROOT
BRANCH   1   7
ATOM      4  C   UNL     1       0.702  -0.536  -1.225  0.00  0.00    +0.106 A 
ATOM      5  C   UNL     1       2.027  -0.785  -1.328  0.00  0.00    +0.045 A 
ATOM      6  C   UNL     1       2.269  -1.208  -2.643  0.00  0.00    +0.053 A 
ATOM      7  C   UNL     1       1.050  -1.195  -3.290  0.00  0.00    +0.176 A 
ATOM      8  O   UNL     1       0.117  -0.788  -2.404  0.00  0.00    -0.456 OA
BRANCH   4  10
ATOM      9  C   UNL     1      -0.023   1.472   0.037  0.00  0.00    +0.012 C 
ATOM     10  C   UNL     1      -0.004  -0.058   0.017  0.00  0.00    +0.071 C 
ENDBRANCH   4  10
ENDBRANCH   1   7
BRANCH   3  11
ATOM     11  C   UNL     1      -0.712  -1.857  -6.564  0.00  0.00    +0.262 C 
ATOM     12  O   UNL     1       0.215  -2.215  -7.267  0.00  0.00    -0.269 OA
ATOM     13  N   UNL     1      -1.959  -1.798  -7.072  0.00  0.00    -0.280 N 
ATOM     14  H   UNL     1      -2.708  -1.577  -6.496  0.00  0.00    +0.155 HD
BRANCH  13  15
ATOM     15  C   UNL     1      -2.174  -2.058  -8.430  0.00  0.00    +0.048 A 
ATOM     16  C   UNL     1      -1.402  -3.006  -9.088  0.00  0.00    +0.024 A 
ATOM     17  C   UNL     1      -1.616  -3.260 -10.428  0.00  0.00    +0.002 A 
ATOM     18  C   UNL     1      -2.599  -2.571 -11.116  0.00  0.00    +0.001 A 
ATOM     19  C   UNL     1      -3.369  -1.626 -10.465  0.00  0.00    +0.017 A 
ATOM     20  C   UNL     1      -3.164  -1.371  -9.122  0.00  0.00    +0.039 A 
ATOM     21 BR   UNL     1      -4.224  -0.085  -8.229  0.00  0.00    -0.048 Br
ENDBRANCH  13  15
ENDBRANCH   3  11
BRANCH   3  22
ATOM     22  C   UNL     1      -1.564  -1.068  -4.341  0.00  0.00    +0.108 C 
ATOM     23  N   UNL     1      -2.429  -0.734  -3.685  0.00  0.00    -0.191 NA
ENDBRANCH   3  22
TORSDOF 5
