REMARK  Name = ZINC08756098
REMARK  9 active torsions:
REMARK  status: ('A' for Active; 'I' for Inactive)
REMARK    1  A    between atoms: C_1  and  C_2
REMARK    2  A    between atoms: C_5  and  N_8
REMARK    3  A    between atoms: C_9  and  C_11
REMARK    4  A    between atoms: C_17  and  C_18
REMARK    5  A    between atoms: C_18  and  O_20
REMARK    6  A    between atoms: O_20  and  C_21
REMARK    7  A    between atoms: C_23  and  N_36
REMARK    8  A    between atoms: C_24  and  C_34
REMARK    9  A    between atoms: C_25  and  C_27
REMARK                            x       y       z     vdW  Elec       q    Type
REMARK                         _______ _______ _______ _____ _____    ______ ____
ROOT
ATOM      1  C   UNL     1      -4.619   3.753   5.764  0.00  0.00    +0.058 C 
ATOM      2  C   UNL     1      -5.961   3.946   5.781  0.00  0.00    +0.099 A 
ATOM      3  N   UNL     1      -6.655   4.492   6.843  0.00  0.00    -0.257 N 
ATOM      4  C   UNL     1      -7.991   4.625   6.718  0.00  0.00    +0.272 A 
ATOM      5  O   UNL     1      -8.659   5.098   7.616  0.00  0.00    -0.266 OA
ATOM      6  C   UNL     1      -8.621   4.177   5.454  0.00  0.00    +0.086 A 
ATOM      7  C   UNL     1      -9.928   4.202   5.085  0.00  0.00    +0.112 C 
ATOM      8  S   UNL     1      -7.197   3.595   4.547  0.00  0.00    -0.065 S 
ATOM      9  C   UNL     1      -5.952   4.881   7.990  0.00  0.00    +0.118 C 
ATOM     10  C   UNL     1      -4.614   4.754   8.127  0.00  0.00    +0.079 C 
ATOM     11  C   UNL     1      -3.817   4.153   6.987  0.00  0.00    +0.100 C 
ENDROOT
BRANCH  11  12
ATOM     12  C   UNL     1      -2.780   5.160   6.562  0.00  0.00    -0.032 A 
ATOM     13  C   UNL     1      -3.171   6.354   5.984  0.00  0.00    +0.005 A 
ATOM     14  C   UNL     1      -2.220   7.280   5.598  0.00  0.00    +0.003 A 
ATOM     15  C   UNL     1      -0.877   7.009   5.779  0.00  0.00    +0.038 A 
ATOM     16  C   UNL     1      -0.484   5.812   6.353  0.00  0.00    +0.124 A 
ATOM     17  C   UNL     1      -1.437   4.887   6.744  0.00  0.00    +0.043 A 
ATOM     18  F   UNL     1       0.829   5.546   6.530  0.00  0.00    -0.205 F 
ENDBRANCH  11  12
BRANCH   1  20
ATOM     19  N   UNL     1      -2.650   3.004   4.640  0.00  0.00    -0.282 N 
ATOM     20  C   UNL     1      -3.985   3.189   4.640  0.00  0.00    +0.248 C 
ATOM     21  O   UNL     1      -4.645   2.868   3.667  0.00  0.00    -0.270 OA
ATOM     22  H   UNL     1      -2.136   3.188   5.442  0.00  0.00    +0.155 HD
BRANCH  19  27
ATOM     23  C   UNL     1      -0.043   1.148  -0.043  0.00  0.00    +0.044 C 
ATOM     24  C   UNL     1      -0.736   1.641   1.201  0.00  0.00    -0.050 A 
ATOM     25  C   UNL     1      -1.848   2.456   1.095  0.00  0.00    +0.005 A 
ATOM     26  C   UNL     1      -2.489   2.905   2.233  0.00  0.00    +0.023 A 
ATOM     27  C   UNL     1      -2.007   2.547   3.486  0.00  0.00    +0.034 A 
ATOM     28  C   UNL     1      -0.886   1.734   3.589  0.00  0.00    +0.023 A 
ATOM     29  C   UNL     1      -0.254   1.283   2.447  0.00  0.00    +0.005 A 
ENDBRANCH  19  27
ENDBRANCH   1  20
BRANCH   9  30
ATOM     30  N   UNL     1      -6.663   5.421   9.034  0.00  0.00    -0.343 N 
ATOM     31  H   UNL     1      -7.590   5.170   9.171  0.00  0.00    +0.144 HD
ATOM     32  H   UNL     1      -6.237   6.053   9.634  0.00  0.00    +0.144 HD
ENDBRANCH   9  30
BRANCH   7  33
ATOM     33  C   UNL     1     -10.327   3.700   3.770  0.00  0.00    +0.333 C 
ATOM     34  O   UNL     1      -9.488   3.261   3.007  0.00  0.00    -0.246 OA
BRANCH  33  35
ATOM     35  O   UNL     1     -11.625   3.725   3.404  0.00  0.00    -0.465 OA
ATOM     36  C   UNL     1     -11.942   3.220   2.105  0.00  0.00    +0.280 C 
ENDBRANCH  33  35
ENDBRANCH   7  33
BRANCH  10  37
ATOM     37  C   UNL     1      -3.961   5.173   9.331  0.00  0.00    +0.099 C 
ATOM     38  N   UNL     1      -3.444   5.506  10.286  0.00  0.00    -0.191 NA
ENDBRANCH  10  37
TORSDOF 7
