REMARK  Name = ZINC65712177
REMARK  5 active torsions:
REMARK  status: ('A' for Active; 'I' for Inactive)
REMARK    1  A    between atoms: C_1  and  C_2
REMARK    2  A    between atoms: C_5  and  N_9
REMARK    3  A    between atoms: C_10  and  C_12
REMARK    4  A    between atoms: C_12  and  N_13
REMARK    5  A    between atoms: C_20  and  N_22
REMARK                            x       y       z     vdW  Elec       q    Type
REMARK                         _______ _______ _______ _____ _____    ______ ____
ROOT
ATOM      1  C   UNL     1      -0.136  -6.343  -1.191  0.00  0.00    +0.217 C 
ENDROOT
BRANCH   1   2
ATOM      2  N   UNL     1      -0.234  -6.825  -2.571  0.00  0.00    -0.338 N 
ATOM      3  C   UNL     1      -1.403  -7.101  -3.226  0.00  0.00    +0.087 A 
ATOM      4  C   UNL     1      -1.141  -7.521  -4.473  0.00  0.00    +0.027 A 
ATOM      5  C   UNL     1       0.316  -7.514  -4.630  0.00  0.00    +0.002 A 
ATOM      6  C   UNL     1       0.837  -7.063  -3.403  0.00  0.00    +0.050 A 
ATOM      7  C   UNL     1       2.214  -6.946  -3.249  0.00  0.00    +0.028 A 
ATOM      8  C   UNL     1       3.049  -7.269  -4.296  0.00  0.00    +0.035 A 
ATOM      9  C   UNL     1       2.531  -7.711  -5.506  0.00  0.00    +0.127 A 
ATOM     10  C   UNL     1       1.181  -7.840  -5.676  0.00  0.00    +0.042 A 
BRANCH   9  11
ATOM     11  N   UNL     1       3.447  -8.052  -6.617  0.00  0.00    +0.056 N 
ATOM     12  O   UNL     1       4.642  -7.945  -6.469  0.00  0.00    -0.126 OA
ATOM     13  O   UNL     1       3.000  -8.437  -7.672  0.00  0.00    -0.126 OA
ENDBRANCH   9  11
ENDBRANCH   1   2
BRANCH   1  15
ATOM     14  N   UNL     1       0.057  -4.171  -0.023  0.00  0.00    -0.283 N 
ATOM     15  C   UNL     1      -0.042  -4.839  -1.190  0.00  0.00    +0.237 C 
ATOM     16  O   UNL     1      -0.055  -4.230  -2.238  0.00  0.00    -0.274 OA
ATOM     17  H   UNL     1       0.149  -4.660   0.809  0.00  0.00    +0.155 HD
BRANCH  14  22
ATOM     18  C   UNL     1      -0.064   1.502   0.016  0.00  0.00    +0.044 C 
ATOM     19  C   UNL     1      -0.031  -0.005   0.006  0.00  0.00    -0.049 A 
ATOM     20  C   UNL     1      -0.622  -0.701  -1.033  0.00  0.00    +0.005 A 
ATOM     21  C   UNL     1      -0.594  -2.082  -1.045  0.00  0.00    +0.025 A 
ATOM     22  C   UNL     1       0.028  -2.772  -0.014  0.00  0.00    +0.052 A 
ATOM     23  C   UNL     1       0.621  -2.070   1.029  0.00  0.00    +0.062 A 
ATOM     24  C   UNL     1       0.595  -0.688   1.032  0.00  0.00    +0.025 A 
ATOM     25 CL   UNL     1       1.401  -2.928   2.321  0.00  0.00    -0.082 Cl
ENDBRANCH  14  22
ENDBRANCH   1  15
TORSDOF 4
