REMARK  Name = ZINC00242536
REMARK  4 active torsions:
REMARK  status: ('A' for Active; 'I' for Inactive)
REMARK    1  A    between atoms: C_1  and  C_2
REMARK    2  A    between atoms: C_12  and  C_17
REMARK    3  A    between atoms: N_13  and  N_16
REMARK    4  A    between atoms: C_17  and  C_18
REMARK                            x       y       z     vdW  Elec       q    Type
REMARK                         _______ _______ _______ _____ _____    ______ ____
ROOT
ATOM      1  C   UNL     1      -2.990   1.582  -2.363  0.00  0.00    +0.008 C 
ATOM      2  C   UNL     1      -2.258   1.319  -1.046  0.00  0.00    -0.009 C 
ATOM      3  C   UNL     1      -0.763   1.599  -1.229  0.00  0.00    +0.009 C 
ATOM      4  C   UNL     1      -0.013   1.086   0.008  0.00  0.00    +0.043 C 
ATOM      5  C   UNL     1      -0.722   1.573   1.234  0.00  0.00    -0.004 A 
ATOM      6  C   UNL     1      -1.975   2.090   1.301  0.00  0.00    -0.022 A 
ATOM      7  C   UNL     1      -2.441   2.493   2.616  0.00  0.00    +0.077 A 
ATOM      8  C   UNL     1      -1.523   2.300   3.689  0.00  0.00    +0.116 A 
ATOM      9  S   UNL     1      -0.109   1.597   2.900  0.00  0.00    -0.073 S 
ATOM     10  N   UNL     1      -1.785   2.614   4.954  0.00  0.00    -0.224 NA
ATOM     11  C   UNL     1      -2.984   3.134   5.204  0.00  0.00    +0.135 A 
ATOM     12  N   UNL     1      -3.916   3.357   4.247  0.00  0.00    -0.218 N 
ATOM     13  C   UNL     1      -3.717   3.064   2.939  0.00  0.00    +0.279 A 
ATOM     14  O   UNL     1      -4.568   3.272   2.092  0.00  0.00    -0.265 OA
ATOM     15  C   UNL     1      -2.827   2.231   0.042  0.00  0.00    +0.040 C 
ENDROOT
BRANCH  12  16
ATOM     16  N   UNL     1      -5.111   3.904   4.617  0.00  0.00    -0.294 N 
ATOM     17  H   UNL     1      -5.718   4.021   3.819  0.00  0.00    +0.163 HD
ATOM     18  H   UNL     1      -5.557   3.349   5.332  0.00  0.00    +0.163 HD
ENDBRANCH  12  16
BRANCH  11  19
ATOM     19  C   UNL     1      -3.314   3.499   6.628  0.00  0.00    +0.111 C 
BRANCH  19  20
ATOM     20  C   UNL     1      -2.143   3.167   7.516  0.00  0.00    -0.040 A 
ATOM     21  C   UNL     1      -2.054   1.920   8.107  0.00  0.00    +0.004 A 
ATOM     22  C   UNL     1      -0.978   1.614   8.918  0.00  0.00    +0.000 A 
ATOM     23  C   UNL     1       0.006   2.558   9.147  0.00  0.00    +0.000 A 
ATOM     24  C   UNL     1      -0.086   3.807   8.561  0.00  0.00    +0.000 A 
ATOM     25  C   UNL     1      -1.160   4.112   7.746  0.00  0.00    +0.004 A 
ENDBRANCH  19  20
ENDBRANCH  11  19
TORSDOF 3
