REMARK  Name = ZINC16935934
REMARK  10 active torsions:
REMARK  status: ('A' for Active; 'I' for Inactive)
REMARK    1  A    between atoms: C_1  and  C_2
REMARK    2  A    between atoms: C_2  and  N_3
REMARK    3  A    between atoms: C_7  and  C_8
REMARK    4  A    between atoms: C_11  and  O_16
REMARK    5  A    between atoms: C_12  and  O_14
REMARK    6  A    between atoms: O_14  and  C_15
REMARK    7  A    between atoms: O_16  and  C_17
REMARK    8  A    between atoms: C_17  and  C_18
REMARK    9  A    between atoms: N_21  and  C_22
REMARK   10  A    between atoms: C_25  and  O_28
REMARK                            x       y       z     vdW  Elec       q    Type
REMARK                         _______ _______ _______ _____ _____    ______ ____
ROOT
ATOM      1  N   UNL     1       2.617   3.878  -0.893  0.00  0.00    -0.246 N 
ATOM      2  C   UNL     1       1.426   3.533  -0.434  0.00  0.00    +0.259 C 
ATOM      3  O   UNL     1       0.625   4.366  -0.051  0.00  0.00    -0.269 OA
ATOM      4  C   UNL     1       1.112   2.091  -0.406  0.00  0.00    +0.078 C 
ATOM      5  C   UNL     1      -0.018   1.464   0.010  0.00  0.00    +0.028 C 
ATOM      6  S   UNL     1       2.622   1.393  -1.058  0.00  0.00    -0.049 S 
ATOM      7  C   UNL     1       3.510   2.919  -1.321  0.00  0.00    +0.168 C 
ATOM      8  N   UNL     1       4.721   3.087  -1.800  0.00  0.00    -0.225 NA
ENDROOT
BRANCH   5   9
ATOM      9  C   UNL     1      -0.178   0.021  -0.206  0.00  0.00    -0.020 A 
ATOM     10  C   UNL     1      -1.148  -0.693   0.508  0.00  0.00    +0.012 A 
ATOM     11  C   UNL     1      -1.297  -2.047   0.303  0.00  0.00    +0.050 A 
ATOM     12  C   UNL     1      -0.487  -2.707  -0.612  0.00  0.00    +0.162 A 
ATOM     13  C   UNL     1       0.481  -2.004  -1.327  0.00  0.00    +0.162 A 
ATOM     14  C   UNL     1       0.634  -0.645  -1.131  0.00  0.00    +0.057 A 
BRANCH  13  15
ATOM     15  O   UNL     1       1.272  -2.655  -2.222  0.00  0.00    -0.491 OA
ATOM     16  C   UNL     1       2.242  -1.873  -2.920  0.00  0.00    +0.277 C 
ENDBRANCH  13  15
BRANCH  12  17
ATOM     17  O   UNL     1      -0.638  -4.043  -0.810  0.00  0.00    -0.489 OA
BRANCH  17  18
ATOM     18  C   UNL     1      -1.649  -4.702  -0.044  0.00  0.00    +0.226 C 
ATOM     19  C   UNL     1      -1.671  -6.189  -0.401  0.00  0.00    +0.048 C 
ENDBRANCH  17  18
ENDBRANCH  12  17
ENDBRANCH   5   9
BRANCH   8  20
ATOM     20  C   UNL     1       5.465   2.000  -2.177  0.00  0.00    +0.067 A 
ATOM     21  C   UNL     1       5.529   0.875  -1.352  0.00  0.00    +0.031 A 
ATOM     22  C   UNL     1       6.276  -0.218  -1.738  0.00  0.00    +0.047 A 
ATOM     23  C   UNL     1       6.971  -0.198  -2.938  0.00  0.00    +0.117 A 
ATOM     24  C   UNL     1       6.915   0.920  -3.759  0.00  0.00    +0.047 A 
ATOM     25  C   UNL     1       6.167   2.017  -3.384  0.00  0.00    +0.031 A 
BRANCH  23  26
ATOM     26  O   UNL     1       7.711  -1.276  -3.312  0.00  0.00    -0.507 OA
ATOM     27  H   UNL     1       8.628  -1.250  -3.007  0.00  0.00    +0.292 HD
ENDBRANCH  23  26
ENDBRANCH   8  20
BRANCH   1  29
ATOM     28  C   UNL     1       3.662   5.694   0.369  0.00  0.00    +0.025 C 
ATOM     29  C   UNL     1       2.991   5.293  -0.947  0.00  0.00    +0.112 C 
ENDBRANCH   1  29
TORSDOF 7
