REMARK  Name = ZINC51710598
REMARK  8 active torsions:
REMARK  status: ('A' for Active; 'I' for Inactive)
REMARK    1  A    between atoms: C_1  and  N_2
REMARK    2  A    between atoms: N_2  and  C_3
REMARK    3  A    between atoms: N_2  and  C_4
REMARK    4  A    between atoms: C_4  and  C_6
REMARK    5  A    between atoms: C_4  and  C_23
REMARK    6  A    between atoms: C_6  and  N_7
REMARK    7  A    between atoms: C_14  and  C_17
REMARK    8  A    between atoms: N_19  and  C_20
REMARK                            x       y       z     vdW  Elec       q    Type
REMARK                         _______ _______ _______ _____ _____    ______ ____
ROOT
ATOM      1  N   UNL     1      -1.769   1.532  -1.167  0.00  0.00    -0.300 N 
ATOM      2  C   UNL     1      -2.260   2.263  -2.188  0.00  0.00    +0.302 C 
ATOM      3  O   UNL     1      -3.008   1.750  -2.998  0.00  0.00    -0.253 OA
ATOM      4  N   UNL     1      -1.922   3.562  -2.310  0.00  0.00    -0.285 N 
ATOM      5  C   UNL     1      -0.929   4.165  -1.411  0.00  0.00    +0.109 C 
ATOM      6  C   UNL     1       0.161   4.831  -2.256  0.00  0.00    +0.020 C 
ATOM      7  C   UNL     1      -0.486   5.818  -3.230  0.00  0.00    +0.016 C 
ATOM      8  C   UNL     1      -1.433   5.066  -4.168  0.00  0.00    +0.092 C 
ATOM      9  C   UNL     1      -2.536   4.401  -3.348  0.00  0.00    +0.122 C 
ATOM     10  H   UNL     1      -1.233   1.958  -0.480  0.00  0.00    +0.150 HD
ENDROOT
BRANCH   8  11
ATOM     11  C   UNL     1      -2.044   6.033  -5.148  0.00  0.00    +0.218 C 
ATOM     12  O   UNL     1      -1.752   7.210  -5.101  0.00  0.00    -0.275 OA
ATOM     13  N   UNL     1      -2.916   5.592  -6.077  0.00  0.00    -0.312 N 
ATOM     14  H   UNL     1      -3.150   4.651  -6.114  0.00  0.00    +0.149 HD
BRANCH  13  15
ATOM     15  C   UNL     1      -3.510   6.533  -7.029  0.00  0.00    +0.073 C 
ATOM     16  C   UNL     1      -5.009   6.403  -7.308  0.00  0.00    +0.024 C 
ATOM     17  C   UNL     1      -3.994   5.972  -8.368  0.00  0.00    +0.024 C 
ENDBRANCH  13  15
ENDBRANCH   8  11
BRANCH   1  18
ATOM     18  C   UNL     1      -2.045   0.095  -1.097  0.00  0.00    +0.095 C 
BRANCH  18  19
ATOM     19  C   UNL     1      -1.277  -0.514   0.078  0.00  0.00    -0.021 C 
BRANCH  19  20
ATOM     20  C   UNL     1      -1.807   0.050   1.371  0.00  0.00    -0.059 A 
ATOM     21  C   UNL     1      -2.970  -0.457   1.920  0.00  0.00    +0.005 A 
ATOM     22  C   UNL     1      -3.457   0.059   3.106  0.00  0.00    +0.038 A 
ATOM     23  C   UNL     1      -2.779   1.084   3.745  0.00  0.00    +0.123 A 
ATOM     24  C   UNL     1      -1.614   1.590   3.194  0.00  0.00    +0.038 A 
ATOM     25  C   UNL     1      -1.127   1.069   2.010  0.00  0.00    +0.005 A 
ATOM     26  F   UNL     1      -3.254   1.590   4.904  0.00  0.00    -0.205 F 
ENDBRANCH  19  20
BRANCH  19  28
ATOM     27  C   UNL     1      -0.844  -2.534  -1.142  0.00  0.00    -0.096 C 
ATOM     28  N   UNL     1      -1.450  -1.973   0.073  0.00  0.00    +0.382 N 
ATOM     29  C   UNL     1      -0.798  -2.548   1.256  0.00  0.00    -0.096 C 
ATOM     30  H   UNL     1      -2.435  -2.195   0.090  0.00  0.00    -0.082 HD
ENDBRANCH  19  28
ENDBRANCH  18  19
ENDBRANCH   1  18
TORSDOF 6
