REMARK  Name = ZINC59363981
REMARK  6 active torsions:
REMARK  status: ('A' for Active; 'I' for Inactive)
REMARK    1  A    between atoms: C_6  and  C_7
REMARK    2  A    between atoms: C_7  and  C_8
REMARK    3  A    between atoms: C_8  and  C_9
REMARK    4  A    between atoms: C_9  and  C_10
REMARK    5  A    between atoms: N_15  and  C_18
REMARK    6  A    between atoms: C_18  and  C_19
REMARK                            x       y       z     vdW  Elec       q    Type
REMARK                         _______ _______ _______ _____ _____    ______ ____
ROOT
ATOM      1  C   UNL     1      -3.506  -2.060  -2.838  0.00  0.00    +0.216 C 
ATOM      2  O   UNL     1      -2.838  -1.652  -3.764  0.00  0.00    -0.276 OA
ATOM      3  N   UNL     1      -4.647  -2.736  -3.076  0.00  0.00    -0.299 N 
ATOM      4  C   UNL     1      -5.475  -3.234  -1.968  0.00  0.00    +0.123 C 
ATOM      5  C   UNL     1      -5.763  -4.721  -2.205  0.00  0.00    +0.104 C 
ATOM      6  N   UNL     1      -6.344  -4.896  -3.542  0.00  0.00    -0.294 NA
ATOM      7  C   UNL     1      -5.399  -4.491  -4.592  0.00  0.00    +0.104 C 
ATOM      8  C   UNL     1      -5.100  -2.990  -4.452  0.00  0.00    +0.123 C 
ENDROOT
BRANCH   1   9
ATOM      9  C   UNL     1      -3.060  -1.810  -1.420  0.00  0.00    +0.096 C 
BRANCH   9  10
ATOM     10  C   UNL     1      -1.745  -1.028  -1.429  0.00  0.00    +0.014 C 
BRANCH  10  11
ATOM     11  C   UNL     1      -1.293  -0.775   0.011  0.00  0.00    +0.035 C 
BRANCH  11  17
ATOM     12  C   UNL     1      -0.017   1.378   0.010  0.00  0.00    +0.005 A 
ATOM     13  C   UNL     1       1.171   2.086   0.002  0.00  0.00    +0.022 A 
ATOM     14  C   UNL     1       2.378   1.412  -0.013  0.00  0.00    +0.059 A 
ATOM     15  C   UNL     1       2.397   0.027  -0.021  0.00  0.00    +0.060 A 
ATOM     16  C   UNL     1       1.208  -0.680  -0.013  0.00  0.00    +0.025 A 
ATOM     17  C   UNL     1       0.002  -0.004   0.002  0.00  0.00    -0.046 A 
ATOM     18 CL   UNL     1       3.912  -0.821  -0.040  0.00  0.00    -0.082 Cl
ATOM     19 CL   UNL     1       3.869   2.301  -0.023  0.00  0.00    -0.082 Cl
ENDBRANCH  11  17
ENDBRANCH  10  11
ENDBRANCH   9  10
ENDBRANCH   1   9
BRANCH   6  20
ATOM     20  C   UNL     1      -6.793  -6.281  -3.744  0.00  0.00    +0.138 C 
BRANCH  20  21
ATOM     21  C   UNL     1      -7.598  -6.368  -5.014  0.00  0.00    +0.037 A 
ATOM     22  C   UNL     1      -7.146  -7.115  -6.082  0.00  0.00    +0.093 A 
ATOM     23  C   UNL     1      -7.906  -7.184  -7.250  0.00  0.00    +0.259 A 
ATOM     24  O   UNL     1      -7.510  -7.844  -8.198  0.00  0.00    -0.267 OA
ATOM     25  N   UNL     1      -9.093  -6.513  -7.332  0.00  0.00    -0.264 N 
ATOM     26  C   UNL     1      -9.948  -6.484  -8.407  0.00  0.00    +0.104 A 
ATOM     27  C   UNL     1     -11.084  -5.787  -8.364  0.00  0.00    +0.067 A 
ATOM     28  S   UNL     1     -11.023  -5.089  -6.721  0.00  0.00    -0.059 S 
ATOM     29  C   UNL     1      -9.466  -5.796  -6.226  0.00  0.00    +0.158 A 
ATOM     30  N   UNL     1      -8.761  -5.730  -5.125  0.00  0.00    -0.338 N 
ATOM     31  H   UNL     1      -9.089  -5.205  -4.378  0.00  0.00    +0.168 HD
ENDBRANCH  20  21
ENDBRANCH   6  20
TORSDOF 6
