REMARK  Name = ZINC05923731
REMARK  7 active torsions:
REMARK  status: ('A' for Active; 'I' for Inactive)
REMARK    1  A    between atoms: C_1  and  C_2
REMARK    2  A    between atoms: C_2  and  C_3
REMARK    3  A    between atoms: C_3  and  S_4
REMARK    4  A    between atoms: S_4  and  C_5
REMARK    5  A    between atoms: C_12  and  C_24
REMARK    6  A    between atoms: C_17  and  C_21
REMARK    7  A    between atoms: C_17  and  C_22
REMARK                            x       y       z     vdW  Elec       q    Type
REMARK                         _______ _______ _______ _____ _____    ______ ____
ROOT
ATOM      1  C   UNL     1      -3.112  -2.797   0.017  0.00  0.00    +0.171 A 
ATOM      2  N   UNL     1      -3.457  -4.115   0.019  0.00  0.00    -0.322 N 
ATOM      3  C   UNL     1      -4.778  -4.480   0.031  0.00  0.00    +0.111 A 
ATOM      4  C   UNL     1      -5.735  -3.514   0.043  0.00  0.00    +0.069 A 
ATOM      5  C   UNL     1      -5.337  -2.160   0.035  0.00  0.00    +0.280 A 
ATOM      6  N   UNL     1      -4.030  -1.853   0.031  0.00  0.00    -0.185 NA
ATOM      7  O   UNL     1      -6.177  -1.272   0.038  0.00  0.00    -0.265 OA
ATOM      8  C   UNL     1      -7.192  -3.872   0.069  0.00  0.00    +0.094 C 
ATOM      9  C   UNL     1      -7.412  -5.306  -0.344  0.00  0.00    +0.024 C 
ATOM     10  C   UNL     1      -8.709  -5.692  -0.724  0.00  0.00    +0.162 C 
ATOM     11  C   UNL     1      -9.015  -7.109  -1.124  0.00  0.00    +0.086 C 
ATOM     12  C   UNL     1      -8.040  -8.050  -0.409  0.00  0.00    -0.023 C 
ATOM     13  C   UNL     1      -6.612  -7.626  -0.759  0.00  0.00    +0.058 C 
ATOM     14  C   UNL     1      -6.393  -6.192  -0.345  0.00  0.00    +0.017 C 
ATOM     15  N   UNL     1      -5.134  -5.808   0.028  0.00  0.00    -0.304 N 
ATOM     16  C   UNL     1      -8.248  -7.954   1.104  0.00  0.00    +0.011 C 
ATOM     17  C   UNL     1      -8.278  -9.488  -0.874  0.00  0.00    +0.011 C 
ATOM     18  O   UNL     1      -9.600  -4.866  -0.728  0.00  0.00    -0.292 OA
ATOM     19  H   UNL     1      -4.486  -6.480   0.292  0.00  0.00    +0.153 HD
ATOM     20  H   UNL     1      -2.766  -4.796   0.011  0.00  0.00    +0.169 HD
ENDROOT
BRANCH   8  21
ATOM     21  C   UNL     1      -7.723  -3.675   1.465  0.00  0.00    -0.017 A 
ATOM     22  C   UNL     1      -8.761  -2.786   1.702  0.00  0.00    +0.007 A 
ATOM     23  C   UNL     1      -9.218  -2.637   3.003  0.00  0.00    +0.020 A 
ATOM     24  C   UNL     1      -8.628  -3.374   4.013  0.00  0.00    +0.111 A 
ATOM     25  N   UNL     1      -7.643  -4.210   3.750  0.00  0.00    -0.263 NA
ATOM     26  C   UNL     1      -7.187  -4.382   2.524  0.00  0.00    +0.115 A 
ENDBRANCH   8  21
BRANCH   1  27
ATOM     27  S   UNL     1      -1.409  -2.348   0.003  0.00  0.00    -0.088 S 
BRANCH  27  28
ATOM     28  C   UNL     1      -1.433  -0.534   0.013  0.00  0.00    +0.077 C 
BRANCH  28  30
ATOM     29  C   UNL     1      -0.019   1.526   0.010  0.00  0.00    +0.004 C 
ATOM     30  C   UNL     1       0.002  -0.004   0.002  0.00  0.00    +0.008 C 
ENDBRANCH  28  30
ENDBRANCH  27  28
ENDBRANCH   1  27
TORSDOF 4
