REMARK  Name = ZINC36392669
REMARK  5 active torsions:
REMARK  status: ('A' for Active; 'I' for Inactive)
REMARK    1  A    between atoms: C_4  and  C_7
REMARK    2  A    between atoms: N_15  and  C_16
REMARK    3  A    between atoms: C_16  and  C_17
REMARK    4  A    between atoms: C_17  and  C_18
REMARK    5  A    between atoms: C_18  and  N_19
REMARK                            x       y       z     vdW  Elec       q    Type
REMARK                         _______ _______ _______ _____ _____    ______ ____
ROOT
ATOM      1  C   UNL     1       3.707  -0.709  -0.037  0.00  0.00    +0.022 C 
ATOM      2  C   UNL     1       3.815  -1.593   1.208  0.00  0.00    +0.027 C 
ATOM      3  C   UNL     1       5.168  -2.311   1.204  0.00  0.00    +0.110 C 
ATOM      4  N   UNL     1       5.315  -3.036  -0.065  0.00  0.00    -0.286 N 
ATOM      5  C   UNL     1       5.141  -2.299  -1.324  0.00  0.00    +0.110 C 
ATOM      6  C   UNL     1       3.788  -1.581  -1.292  0.00  0.00    +0.027 C 
ATOM      7  C   UNL     1       5.604  -4.353  -0.074  0.00  0.00    +0.302 C 
ATOM      8  O   UNL     1       5.837  -4.931   0.970  0.00  0.00    -0.253 OA
ATOM      9  N   UNL     1       5.636  -5.027  -1.240  0.00  0.00    -0.299 N 
ATOM     10  H   UNL     1       5.524  -4.553  -2.079  0.00  0.00    +0.150 HD
ENDROOT
BRANCH   1  14
ATOM     11  C   UNL     1      -0.023   1.372   0.010  0.00  0.00    +0.000 A 
ATOM     12  C   UNL     1       1.164   2.081   0.003  0.00  0.00    +0.000 A 
ATOM     13  C   UNL     1       2.371   1.407  -0.012  0.00  0.00    +0.004 A 
ATOM     14  C   UNL     1       2.391   0.025  -0.020  0.00  0.00    -0.044 A 
ATOM     15  C   UNL     1       1.204  -0.684  -0.011  0.00  0.00    +0.004 A 
ATOM     16  C   UNL     1      -0.003  -0.010   0.003  0.00  0.00    +0.000 A 
ENDBRANCH   1  14
BRANCH   9  17
ATOM     17  C   UNL     1       5.841  -6.478  -1.242  0.00  0.00    +0.107 C 
BRANCH  17  18
ATOM     18  C   UNL     1       5.835  -6.992  -2.683  0.00  0.00    +0.038 C 
BRANCH  18  19
ATOM     19  C   UNL     1       6.049  -8.507  -2.684  0.00  0.00    +0.119 C 
BRANCH  19  20
ATOM     20  N   UNL     1       6.043  -9.000  -4.064  0.00  0.00    -0.224 N 
ATOM     21  C   UNL     1       4.936  -9.406  -4.721  0.00  0.00    +0.246 C 
ATOM     22  O   UNL     1       3.799  -9.432  -4.300  0.00  0.00    -0.273 OA
ATOM     23  C   UNL     1       5.414  -9.819  -6.090  0.00  0.00    +0.113 C 
ATOM     24  C   UNL     1       4.739  -8.983  -7.185  0.00  0.00    +0.035 C 
ATOM     25  C   UNL     1       4.564  -9.978  -8.361  0.00  0.00    +0.003 C 
ATOM     26  C   UNL     1       4.215 -11.305  -7.642  0.00  0.00    +0.003 C 
ATOM     27  C   UNL     1       5.093 -11.289  -6.370  0.00  0.00    +0.035 C 
ATOM     28  N   UNL     1       6.859  -9.584  -6.059  0.00  0.00    -0.285 N 
ATOM     29  C   UNL     1       7.136  -9.098  -4.833  0.00  0.00    +0.309 C 
ATOM     30  O   UNL     1       8.252  -8.788  -4.465  0.00  0.00    -0.252 OA
ATOM     31  H   UNL     1       7.489  -9.742  -6.779  0.00  0.00    +0.151 HD
ENDBRANCH  19  20
ENDBRANCH  18  19
ENDBRANCH  17  18
ENDBRANCH   9  17
TORSDOF 5
