REMARK  Name = ZINC35917223
REMARK  5 active torsions:
REMARK  status: ('A' for Active; 'I' for Inactive)
REMARK    1  A    between atoms: C_1  and  N_2
REMARK    2  A    between atoms: C_3  and  C_19
REMARK    3  A    between atoms: C_5  and  S_9
REMARK    4  A    between atoms: S_9  and  N_12
REMARK    5  A    between atoms: N_12  and  C_13
REMARK                            x       y       z     vdW  Elec       q    Type
REMARK                         _______ _______ _______ _____ _____    ______ ____
ROOT
ATOM      1  C   UNL     1       0.343   1.772   0.614  0.00  0.00    +0.138 C 
ATOM      2  N   UNL     1       0.481   0.311   0.544  0.00  0.00    -0.182 NA
ATOM      3  C   UNL     1      -0.839  -0.340   0.374  0.00  0.00    +0.143 C 
ATOM      4  C   UNL     1      -1.276  -0.739   1.799  0.00  0.00    +0.199 C 
ATOM      5  C   UNL     1      -0.110  -0.280   2.702  0.00  0.00    +0.215 C 
ATOM      6  O   UNL     1       1.025  -0.230   1.807  0.00  0.00    -0.295 OA
ENDROOT
BRANCH   3   7
ATOM      7  C   UNL     1      -0.711  -1.563  -0.498  0.00  0.00    -0.016 A 
ATOM      8  C   UNL     1       0.482  -2.217  -0.619  0.00  0.00    +0.023 A 
ATOM      9  C   UNL     1       0.578  -3.345  -1.431  0.00  0.00    +0.083 A 
ATOM     10  N   UNL     1      -0.455  -3.807  -2.094  0.00  0.00    -0.361 N 
ATOM     11  C   UNL     1      -1.650  -3.214  -2.019  0.00  0.00    +0.047 A 
ATOM     12  C   UNL     1      -1.818  -2.065  -1.206  0.00  0.00    +0.003 A 
ATOM     13  C   UNL     1      -3.078  -1.449  -1.127  0.00  0.00    +0.010 A 
ATOM     14  C   UNL     1      -4.125  -1.966  -1.828  0.00  0.00    +0.001 A 
ATOM     15  C   UNL     1      -3.963  -3.099  -2.623  0.00  0.00    +0.002 A 
ATOM     16  C   UNL     1      -2.754  -3.714  -2.733  0.00  0.00    +0.026 A 
ATOM     17  H   UNL     1      -0.349  -4.595  -2.650  0.00  0.00    +0.165 HD
ENDBRANCH   3   7
BRANCH   4  18
ATOM     18  S   UNL     1      -2.809   0.117   2.254  0.00  0.00    +0.037 S 
ATOM     19  O   UNL     1      -2.601   1.522   2.263  0.00  0.00    -0.158 OA
ATOM     20  O   UNL     1      -3.911  -0.448   1.556  0.00  0.00    -0.158 OA
BRANCH  18  21
ATOM     21  N   UNL     1      -3.064  -0.282   3.841  0.00  0.00    -0.191 NA
ATOM     22  H   UNL     1      -3.034   0.405   4.525  0.00  0.00    +0.148 HD
BRANCH  21  23
ATOM     23  C   UNL     1      -3.336  -1.673   4.212  0.00  0.00    +0.076 C 
ATOM     24  C   UNL     1      -4.848  -1.887   4.316  0.00  0.00    +0.020 C 
ATOM     25  C   UNL     1      -5.131  -3.340   4.703  0.00  0.00    +0.002 C 
ATOM     26  C   UNL     1      -4.479  -3.644   6.053  0.00  0.00    +0.000 C 
ATOM     27  C   UNL     1      -2.968  -3.430   5.949  0.00  0.00    +0.002 C 
ATOM     28  C   UNL     1      -2.684  -1.978   5.562  0.00  0.00    +0.020 C 
ENDBRANCH  21  23
ENDBRANCH  18  21
ENDBRANCH   4  18
TORSDOF 4
