REMARK  Name = ZINC36883288
REMARK  3 active torsions:
REMARK  status: ('A' for Active; 'I' for Inactive)
REMARK    1  A    between atoms: C_4  and  S_7
REMARK    2  A    between atoms: S_7  and  N_10
REMARK    3  A    between atoms: C_19  and  C_21
REMARK                            x       y       z     vdW  Elec       q    Type
REMARK                         _______ _______ _______ _____ _____    ______ ____
ROOT
ATOM      1  N   UNL     1       4.102  -0.933   1.649  0.00  0.00    -0.160 NA
ATOM      2  C   UNL     1       4.964   0.029   2.344  0.00  0.00    +0.145 C 
ATOM      3  C   UNL     1       4.611   0.060   3.810  0.00  0.00    -0.028 A 
ATOM      4  C   UNL     1       5.149   1.080   4.584  0.00  0.00    +0.005 A 
ATOM      5  C   UNL     1       4.871   1.156   5.933  0.00  0.00    +0.000 A 
ATOM      6  C   UNL     1       4.051   0.209   6.518  0.00  0.00    +0.000 A 
ATOM      7  C   UNL     1       3.513  -0.802   5.750  0.00  0.00    +0.004 A 
ATOM      8  C   UNL     1       3.787  -0.878   4.389  0.00  0.00    -0.041 A 
ATOM      9  C   UNL     1       3.143  -1.993   3.609  0.00  0.00    +0.065 C 
ATOM     10  C   UNL     1       3.880  -2.235   2.299  0.00  0.00    +0.170 C 
ENDROOT
BRANCH  10  11
ATOM     11  C   UNL     1       3.047  -3.116   1.404  0.00  0.00    +0.230 C 
ATOM     12  O   UNL     1       1.871  -2.872   1.238  0.00  0.00    -0.274 OA
ATOM     13  N   UNL     1       3.609  -4.176   0.789  0.00  0.00    -0.328 N 
ATOM     14  H   UNL     1       4.550  -4.371   0.922  0.00  0.00    +0.145 HD
ATOM     15  H   UNL     1       3.072  -4.743   0.213  0.00  0.00    +0.145 HD
ENDBRANCH  10  11
BRANCH   1  16
ATOM     16  S   UNL     1       3.401  -0.566   0.194  0.00  0.00    +0.062 S 
ATOM     17  O   UNL     1       3.008  -1.800  -0.390  0.00  0.00    -0.153 OA
ATOM     18  O   UNL     1       4.275   0.343  -0.461  0.00  0.00    -0.153 OA
BRANCH  16  22
ATOM     19  C   UNL     1      -0.408   1.715   1.079  0.00  0.00    +0.000 A 
ATOM     20  C   UNL     1       0.783   2.397   0.911  0.00  0.00    +0.002 A 
ATOM     21  C   UNL     1       1.946   1.700   0.641  0.00  0.00    +0.028 A 
ATOM     22  C   UNL     1       1.919   0.322   0.540  0.00  0.00    +0.106 A 
ATOM     23  C   UNL     1       0.728  -0.360   0.709  0.00  0.00    +0.028 A 
ATOM     24  C   UNL     1      -0.435   0.337   0.977  0.00  0.00    +0.002 A 
ENDBRANCH  16  22
ENDBRANCH   1  16
TORSDOF 3
