REMARK  Name = ZINC45165975
REMARK  5 active torsions:
REMARK  status: ('A' for Active; 'I' for Inactive)
REMARK    1  A    between atoms: C_1  and  C_2
REMARK    2  A    between atoms: C_5  and  C_21
REMARK    3  A    between atoms: N_8  and  S_10
REMARK    4  A    between atoms: S_10  and  C_13
REMARK    5  A    between atoms: C_14  and  N_20
REMARK                            x       y       z     vdW  Elec       q    Type
REMARK                         _______ _______ _______ _____ _____    ______ ____
ROOT
ATOM      1  S   UNL     1       2.997   0.808   2.631  0.00  0.00    +0.064 S 
ATOM      2  O   UNL     1       2.130   0.515   3.718  0.00  0.00    -0.153 OA
ATOM      3  O   UNL     1       4.408   0.670   2.724  0.00  0.00    -0.153 OA
ENDROOT
BRANCH   1   9
ATOM      4  C   UNL     1       0.406   1.253  -0.147  0.00  0.00    +0.009 C 
ATOM      5  C   UNL     1       0.531  -0.269  -0.055  0.00  0.00    +0.002 C 
ATOM      6  C   UNL     1       1.443  -0.775  -1.175  0.00  0.00    +0.009 C 
ATOM      7  C   UNL     1       2.818  -0.114  -1.053  0.00  0.00    +0.002 C 
ATOM      8  C   UNL     1       3.446  -0.495   0.291  0.00  0.00    +0.112 C 
ATOM      9  N   UNL     1       2.510  -0.143   1.367  0.00  0.00    -0.176 NA
ATOM     10  C   UNL     1       1.133  -0.652   1.301  0.00  0.00    +0.112 C 
ATOM     11  C   UNL     1       3.719  -0.595  -2.193  0.00  0.00    +0.009 C 
ENDBRANCH   1   9
BRANCH   1  12
ATOM     12  C   UNL     1       2.685   2.481   2.175  0.00  0.00    +0.144 A 
ATOM     13  C   UNL     1       3.610   3.177   1.407  0.00  0.00    +0.053 A 
ATOM     14  C   UNL     1       3.360   4.496   1.050  0.00  0.00    +0.025 A 
ATOM     15  C   UNL     1       2.192   5.112   1.458  0.00  0.00    +0.003 A 
ATOM     16  C   UNL     1       1.273   4.417   2.222  0.00  0.00    +0.022 A 
ATOM     17  C   UNL     1       1.516   3.101   2.575  0.00  0.00    +0.069 A 
ATOM     18 CL   UNL     1       0.355   2.231   3.528  0.00  0.00    -0.081 Cl
BRANCH  13  19
ATOM     19  N   UNL     1       4.790   2.553   0.997  0.00  0.00    -0.356 N 
ATOM     20  H   UNL     1       4.895   1.595   1.107  0.00  0.00    +0.142 HD
ATOM     21  H   UNL     1       5.504   3.076   0.602  0.00  0.00    +0.142 HD
ENDBRANCH  13  19
ENDBRANCH   1  12
TORSDOF 3
