REMARK  Name = ZINC01414617
REMARK  5 active torsions:
REMARK  status: ('A' for Active; 'I' for Inactive)
REMARK    1  A    between atoms: C_6  and  C_7
REMARK    2  A    between atoms: C_9  and  C_10
REMARK    3  A    between atoms: N_16  and  S_17
REMARK    4  A    between atoms: S_17  and  C_20
REMARK    5  A    between atoms: C_23  and  N_26
REMARK                            x       y       z     vdW  Elec       q    Type
REMARK                         _______ _______ _______ _____ _____    ______ ____
ROOT
ATOM      1  C   UNL     1      -2.426  -2.869   0.011  0.00  0.00    +0.135 C 
ATOM      2  C   UNL     1      -2.594  -4.361   0.011  0.00  0.00    +0.289 C 
ATOM      3  O   UNL     1      -1.716  -5.203   0.004  0.00  0.00    -0.266 OA
ATOM      4  N   UNL     1      -3.917  -4.566   0.020  0.00  0.00    -0.141 NA
ATOM      5  C   UNL     1      -4.535  -3.388   0.026  0.00  0.00    +0.228 C 
ATOM      6  N   UNL     1      -3.667  -2.376   0.026  0.00  0.00    -0.211 NA
ATOM      7  N   UNL     1      -5.897  -3.235   0.036  0.00  0.00    -0.186 N 
ATOM      8  H   UNL     1      -6.284  -2.345   0.039  0.00  0.00    +0.177 HD
ENDROOT
BRANCH   1  11
ATOM      9  C   UNL     1      -1.258  -0.760   0.011  0.00  0.00    +0.188 C 
ATOM     10  O   UNL     1      -2.436  -0.105   0.026  0.00  0.00    -0.287 OA
ATOM     11  C   UNL     1      -1.234  -2.155   0.003  0.00  0.00    +0.084 C 
BRANCH   9  17
ATOM     12  C   UNL     1      -0.017   1.397   0.010  0.00  0.00    +0.013 A 
ATOM     13  C   UNL     1       1.169   2.098   0.002  0.00  0.00    +0.016 A 
ATOM     14  C   UNL     1       2.378   1.421  -0.013  0.00  0.00    +0.018 A 
ATOM     15  C   UNL     1       2.406   0.035  -0.021  0.00  0.00    +0.016 A 
ATOM     16  C   UNL     1       1.229  -0.680  -0.013  0.00  0.00    +0.013 A 
ATOM     17  C   UNL     1       0.002  -0.004   0.002  0.00  0.00    +0.022 A 
ATOM     18 BR   UNL     1       4.000   2.394  -0.025  0.00  0.00    -0.050 Br
ENDBRANCH   9  17
ENDBRANCH   1  11
BRANCH   7  19
ATOM     19  S   UNL     1      -6.881  -4.567   0.042  0.00  0.00    +0.074 S 
ATOM     20  O   UNL     1      -8.217  -4.085   0.079  0.00  0.00    -0.150 OA
ATOM     21  O   UNL     1      -6.409  -5.425  -0.987  0.00  0.00    -0.150 OA
BRANCH  19  22
ATOM     22  C   UNL     1      -6.607  -5.409   1.565  0.00  0.00    +0.109 A 
ATOM     23  C   UNL     1      -5.626  -6.380   1.650  0.00  0.00    +0.030 A 
ATOM     24  C   UNL     1      -5.408  -7.043   2.842  0.00  0.00    +0.024 A 
ATOM     25  C   UNL     1      -6.176  -6.732   3.957  0.00  0.00    +0.025 A 
ATOM     26  C   UNL     1      -7.161  -5.756   3.869  0.00  0.00    +0.024 A 
ATOM     27  C   UNL     1      -7.369  -5.094   2.675  0.00  0.00    +0.030 A 
BRANCH  25  28
ATOM     28  N   UNL     1      -5.960  -7.401   5.164  0.00  0.00    -0.358 N 
ATOM     29  H   UNL     1      -5.272  -8.082   5.225  0.00  0.00    +0.142 HD
ATOM     30  H   UNL     1      -6.497  -7.183   5.942  0.00  0.00    +0.142 HD
ENDBRANCH  25  28
ENDBRANCH  19  22
ENDBRANCH   7  19
TORSDOF 5
