REMARK  Name = ZINC33545795
REMARK  8 active torsions:
REMARK  status: ('A' for Active; 'I' for Inactive)
REMARK    1  A    between atoms: C_1  and  N_2
REMARK    2  A    between atoms: N_2  and  C_3
REMARK    3  A    between atoms: N_2  and  C_4
REMARK    4  A    between atoms: C_4  and  C_5
REMARK    5  A    between atoms: C_5  and  N_6
REMARK    6  A    between atoms: C_7  and  C_26
REMARK    7  A    between atoms: C_31  and  O_32
REMARK    8  A    between atoms: O_32  and  C_33
REMARK                            x       y       z     vdW  Elec       q    Type
REMARK                         _______ _______ _______ _____ _____    ______ ____
ROOT
ATOM      1  N   UNL     1      -0.761   7.718   0.053  0.00  0.00    -0.285 N 
ATOM      2  C   UNL     1       0.707   7.722   0.039  0.00  0.00    +0.148 C 
ATOM      3  C   UNL     1       1.126   6.275   0.026  0.00  0.00    +0.072 A 
ATOM      4  C   UNL     1       2.435   5.619   0.011  0.00  0.00    +0.199 A 
ATOM      5  O   UNL     1       3.472   6.261   0.005  0.00  0.00    -0.287 OA
ATOM      6  C   UNL     1       2.439   4.144   0.002  0.00  0.00    +0.065 A 
ATOM      7  C   UNL     1       3.645   3.423  -0.013  0.00  0.00    +0.016 A 
ATOM      8  C   UNL     1       3.640   2.068  -0.023  0.00  0.00    +0.009 A 
ATOM      9  C   UNL     1       2.418   1.362  -0.014  0.00  0.00    -0.014 A 
ATOM     10  C   UNL     1       2.398  -0.041  -0.021  0.00  0.00    +0.008 A 
ATOM     11  C   UNL     1       1.206  -0.702  -0.013  0.00  0.00    +0.001 A 
ATOM     12  C   UNL     1       0.002  -0.004   0.002  0.00  0.00    +0.001 A 
ATOM     13  C   UNL     1      -0.016   1.359   0.009  0.00  0.00    +0.012 A 
ATOM     14  C   UNL     1       1.192   2.070   0.002  0.00  0.00    +0.025 A 
ATOM     15  C   UNL     1       1.206   3.484   0.010  0.00  0.00    +0.147 A 
ATOM     16  O   UNL     1       0.057   4.178   0.024  0.00  0.00    -0.449 OA
ATOM     17  C   UNL     1      -0.003   5.524   0.032  0.00  0.00    +0.199 A 
ATOM     18  C   UNL     1      -1.172   6.438   0.049  0.00  0.00    +0.283 C 
ATOM     19  O   UNL     1      -2.333   6.080   0.057  0.00  0.00    -0.267 OA
ENDROOT
BRANCH   2  20
ATOM     20  C   UNL     1       1.237   8.405   1.274  0.00  0.00    +0.019 A 
ATOM     21  C   UNL     1       0.454   8.488   2.409  0.00  0.00    +0.009 A 
ATOM     22  C   UNL     1       0.939   9.114   3.541  0.00  0.00    +0.001 A 
ATOM     23  C   UNL     1       2.210   9.659   3.542  0.00  0.00    +0.004 A 
ATOM     24  C   UNL     1       2.998   9.578   2.410  0.00  0.00    +0.046 A 
ATOM     25  C   UNL     1       2.515   8.945   1.274  0.00  0.00    +0.125 A 
BRANCH  25  26
ATOM     26  O   UNL     1       3.290   8.860   0.160  0.00  0.00    -0.495 OA
ATOM     27  C   UNL     1       4.594   9.439   0.232  0.00  0.00    +0.277 C 
ENDBRANCH  25  26
ENDBRANCH   2  20
BRANCH   1  28
ATOM     28  C   UNL     1      -1.626   8.900   0.069  0.00  0.00    +0.090 C 
BRANCH  28  29
ATOM     29  C   UNL     1      -1.940   9.320  -1.368  0.00  0.00    -0.060 C 
BRANCH  29  31
ATOM     30  C   UNL     1      -2.939  11.080  -2.699  0.00  0.00    -0.097 C 
ATOM     31  N   UNL     1      -2.808  10.506  -1.353  0.00  0.00    +0.377 N 
ATOM     32  C   UNL     1      -4.125  10.187  -0.786  0.00  0.00    -0.097 C 
ATOM     33  H   UNL     1      -2.336  11.262  -0.708  0.00  0.00    -0.083 HD
ENDBRANCH  29  31
ENDBRANCH  28  29
ENDBRANCH   1  28
TORSDOF 5
