REMARK  Name = ZINC02280051
REMARK  5 active torsions:
REMARK  status: ('A' for Active; 'I' for Inactive)
REMARK    1  A    between atoms: C_1  and  C_2
REMARK    2  A    between atoms: C_2  and  S_3
REMARK    3  A    between atoms: S_3  and  C_4
REMARK    4  A    between atoms: N_19  and  C_20
REMARK    5  A    between atoms: C_23  and  C_26
REMARK                            x       y       z     vdW  Elec       q    Type
REMARK                         _______ _______ _______ _____ _____    ______ ____
ROOT
ATOM      1  C   UNL     1      -1.829   3.960  -5.280  0.00  0.00    +0.198 A 
ATOM      2  N   UNL     1      -1.084   4.235  -6.324  0.00  0.00    -0.120 NA
ATOM      3  N   UNL     1       0.055   3.422  -6.270  0.00  0.00    -0.109 NA
ATOM      4  C   UNL     1      -0.028   2.675  -5.195  0.00  0.00    +0.245 A 
ATOM      5  N   UNL     1      -1.197   2.987  -4.552  0.00  0.00    -0.249 N 
ATOM      6  C   UNL     1      -1.535   2.343  -3.382  0.00  0.00    +0.102 A 
ATOM      7  C   UNL     1      -0.723   1.370  -2.818  0.00  0.00    +0.075 A 
ATOM      8  C   UNL     1      -1.213   0.768  -1.567  0.00  0.00    -0.023 A 
ATOM      9  C   UNL     1      -2.389   1.233  -1.115  0.00  0.00    -0.004 A 
ATOM     10  S   UNL     1      -2.878   2.455  -2.308  0.00  0.00    -0.074 S 
ATOM     11  C   UNL     1      -2.806   0.566   0.168  0.00  0.00    +0.043 C 
ATOM     12  C   UNL     1      -1.512  -0.092   0.703  0.00  0.00    +0.010 C 
ATOM     13  C   UNL     1      -0.709  -0.301  -0.597  0.00  0.00    +0.037 C 
ATOM     14  C   UNL     1       0.531   1.057  -3.539  0.00  0.00    +0.268 A 
ATOM     15  O   UNL     1       1.294   0.214  -3.104  0.00  0.00    -0.266 OA
ATOM     16  N   UNL     1       0.823   1.710  -4.677  0.00  0.00    -0.245 N 
ENDROOT
BRANCH  16  17
ATOM     17  C   UNL     1       2.010   1.409  -5.354  0.00  0.00    +0.053 A 
ATOM     18  C   UNL     1       2.027   0.412  -6.321  0.00  0.00    +0.026 A 
ATOM     19  C   UNL     1       3.199   0.121  -6.990  0.00  0.00    +0.005 A 
ATOM     20  C   UNL     1       4.358   0.814  -6.692  0.00  0.00    -0.050 A 
ATOM     21  C   UNL     1       4.346   1.804  -5.726  0.00  0.00    +0.005 A 
ATOM     22  C   UNL     1       3.176   2.103  -5.057  0.00  0.00    +0.026 A 
ATOM     23  C   UNL     1       5.637   0.490  -7.421  0.00  0.00    +0.044 C 
ENDBRANCH  16  17
BRANCH   1  24
ATOM     24  S   UNL     1      -3.373   4.711  -4.885  0.00  0.00    -0.086 S 
BRANCH  24  26
ATOM     25  C   UNL     1      -4.966   6.630  -6.008  0.00  0.00    +0.016 C 
ATOM     26  C   UNL     1      -3.641   5.898  -6.230  0.00  0.00    +0.074 C 
ENDBRANCH  24  26
ENDBRANCH   1  24
TORSDOF 3
