REMARK  Name = ZINC35363891
REMARK  8 active torsions:
REMARK  status: ('A' for Active; 'I' for Inactive)
REMARK    1  A    between atoms: C_1  and  C_2
REMARK    2  A    between atoms: C_16  and  C_19
REMARK    3  A    between atoms: C_19  and  C_20
REMARK    4  A    between atoms: C_19  and  C_21
REMARK    5  A    between atoms: N_24  and  C_27
REMARK    6  A    between atoms: C_27  and  C_28
REMARK    7  A    between atoms: C_31  and  O_34
REMARK    8  A    between atoms: O_34  and  C_35
REMARK                            x       y       z     vdW  Elec       q    Type
REMARK                         _______ _______ _______ _____ _____    ______ ____
ROOT
ATOM      1  C   UNL     1       0.958   1.515   0.746  0.00  0.00    +0.045 C 
ATOM      2  C   UNL     1       0.898   0.012   0.663  0.00  0.00    -0.029 A 
ATOM      3  C   UNL     1       1.098  -0.619  -0.548  0.00  0.00    +0.005 A 
ATOM      4  C   UNL     1       1.046  -1.998  -0.634  0.00  0.00    +0.001 A 
ATOM      5  C   UNL     1       0.791  -2.749   0.500  0.00  0.00    +0.008 A 
ATOM      6  C   UNL     1       0.592  -2.124   1.710  0.00  0.00    +0.004 A 
ATOM      7  C   UNL     1       0.647  -0.737   1.810  0.00  0.00    +0.042 A 
ATOM      8  N   UNL     1       0.423  -0.339   3.130  0.00  0.00    -0.283 N 
ATOM      9  C   UNL     1       0.218  -1.388   3.949  0.00  0.00    +0.243 C 
ATOM     10  O   UNL     1       0.000  -1.345   5.142  0.00  0.00    -0.273 OA
ATOM     11  C   UNL     1       0.300  -2.624   3.096  0.00  0.00    +0.136 C 
ATOM     12  C   UNL     1       1.401  -3.567   3.597  0.00  0.00    +0.122 C 
ATOM     13  C   UNL     1       0.845  -4.994   3.330  0.00  0.00    +0.107 C 
ATOM     14  C   UNL     1      -0.534  -4.765   2.675  0.00  0.00    +0.070 C 
ATOM     15  N   UNL     1      -0.949  -3.407   3.136  0.00  0.00    -0.295 NA
ATOM     16  C   UNL     1       0.665  -5.564   4.718  0.00  0.00    +0.227 C 
ATOM     17  O   UNL     1       0.240  -6.671   4.971  0.00  0.00    -0.275 OA
ATOM     18  N   UNL     1       1.048  -4.657   5.624  0.00  0.00    -0.237 N 
ATOM     19  C   UNL     1       1.491  -3.489   5.104  0.00  0.00    +0.229 C 
ATOM     20  O   UNL     1       1.893  -2.534   5.733  0.00  0.00    -0.275 OA
ATOM     21  H   UNL     1       0.416   0.586   3.422  0.00  0.00    +0.155 HD
ATOM     22  H   UNL     1      -1.330  -3.433   4.070  0.00  0.00    +0.124 HD
ENDROOT
BRANCH  14  23
ATOM     23  C   UNL     1      -1.537  -5.810   3.167  0.00  0.00    +0.001 C 
ATOM     24  C   UNL     1      -2.928  -5.479   2.621  0.00  0.00    +0.009 C 
ATOM     25  C   UNL     1      -1.113  -7.195   2.675  0.00  0.00    +0.009 C 
ENDBRANCH  14  23
BRANCH  18  26
ATOM     26  C   UNL     1       0.998  -4.909   7.066  0.00  0.00    +0.151 C 
BRANCH  26  27
ATOM     27  C   UNL     1       2.304  -5.509   7.517  0.00  0.00    -0.029 A 
ATOM     28  C   UNL     1       2.472  -6.881   7.512  0.00  0.00    +0.009 A 
ATOM     29  C   UNL     1       3.668  -7.434   7.925  0.00  0.00    +0.046 A 
ATOM     30  C   UNL     1       4.703  -6.611   8.345  0.00  0.00    +0.120 A 
ATOM     31  C   UNL     1       4.533  -5.234   8.349  0.00  0.00    +0.046 A 
ATOM     32  C   UNL     1       3.336  -4.686   7.930  0.00  0.00    +0.009 A 
BRANCH  30  33
ATOM     33  O   UNL     1       5.881  -7.153   8.752  0.00  0.00    -0.495 OA
ATOM     34  C   UNL     1       6.902  -6.245   9.171  0.00  0.00    +0.277 C 
ENDBRANCH  30  33
ENDBRANCH  26  27
ENDBRANCH  18  26
TORSDOF 4
