REMARK  Name = ZINC49211672
REMARK  7 active torsions:
REMARK  status: ('A' for Active; 'I' for Inactive)
REMARK    1  A    between atoms: C_1  and  C_2
REMARK    2  A    between atoms: C_3  and  C_21
REMARK    3  A    between atoms: C_5  and  N_9
REMARK    4  A    between atoms: C_6  and  C_7
REMARK    5  A    between atoms: C_16  and  C_18
REMARK    6  A    between atoms: C_18  and  C_19
REMARK    7  A    between atoms: C_18  and  C_20
REMARK                            x       y       z     vdW  Elec       q    Type
REMARK                         _______ _______ _______ _____ _____    ______ ____
ROOT
ATOM      1  N   UNL     1       0.518  -3.097   2.609  0.00  0.00    -0.263 N 
ATOM      2  C   UNL     1       0.407  -4.342   2.107  0.00  0.00    +0.307 C 
ATOM      3  O   UNL     1       0.453  -4.520   0.905  0.00  0.00    -0.252 OA
ATOM      4  N   UNL     1       0.244  -5.391   2.937  0.00  0.00    -0.282 N 
ATOM      5  C   UNL     1       0.268  -5.333   4.410  0.00  0.00    +0.110 C 
ATOM      6  C   UNL     1      -0.549  -6.567   4.869  0.00  0.00    +0.021 C 
ATOM      7  C   UNL     1      -0.139  -7.624   3.809  0.00  0.00    +0.024 C 
ATOM      8  C   UNL     1       0.008  -6.783   2.524  0.00  0.00    +0.080 C 
ATOM      9  H   UNL     1       0.482  -2.955   3.568  0.00  0.00    +0.157 HD
ENDROOT
BRANCH   1  14
ATOM     10  C   UNL     1       1.135   1.733   1.214  0.00  0.00    +0.046 C 
ATOM     11  C   UNL     1       0.981   0.250   0.992  0.00  0.00    -0.021 A 
ATOM     12  C   UNL     1       0.987  -0.293  -0.240  0.00  0.00    -0.007 A 
ATOM     13  S   UNL     1       0.775  -2.031   0.078  0.00  0.00    -0.077 S 
ATOM     14  C   UNL     1       0.686  -2.016   1.754  0.00  0.00    +0.091 A 
ATOM     15  C   UNL     1       0.824  -0.678   2.088  0.00  0.00    +0.083 A 
ATOM     16  C   UNL     1       1.136   0.403  -1.568  0.00  0.00    +0.052 C 
BRANCH  15  17
ATOM     17  C   UNL     1       0.805  -0.237   3.451  0.00  0.00    +0.102 C 
ATOM     18  N   UNL     1       0.791   0.113   4.531  0.00  0.00    -0.191 NA
ENDBRANCH  15  17
ENDBRANCH   1  14
BRANCH   8  19
ATOM     19  C   UNL     1       1.197  -7.291   1.706  0.00  0.00    +0.003 C 
ATOM     20  C   UNL     1       2.473  -7.189   2.543  0.00  0.00    +0.009 C 
ATOM     21  C   UNL     1       0.959  -8.751   1.314  0.00  0.00    +0.009 C 
ENDBRANCH   8  19
TORSDOF 3
