REMARK  Name = ZINC25425810
REMARK  7 active torsions:
REMARK  status: ('A' for Active; 'I' for Inactive)
REMARK    1  A    between atoms: C_1  and  C_2
REMARK    2  A    between atoms: C_9  and  C_16
REMARK    3  A    between atoms: C_11  and  O_12
REMARK    4  A    between atoms: C_16  and  O_17
REMARK    5  A    between atoms: O_17  and  C_18
REMARK    6  A    between atoms: C_18  and  C_20
REMARK    7  A    between atoms: C_29  and  C_32
REMARK                            x       y       z     vdW  Elec       q    Type
REMARK                         _______ _______ _______ _____ _____    ______ ____
ROOT
ATOM      1  O   UNL     1      -3.420  -6.730  -0.022  0.00  0.00    -0.459 OA
ENDROOT
BRANCH   1   2
ATOM      2  C   UNL     1      -4.594  -7.380  -0.032  0.00  0.00    +0.314 C 
ATOM      3  O   UNL     1      -4.617  -8.587   0.013  0.00  0.00    -0.250 OA
BRANCH   2   4
ATOM      4  C   UNL     1      -5.884  -6.604  -0.098  0.00  0.00    +0.069 C 
ATOM      5  C   UNL     1      -5.984  -5.677   1.115  0.00  0.00    +0.021 C 
ATOM      6  C   UNL     1      -7.294  -4.888   1.048  0.00  0.00    -0.009 C 
ATOM      7  C   UNL     1      -7.322  -4.055  -0.234  0.00  0.00    +0.007 C 
ATOM      8  C   UNL     1      -7.222  -4.982  -1.447  0.00  0.00    -0.009 C 
ATOM      9  C   UNL     1      -5.913  -5.770  -1.380  0.00  0.00    +0.021 C 
ATOM     10  C   UNL     1      -8.403  -5.954  -1.445  0.00  0.00    +0.015 C 
ATOM     11  C   UNL     1      -8.375  -6.788  -0.162  0.00  0.00    -0.003 C 
ATOM     12  C   UNL     1      -8.475  -5.861   1.051  0.00  0.00    +0.015 C 
ATOM     13  C   UNL     1      -7.066  -7.576  -0.095  0.00  0.00    +0.029 C 
BRANCH  11  14
ATOM     14  C   UNL     1      -9.539  -7.745  -0.160  0.00  0.00    -0.041 A 
ATOM     15  C   UNL     1      -9.312  -9.108  -0.097  0.00  0.00    +0.004 A 
ATOM     16  C   UNL     1     -10.380  -9.986  -0.095  0.00  0.00    +0.000 A 
ATOM     17  C   UNL     1     -11.673  -9.503  -0.155  0.00  0.00    +0.000 A 
ATOM     18  C   UNL     1     -11.899  -8.140  -0.217  0.00  0.00    +0.000 A 
ATOM     19  C   UNL     1     -10.832  -7.262  -0.215  0.00  0.00    +0.004 A 
ENDBRANCH  11  14
ENDBRANCH   2   4
ENDBRANCH   1   2
BRANCH   1  20
ATOM     20  C   UNL     1      -2.237  -7.529   0.042  0.00  0.00    +0.268 C 
BRANCH  20  29
ATOM     21  C   UNL     1       5.144  -6.630  -4.717  0.00  0.00    +0.109 C 
ATOM     22  C   UNL     1       4.118  -6.612  -3.613  0.00  0.00    +0.214 C 
ATOM     23  O   UNL     1       4.387  -6.103  -2.539  0.00  0.00    -0.276 OA
ATOM     24  N   UNL     1       2.929  -7.149  -3.808  0.00  0.00    -0.286 N 
ATOM     25  C   UNL     1       1.960  -7.019  -2.861  0.00  0.00    +0.037 A 
ATOM     26  C   UNL     1       0.840  -7.869  -2.887  0.00  0.00    +0.024 A 
ATOM     27  C   UNL     1      -0.134  -7.750  -1.947  0.00  0.00    +0.014 A 
ATOM     28  C   UNL     1      -0.025  -6.773  -0.942  0.00  0.00    +0.024 A 
ATOM     29  C   UNL     1      -1.025  -6.634   0.043  0.00  0.00    +0.007 A 
ATOM     30  C   UNL     1      -0.869  -5.659   1.008  0.00  0.00    +0.095 A 
ATOM     31  C   UNL     1       0.253  -4.843   0.993  0.00  0.00    +0.285 A 
ATOM     32  O   UNL     1       1.199  -4.978   0.057  0.00  0.00    -0.425 OA
ATOM     33  C   UNL     1       1.097  -5.915  -0.909  0.00  0.00    +0.141 A 
ATOM     34  C   UNL     1       2.086  -6.048  -1.867  0.00  0.00    +0.070 A 
ATOM     35  H   UNL     1       2.746  -7.636  -4.627  0.00  0.00    +0.155 HD
BRANCH  31  36
ATOM     36  O   UNL     1       0.393  -3.896   1.940  0.00  0.00    -0.480 OA
ATOM     37  H   UNL     1       1.202  -3.373   1.856  0.00  0.00    +0.295 HD
ENDBRANCH  31  36
ENDBRANCH  20  29
ENDBRANCH   1  20
TORSDOF 6
