REMARK  Name = ZINC64318730
REMARK  3 active torsions:
REMARK  status: ('A' for Active; 'I' for Inactive)
REMARK    1  A    between atoms: C_1  and  C_2
REMARK    2  A    between atoms: C_12  and  C_14
REMARK    3  A    between atoms: C_17  and  N_20
REMARK                            x       y       z     vdW  Elec       q    Type
REMARK                         _______ _______ _______ _____ _____    ______ ____
ROOT
ATOM      1  C   UNL     1      -1.452   1.582  -0.857  0.00  0.00    +0.007 C 
ATOM      2  C   UNL     1      -0.505   0.462  -0.421  0.00  0.00    -0.014 C 
ATOM      3  C   UNL     1      -1.322  -0.714   0.116  0.00  0.00    +0.005 C 
ATOM      4  C   UNL     1      -2.138  -0.268   1.333  0.00  0.00    +0.023 C 
ATOM      5  C   UNL     1      -1.183   0.238   2.414  0.00  0.00    +0.079 C 
ATOM      6  C   UNL     1      -0.400   1.436   1.869  0.00  0.00    +0.010 C 
ATOM      7  C   UNL     1       0.433   0.985   0.670  0.00  0.00    +0.008 C 
ATOM      8  C   UNL     1       0.499   1.990   2.973  0.00  0.00    +0.007 C 
ATOM      9  C   UNL     1      -0.372   2.478   4.135  0.00  0.00    +0.019 C 
ATOM     10  C   UNL     1      -1.185   1.308   4.696  0.00  0.00    +0.108 C 
ATOM     11  N   UNL     1      -1.930   0.669   3.601  0.00  0.00    -0.294 N 
ATOM     12  C   UNL     1      -3.263   0.485   3.684  0.00  0.00    +0.247 C 
ATOM     13  O   UNL     1      -3.879   0.056   2.728  0.00  0.00    -0.270 OA
ENDROOT
BRANCH  12  14
ATOM     14  C   UNL     1      -3.975   0.805   4.938  0.00  0.00    +0.037 A 
ATOM     15  C   UNL     1      -3.377   0.533   6.171  0.00  0.00    +0.015 A 
ATOM     16  C   UNL     1      -4.045   0.833   7.339  0.00  0.00    +0.028 A 
ATOM     17  C   UNL     1      -5.311   1.405   7.291  0.00  0.00    +0.069 A 
ATOM     18  C   UNL     1      -5.908   1.677   6.065  0.00  0.00    +0.028 A 
ATOM     19  C   UNL     1      -5.245   1.385   4.894  0.00  0.00    +0.015 A 
BRANCH  17  20
ATOM     20  N   UNL     1      -5.986   1.708   8.479  0.00  0.00    -0.200 N 
ATOM     21  C   UNL     1      -7.214   2.256   8.608  0.00  0.00    +0.250 A 
ATOM     22  N   UNL     1      -7.457   2.365   9.888  0.00  0.00    -0.116 NA
ATOM     23  N   UNL     1      -6.468   1.924  10.577  0.00  0.00    -0.023 NA
ATOM     24  N   UNL     1      -5.534   1.501   9.794  0.00  0.00    -0.039 NA
ENDBRANCH  17  20
ENDBRANCH  12  14
TORSDOF 2
