REMARK  Name = ZINC31914547
REMARK  6 active torsions:
REMARK  status: ('A' for Active; 'I' for Inactive)
REMARK    1  A    between atoms: C_1  and  C_2
REMARK    2  A    between atoms: C_9  and  C_13
REMARK    3  A    between atoms: C_10  and  C_11
REMARK    4  A    between atoms: C_11  and  O_12
REMARK    5  A    between atoms: C_16  and  C_20
REMARK    6  A    between atoms: C_17  and  C_19
REMARK                            x       y       z     vdW  Elec       q    Type
REMARK                         _______ _______ _______ _____ _____    ______ ____
ROOT
ATOM      1  C   UNL     1      -2.507   1.017  -0.024  0.00  0.00    +0.044 C 
ATOM      2  C   UNL     1      -1.201   1.768   0.006  0.00  0.00    -0.046 A 
ATOM      3  C   UNL     1      -1.194   3.170   0.099  0.00  0.00    +0.021 A 
ATOM      4  C   UNL     1      -0.027   3.845   0.119  0.00  0.00    +0.093 A 
ATOM      5  N   UNL     1       1.164   3.179   0.055  0.00  0.00    -0.301 N 
ATOM      6  C   UNL     1       1.190   1.811  -0.031  0.00  0.00    +0.139 A 
ATOM      7  C   UNL     1      -0.022   1.091  -0.053  0.00  0.00    +0.050 A 
ATOM      8  N   UNL     1       2.455   1.422  -0.079  0.00  0.00    -0.227 NA
ATOM      9  C   UNL     1       3.250   2.502  -0.027  0.00  0.00    +0.095 A 
ATOM     10  C   UNL     1       2.461   3.610   0.057  0.00  0.00    +0.076 A 
ENDROOT
BRANCH   9  11
ATOM     11  C   UNL     1       4.734   2.492  -0.054  0.00  0.00    +0.002 A 
ATOM     12  C   UNL     1       5.455   3.332   0.792  0.00  0.00    +0.010 A 
ATOM     13  C   UNL     1       6.834   3.319   0.762  0.00  0.00    +0.004 A 
ATOM     14  C   UNL     1       7.502   2.473  -0.106  0.00  0.00    -0.047 A 
ATOM     15  C   UNL     1       6.791   1.637  -0.948  0.00  0.00    -0.047 A 
ATOM     16  C   UNL     1       5.411   1.639  -0.923  0.00  0.00    +0.013 A 
ATOM     17  C   UNL     1       7.525   0.718  -1.890  0.00  0.00    +0.044 C 
ATOM     18  C   UNL     1       9.008   2.463  -0.134  0.00  0.00    +0.044 C 
ENDBRANCH   9  11
BRANCH  10  19
ATOM     19  C   UNL     1       2.930   5.040   0.138  0.00  0.00    +0.211 C 
BRANCH  19  20
ATOM     20  O   UNL     1       2.979   5.448   1.506  0.00  0.00    -0.389 OA
ATOM     21  H   UNL     1       3.301   6.468   1.764  0.00  0.00    +0.210 HD
ENDBRANCH  19  20
ENDBRANCH  10  19
TORSDOF 3
