REMARK  Name = ZINC44662353
REMARK  8 active torsions:
REMARK  status: ('A' for Active; 'I' for Inactive)
REMARK    1  A    between atoms: C_1  and  C_2
REMARK    2  A    between atoms: C_2  and  N_3
REMARK    3  A    between atoms: C_4  and  C_6
REMARK    4  A    between atoms: C_6  and  S_7
REMARK    5  A    between atoms: S_7  and  C_8
REMARK    6  A    between atoms: C_12  and  C_21
REMARK    7  A    between atoms: N_13  and  C_14
REMARK    8  A    between atoms: C_19  and  C_20
REMARK                            x       y       z     vdW  Elec       q    Type
REMARK                         _______ _______ _______ _____ _____    ______ ____
ROOT
ATOM      1  C   UNL     1       2.329  -4.596  -4.370  0.00  0.00    +0.241 C 
ATOM      2  N   UNL     1       1.614  -3.851  -5.420  0.00  0.00    -0.237 N 
ATOM      3  N   UNL     1       2.526  -2.927  -5.942  0.00  0.00    -0.169 NA
ATOM      4  C   UNL     1       3.687  -3.017  -5.348  0.00  0.00    +0.151 C 
ATOM      5  N   UNL     1       3.680  -4.013  -4.364  0.00  0.00    -0.254 N 
ATOM      6  H   UNL     1       0.693  -3.977  -5.696  0.00  0.00    +0.171 HD
ENDROOT
BRANCH   4   7
ATOM      7  C   UNL     1       4.799  -2.219  -5.658  0.00  0.00    +0.022 C 
ATOM      8  C   UNL     1       4.871  -1.210  -6.619  0.00  0.00    +0.006 A 
ATOM      9  C   UNL     1       3.927  -0.693  -7.532  0.00  0.00    +0.010 A 
ATOM     10  C   UNL     1       4.282   0.314  -8.371  0.00  0.00    +0.001 A 
ATOM     11  C   UNL     1       5.568   0.859  -8.356  0.00  0.00    +0.002 A 
ATOM     12  C   UNL     1       6.525   0.411  -7.506  0.00  0.00    +0.026 A 
ATOM     13  C   UNL     1       6.228  -0.639  -6.599  0.00  0.00    +0.043 A 
ATOM     14  N   UNL     1       6.968  -1.241  -5.690  0.00  0.00    -0.380 N 
ATOM     15  C   UNL     1       6.167  -2.267  -5.015  0.00  0.00    +0.152 C 
ATOM     16  H   UNL     1       7.896  -1.036  -5.495  0.00  0.00    +0.160 HD
ENDBRANCH   4   7
BRANCH   5  17
ATOM     17  C   UNL     1       4.745  -4.382  -3.538  0.00  0.00    +0.041 A 
ATOM     18  C   UNL     1       4.937  -3.739  -2.321  0.00  0.00    +0.024 A 
ATOM     19  C   UNL     1       5.990  -4.106  -1.507  0.00  0.00    +0.002 A 
ATOM     20  C   UNL     1       6.853  -5.112  -1.901  0.00  0.00    +0.000 A 
ATOM     21  C   UNL     1       6.665  -5.754  -3.111  0.00  0.00    +0.005 A 
ATOM     22  C   UNL     1       5.611  -5.395  -3.928  0.00  0.00    -0.029 A 
ATOM     23  C   UNL     1       5.403  -6.099  -5.245  0.00  0.00    +0.045 C 
ENDBRANCH   5  17
BRANCH   1  24
ATOM     24  S   UNL     1       1.526  -4.353  -2.762  0.00  0.00    -0.108 S 
BRANCH  24  25
ATOM     25  C   UNL     1       1.332  -2.554  -2.635  0.00  0.00    +0.168 C 
BRANCH  25  27
ATOM     26  N   UNL     1       0.301  -0.932  -1.078  0.00  0.00    -0.315 N 
ATOM     27  C   UNL     1       0.566  -2.218  -1.382  0.00  0.00    +0.223 C 
ATOM     28  O   UNL     1       0.189  -3.105  -0.646  0.00  0.00    -0.275 OA
ATOM     29  H   UNL     1       0.603  -0.222  -1.667  0.00  0.00    +0.149 HD
BRANCH  26  31
ATOM     30  C   UNL     1      -0.607   0.912   0.247  0.00  0.00    +0.024 C 
ATOM     31  C   UNL     1      -0.443  -0.605   0.141  0.00  0.00    +0.101 C 
ENDBRANCH  26  31
ENDBRANCH  25  27
ENDBRANCH  24  25
ENDBRANCH   1  24
TORSDOF 6
