REMARK  Name = ZINC67264581
REMARK  11 active torsions:
REMARK  status: ('A' for Active; 'I' for Inactive)
REMARK    1  A    between atoms: C_1  and  C_2
REMARK    2  A    between atoms: C_2  and  C_3
REMARK    3  A    between atoms: C_2  and  C_4
REMARK    4  A    between atoms: C_4  and  N_5
REMARK    5  A    between atoms: C_8  and  N_11
REMARK    6  A    between atoms: C_12  and  C_14
REMARK    7  A    between atoms: C_21  and  O_23
REMARK    8  A    between atoms: O_23  and  C_24
REMARK    9  A    between atoms: C_24  and  C_25
REMARK   10  A    between atoms: C_24  and  C_26
REMARK   11  A    between atoms: C_24  and  C_27
REMARK                            x       y       z     vdW  Elec       q    Type
REMARK                         _______ _______ _______ _____ _____    ______ ____
ROOT
ATOM      1  N   UNL     1      -2.443  -6.054   0.277  0.00  0.00    -0.311 N 
ATOM      2  C   UNL     1      -3.134  -6.843   1.124  0.00  0.00    +0.234 C 
ATOM      3  O   UNL     1      -3.840  -6.347   1.976  0.00  0.00    -0.274 OA
ATOM      4  H   UNL     1      -1.878  -6.451  -0.404  0.00  0.00    +0.149 HD
ENDROOT
BRANCH   2   5
ATOM      5  C   UNL     1      -3.029  -8.342   1.011  0.00  0.00    +0.165 C 
ATOM      6  C   UNL     1      -2.256  -8.894   2.213  0.00  0.00    +0.032 C 
ATOM      7  C   UNL     1      -2.273 -10.424   2.166  0.00  0.00    +0.004 C 
ATOM      8  C   UNL     1      -3.717 -10.923   2.250  0.00  0.00    +0.019 C 
ATOM      9  C   UNL     1      -4.507 -10.393   1.049  0.00  0.00    +0.112 C 
ATOM     10  N   UNL     1      -4.375  -8.931   1.000  0.00  0.00    -0.256 N 
ATOM     11  C   UNL     1      -5.468  -8.144   0.950  0.00  0.00    +0.404 C 
ATOM     12  O   UNL     1      -5.346  -6.941   0.823  0.00  0.00    -0.226 OA
BRANCH  11  13
ATOM     13  O   UNL     1      -6.696  -8.690   1.041  0.00  0.00    -0.445 OA
BRANCH  13  14
ATOM     14  C   UNL     1      -7.809  -7.796   0.981  0.00  0.00    +0.107 C 
ATOM     15  C   UNL     1      -7.790  -7.047  -0.353  0.00  0.00    +0.055 C 
ATOM     16  C   UNL     1      -9.110  -8.593   1.100  0.00  0.00    +0.055 C 
ATOM     17  C   UNL     1      -7.720  -6.791   2.131  0.00  0.00    +0.055 C 
ENDBRANCH  13  14
ENDBRANCH  11  13
ENDBRANCH   2   5
BRANCH   1  21
ATOM     18  N   UNL     1      -2.597  -2.022  -0.941  0.00  0.00    +0.380 N 
ATOM     19  C   UNL     1      -1.430  -2.428  -0.148  0.00  0.00    -0.077 C 
ATOM     20  C   UNL     1      -1.283  -3.950  -0.193  0.00  0.00    +0.003 C 
ATOM     21  C   UNL     1      -2.545  -4.596   0.386  0.00  0.00    +0.069 C 
ATOM     22  C   UNL     1      -3.764  -4.108  -0.401  0.00  0.00    +0.003 C 
ATOM     23  C   UNL     1      -3.819  -2.580  -0.349  0.00  0.00    -0.077 C 
ATOM     24  H   UNL     1      -2.495  -2.363  -1.885  0.00  0.00    -0.082 HD
BRANCH  18  25
ATOM     25  C   UNL     1      -2.689  -0.556  -0.959  0.00  0.00    -0.076 C 
BRANCH  25  27
ATOM     26  C   UNL     1      -1.547  -0.421  -3.177  0.00  0.00    +0.005 C 
ATOM     27  C   UNL     1      -1.489   0.021  -1.714  0.00  0.00    -0.034 C 
ATOM     28  C   UNL     1      -1.527   1.548  -1.640  0.00  0.00    +0.005 C 
ENDBRANCH  25  27
ENDBRANCH  18  25
ENDBRANCH   1  21
TORSDOF 6
