REMARK  Name = ZINC39915471
REMARK  9 active torsions:
REMARK  status: ('A' for Active; 'I' for Inactive)
REMARK    1  A    between atoms: C_1  and  C_2
REMARK    2  A    between atoms: C_4  and  C_31
REMARK    3  A    between atoms: C_5  and  O_9
REMARK    4  A    between atoms: C_6  and  C_8
REMARK    5  A    between atoms: O_9  and  C_10
REMARK    6  A    between atoms: C_10  and  C_11
REMARK    7  A    between atoms: N_13  and  C_14
REMARK    8  A    between atoms: N_13  and  C_23
REMARK    9  A    between atoms: C_14  and  C_15
REMARK                            x       y       z     vdW  Elec       q    Type
REMARK                         _______ _______ _______ _____ _____    ______ ____
ROOT
ATOM      1  C   UNL     1       1.170  -6.280   0.112  0.00  0.00    +0.254 C 
ATOM      2  O   UNL     1       0.073  -6.776   0.261  0.00  0.00    -0.272 OA
ATOM      3  N   UNL     1       2.234  -7.064  -0.150  0.00  0.00    -0.290 N 
ENDROOT
BRANCH   3   4
ATOM      4  C   UNL     1       3.583  -6.491  -0.154  0.00  0.00    +0.099 C 
ATOM      5  C   UNL     1       3.678  -5.418  -1.252  0.00  0.00    +0.047 C 
ATOM      6  C   UNL     1       4.993  -4.617  -1.032  0.00  0.00    +0.168 C 
ATOM      7  S   UNL     1       4.989  -4.457   0.803  0.00  0.00    -0.029 S 
ATOM      8  O   UNL     1       4.353  -3.238   1.160  0.00  0.00    -0.174 OA
ATOM      9  O   UNL     1       6.293  -4.735   1.294  0.00  0.00    -0.174 OA
ATOM     10  C   UNL     1       3.876  -5.858   1.228  0.00  0.00    +0.188 C 
ENDBRANCH   3   4
BRANCH   1  11
ATOM     11  C   UNL     1       1.342  -4.787   0.220  0.00  0.00    +0.324 C 
BRANCH  11  12
ATOM     12  O   UNL     1       0.122  -4.198   0.675  0.00  0.00    -0.482 OA
BRANCH  12  17
ATOM     13  C   UNL     1       0.060   1.399   1.306  0.00  0.00    +0.044 C 
ATOM     14  C   UNL     1       0.077  -0.099   1.137  0.00  0.00    -0.050 A 
ATOM     15  C   UNL     1      -0.278  -0.660  -0.076  0.00  0.00    +0.010 A 
ATOM     16  C   UNL     1      -0.264  -2.033  -0.233  0.00  0.00    -0.008 A 
ATOM     17  C   UNL     1       0.107  -2.848   0.827  0.00  0.00    +0.127 A 
ATOM     18  C   UNL     1       0.464  -2.281   2.042  0.00  0.00    -0.008 A 
ATOM     19  C   UNL     1       0.453  -0.908   2.193  0.00  0.00    +0.010 A 
ATOM     20  C   UNL     1       0.868  -3.163   3.195  0.00  0.00    +0.047 C 
ATOM     21  C   UNL     1      -0.652  -2.644  -1.555  0.00  0.00    +0.047 C 
ENDBRANCH  12  17
ENDBRANCH  11  12
ENDBRANCH   1  11
BRANCH   3  22
ATOM     22  C   UNL     1       2.043  -8.489  -0.430  0.00  0.00    +0.147 C 
BRANCH  22  23
ATOM     23  C   UNL     1       1.851  -8.688  -1.911  0.00  0.00    +0.023 A 
ATOM     24  C   UNL     1       0.579  -8.642  -2.457  0.00  0.00    +0.129 A 
ATOM     25  C   UNL     1       0.403  -8.825  -3.818  0.00  0.00    +0.039 A 
ATOM     26  C   UNL     1       1.497  -9.054  -4.631  0.00  0.00    +0.004 A 
ATOM     27  C   UNL     1       2.766  -9.100  -4.087  0.00  0.00    +0.020 A 
ATOM     28  C   UNL     1       2.944  -8.911  -2.727  0.00  0.00    +0.048 A 
ATOM     29 CL   UNL     1       4.540  -8.962  -2.046  0.00  0.00    -0.083 Cl
ATOM     30  F   UNL     1      -0.490  -8.419  -1.661  0.00  0.00    -0.205 F 
ENDBRANCH  22  23
ENDBRANCH   3  22
TORSDOF 6
