REMARK  Name = ZINC65182556
REMARK  10 active torsions:
REMARK  status: ('A' for Active; 'I' for Inactive)
REMARK    1  A    between atoms: C_1  and  C_2
REMARK    2  A    between atoms: C_2  and  C_3
REMARK    3  A    between atoms: C_6  and  C_32
REMARK    4  A    between atoms: C_11  and  C_13
REMARK    5  A    between atoms: C_16  and  C_19
REMARK    6  A    between atoms: C_19  and  C_20
REMARK    7  A    between atoms: C_20  and  N_21
REMARK    8  A    between atoms: N_21  and  C_22
REMARK    9  A    between atoms: C_23  and  C_25
REMARK   10  A    between atoms: C_30  and  C_31
REMARK                            x       y       z     vdW  Elec       q    Type
REMARK                         _______ _______ _______ _____ _____    ______ ____
ROOT
ATOM      1  C   UNL     1      -1.095  -2.540   1.112  0.00  0.00    +0.318 C 
ATOM      2  N   UNL     1      -1.410  -3.964   0.919  0.00  0.00    -0.291 N 
ATOM      3  C   UNL     1      -0.239  -4.660   1.104  0.00  0.00    +0.139 C 
ATOM      4  N   UNL     1       0.737  -3.874   1.381  0.00  0.00    -0.072 NA
ATOM      5  O   UNL     1       0.310  -2.522   1.412  0.00  0.00    -0.367 OA
ATOM      6  H   UNL     1      -2.278  -4.340   0.702  0.00  0.00    +0.151 HD
ENDROOT
BRANCH   1  15
ATOM      7  C   UNL     1      -1.011  -0.296   0.025  0.00  0.00    -0.033 C 
ATOM      8  C   UNL     1      -2.152   0.406  -0.158  0.00  0.00    -0.000 A 
ATOM      9  C   UNL     1      -2.454   1.842  -0.112  0.00  0.00    +0.013 A 
ATOM     10  C   UNL     1      -3.722   2.253  -0.342  0.00  0.00    -0.050 A 
ATOM     11  C   UNL     1      -4.752   1.345  -0.624  0.00  0.00    +0.005 A 
ATOM     12  C   UNL     1      -4.552   0.012  -0.684  0.00  0.00    +0.026 A 
ATOM     13  C   UNL     1      -3.257  -0.532  -0.458  0.00  0.00    +0.043 A 
ATOM     14  N   UNL     1      -2.816  -1.766  -0.460  0.00  0.00    -0.373 N 
ATOM     15  C   UNL     1      -1.379  -1.750  -0.167  0.00  0.00    +0.169 C 
ATOM     16  C   UNL     1      -4.035   3.727  -0.295  0.00  0.00    +0.044 C 
ATOM     17  H   UNL     1      -3.350  -2.558  -0.630  0.00  0.00    +0.160 HD
BRANCH   7  19
ATOM     18  C   UNL     1       0.271   1.783   0.455  0.00  0.00    +0.008 C 
ATOM     19  C   UNL     1       0.352   0.259   0.349  0.00  0.00    +0.030 C 
ENDBRANCH   7  19
ENDBRANCH   1  15
BRANCH   3  20
ATOM     20  C   UNL     1      -0.117  -6.158   0.997  0.00  0.00    +0.094 C 
BRANCH  20  21
ATOM     21  C   UNL     1       1.332  -6.572   1.266  0.00  0.00    +0.115 C 
BRANCH  21  22
ATOM     22  N   UNL     1       1.450  -8.029   1.162  0.00  0.00    -0.300 N 
ATOM     23  C   UNL     1       1.771  -8.647  -0.127  0.00  0.00    +0.132 C 
ATOM     24  C   UNL     1       1.265  -8.800   2.252  0.00  0.00    +0.247 C 
ATOM     25  O   UNL     1       0.902  -8.297   3.298  0.00  0.00    -0.270 OA
BRANCH  24  26
ATOM     26  C   UNL     1       1.503 -10.257   2.176  0.00  0.00    +0.040 A 
ATOM     27  C   UNL     1       2.674 -10.747   1.596  0.00  0.00    +0.013 A 
ATOM     28  C   UNL     1       2.890 -12.107   1.529  0.00  0.00    +0.001 A 
ATOM     29  C   UNL     1       1.948 -12.986   2.034  0.00  0.00    +0.000 A 
ATOM     30  C   UNL     1       0.785 -12.507   2.610  0.00  0.00    +0.004 A 
ATOM     31  C   UNL     1       0.559 -11.149   2.689  0.00  0.00    -0.038 A 
ATOM     32  C   UNL     1      -0.706 -10.628   3.322  0.00  0.00    +0.044 C 
ENDBRANCH  24  26
ENDBRANCH  21  22
ENDBRANCH  20  21
ENDBRANCH   3  20
TORSDOF 6
