REMARK  Name = ZINC36007032
REMARK  1 active torsions:
REMARK  status: ('A' for Active; 'I' for Inactive)
REMARK    1  A    between atoms: N_20  and  C_23
REMARK                            x       y       z     vdW  Elec       q    Type
REMARK                         _______ _______ _______ _____ _____    ______ ____
ROOT
ATOM      1  C   UNL     1      -0.017   1.379   0.010  0.00  0.00    +0.000 A 
ATOM      2  C   UNL     1       1.173   2.084   0.002  0.00  0.00    +0.002 A 
ATOM      3  C   UNL     1       2.379   1.414  -0.013  0.00  0.00    +0.023 A 
ATOM      4  C   UNL     1       2.407   0.021  -0.021  0.00  0.00    +0.036 A 
ATOM      5  C   UNL     1       1.203  -0.677  -0.013  0.00  0.00    -0.027 A 
ATOM      6  C   UNL     1       0.002  -0.004   0.002  0.00  0.00    +0.004 A 
ATOM      7  C   UNL     1       1.573  -2.134  -0.026  0.00  0.00    +0.053 C 
ATOM      8  C   UNL     1       0.998  -2.848  -1.254  0.00  0.00    +0.089 C 
ATOM      9  C   UNL     1      -0.277  -3.566  -0.733  0.00  0.00    +0.074 C 
ATOM     10  C   UNL     1      -0.362  -3.204   0.761  0.00  0.00    -0.054 C 
ATOM     11  N   UNL     1       1.039  -2.838   1.152  0.00  0.00    +0.395 N 
ATOM     12  C   UNL     1       1.748  -4.130   1.310  0.00  0.00    -0.076 C 
ATOM     13  C   UNL     1       0.715  -5.083   1.942  0.00  0.00    -0.020 C 
ATOM     14  C   UNL     1      -0.693  -4.470   1.573  0.00  0.00    -0.016 C 
ATOM     15  C   UNL     1       0.059  -5.032  -0.890  0.00  0.00    +0.229 C 
ATOM     16  O   UNL     1      -0.672  -5.953  -0.595  0.00  0.00    -0.275 OA
ATOM     17  N   UNL     1       1.287  -5.153  -1.406  0.00  0.00    -0.207 N 
ATOM     18  C   UNL     1       1.913  -3.982  -1.659  0.00  0.00    +0.229 C 
ATOM     19  O   UNL     1       3.023  -3.852  -2.131  0.00  0.00    -0.275 OA
ATOM     20  C   UNL     1       3.078  -2.154  -0.039  0.00  0.00    +0.212 C 
ATOM     21  O   UNL     1       3.789  -3.136  -0.050  0.00  0.00    -0.277 OA
ATOM     22  N   UNL     1       3.482  -0.869  -0.035  0.00  0.00    -0.286 N 
ATOM     23  H   UNL     1       4.413  -0.595  -0.042  0.00  0.00    +0.155 HD
ATOM     24  H   UNL     1       1.068  -2.270   1.986  0.00  0.00    -0.079 HD
ENDROOT
BRANCH  17  25
ATOM     25  C   UNL     1       1.880  -6.398  -1.668  0.00  0.00    +0.079 A 
ATOM     26  C   UNL     1       1.715  -6.998  -2.908  0.00  0.00    +0.027 A 
ATOM     27  C   UNL     1       2.300  -8.223  -3.165  0.00  0.00    +0.002 A 
ATOM     28  C   UNL     1       3.050  -8.852  -2.187  0.00  0.00    +0.003 A 
ATOM     29  C   UNL     1       3.217  -8.258  -0.950  0.00  0.00    +0.040 A 
ATOM     30  C   UNL     1       2.638  -7.029  -0.689  0.00  0.00    +0.145 A 
ATOM     31  F   UNL     1       2.806  -6.445   0.518  0.00  0.00    -0.204 F 
ENDBRANCH  17  25
TORSDOF 1
