REMARK  Name = ZINC19462366
REMARK  5 active torsions:
REMARK  status: ('A' for Active; 'I' for Inactive)
REMARK    1  A    between atoms: C_1  and  C_2
REMARK    2  A    between atoms: N_7  and  C_10
REMARK    3  A    between atoms: C_14  and  C_16
REMARK    4  A    between atoms: C_23  and  C_25
REMARK    5  A    between atoms: C_25  and  N_26
REMARK                            x       y       z     vdW  Elec       q    Type
REMARK                         _______ _______ _______ _____ _____    ______ ____
ROOT
ATOM      1  C   UNL     1       5.508  -4.583   1.306  0.00  0.00    +0.247 C 
ATOM      2  O   UNL     1       5.707  -4.513   0.109  0.00  0.00    -0.270 OA
ATOM      3  N   UNL     1       6.392  -5.221   2.099  0.00  0.00    -0.296 N 
ATOM      4  C   UNL     1       6.104  -5.427   3.525  0.00  0.00    +0.108 C 
ATOM      5  C   UNL     1       6.253  -6.918   3.848  0.00  0.00    +0.019 C 
ATOM      6  C   UNL     1       7.640  -7.394   3.411  0.00  0.00    +0.003 C 
ATOM      7  C   UNL     1       7.792  -7.209   1.899  0.00  0.00    +0.021 C 
ATOM      8  C   UNL     1       7.658  -5.727   1.554  0.00  0.00    +0.060 C 
ENDROOT
BRANCH   1  13
ATOM      9  C   UNL     1       2.001  -3.283   1.690  0.00  0.00    +0.045 A 
ATOM     10  C   UNL     1       2.031  -2.814   2.998  0.00  0.00    +0.024 A 
ATOM     11  C   UNL     1       3.187  -2.921   3.748  0.00  0.00    +0.003 A 
ATOM     12  C   UNL     1       4.318  -3.495   3.204  0.00  0.00    +0.013 A 
ATOM     13  C   UNL     1       4.298  -3.969   1.892  0.00  0.00    +0.039 A 
ATOM     14  C   UNL     1       3.130  -3.865   1.136  0.00  0.00    +0.037 A 
BRANCH   9  20
ATOM     15  C   UNL     1      -2.274  -4.393   0.233  0.00  0.00    +0.017 C 
ATOM     16  C   UNL     1      -1.014  -3.763  -0.364  0.00  0.00    +0.082 C 
ATOM     17  C   UNL     1      -1.013  -2.236  -0.142  0.00  0.00    +0.109 C 
ATOM     18  C   UNL     1       0.220  -2.001   0.703  0.00  0.00    +0.227 C 
ATOM     19  O   UNL     1       0.598  -0.923   1.109  0.00  0.00    -0.275 OA
ATOM     20  N   UNL     1       0.826  -3.173   0.933  0.00  0.00    -0.210 N 
ATOM     21  C   UNL     1       0.219  -4.233   0.377  0.00  0.00    +0.229 C 
ATOM     22  O   UNL     1       0.595  -5.383   0.456  0.00  0.00    -0.275 OA
ENDBRANCH   9  20
ENDBRANCH   1  13
BRANCH   8  23
ATOM     23  C   UNL     1       7.668  -5.554   0.034  0.00  0.00    -0.056 C 
BRANCH  23  24
ATOM     24  N   UNL     1       8.915  -6.103  -0.514  0.00  0.00    +0.381 N 
ATOM     25  C   UNL     1      10.048  -5.309   0.003  0.00  0.00    -0.079 C 
ATOM     26  C   UNL     1      11.285  -6.171  -0.033  0.00  0.00    -0.019 C 
ATOM     27  C   UNL     1      12.108  -5.922  -1.311  0.00  0.00    -0.002 C 
ATOM     28  C   UNL     1      11.206  -5.766  -2.551  0.00  0.00    -0.002 C 
ATOM     29  C   UNL     1      10.068  -6.754  -2.562  0.00  0.00    -0.019 C 
ATOM     30  C   UNL     1       8.831  -6.103  -1.908  0.00  0.00    -0.079 C 
ATOM     31  H   UNL     1       9.017  -7.054  -0.196  0.00  0.00    -0.082 HD
ENDBRANCH  23  24
ENDBRANCH   8  23
TORSDOF 4
