REMARK  Name = ZINC06877637
REMARK  9 active torsions:
REMARK  status: ('A' for Active; 'I' for Inactive)
REMARK    1  A    between atoms: C_1  and  C_2
REMARK    2  A    between atoms: C_2  and  O_3
REMARK    3  A    between atoms: O_3  and  C_4
REMARK    4  A    between atoms: C_9  and  N_10
REMARK    5  A    between atoms: N_13  and  C_14
REMARK    6  A    between atoms: N_13  and  C_21
REMARK    7  A    between atoms: C_14  and  C_15
REMARK    8  A    between atoms: C_18  and  C_20
REMARK    9  A    between atoms: C_27  and  C_29
REMARK                            x       y       z     vdW  Elec       q    Type
REMARK                         _______ _______ _______ _____ _____    ______ ____
ROOT
ATOM      1  N   UNL     1       1.968  -1.516   3.392  0.00  0.00    -0.266 N 
ATOM      2  C   UNL     1       2.529  -2.027   4.505  0.00  0.00    +0.307 C 
ATOM      3  O   UNL     1       2.625  -3.232   4.639  0.00  0.00    -0.252 OA
ATOM      4  N   UNL     1       2.985  -1.203   5.470  0.00  0.00    -0.275 N 
ATOM      5  H   UNL     1       1.965  -0.557   3.247  0.00  0.00    +0.156 HD
ENDROOT
BRANCH   4   6
ATOM      6  C   UNL     1       3.595  -1.759   6.680  0.00  0.00    +0.081 C 
ATOM      7  C   UNL     1       4.821  -2.591   6.297  0.00  0.00    +0.041 C 
ATOM      8  C   UNL     1       5.476  -3.143   7.567  0.00  0.00    +0.109 C 
ATOM      9  N   UNL     1       4.465  -3.877   8.340  0.00  0.00    -0.302 N 
ATOM     10  C   UNL     1       3.208  -3.199   8.684  0.00  0.00    +0.109 C 
ATOM     11  C   UNL     1       2.578  -2.647   7.401  0.00  0.00    +0.041 C 
ATOM     12  C   UNL     1       4.687  -5.150   8.726  0.00  0.00    +0.212 C 
ATOM     13  O   UNL     1       3.807  -5.779   9.274  0.00  0.00    -0.276 OA
ATOM     14  C   UNL     1       6.028  -5.790   8.476  0.00  0.00    +0.109 C 
ENDBRANCH   4   6
BRANCH   1  20
ATOM     15  C   UNL     1       1.273  -1.963   1.116  0.00  0.00    +0.142 A 
ATOM     16  C   UNL     1       0.705  -2.814   0.181  0.00  0.00    +0.047 A 
ATOM     17  C   UNL     1       0.249  -4.061   0.568  0.00  0.00    +0.004 A 
ATOM     18  C   UNL     1       0.358  -4.462   1.887  0.00  0.00    +0.002 A 
ATOM     19  C   UNL     1       0.924  -3.620   2.825  0.00  0.00    +0.027 A 
ATOM     20  C   UNL     1       1.389  -2.370   2.443  0.00  0.00    +0.077 A 
BRANCH  15  21
ATOM     21  O   UNL     1       1.721  -0.737   0.737  0.00  0.00    -0.490 OA
BRANCH  21  23
ATOM     22  C   UNL     1       2.127   1.018  -0.874  0.00  0.00    +0.048 C 
ATOM     23  C   UNL     1       1.569  -0.387  -0.640  0.00  0.00    +0.226 C 
ENDBRANCH  21  23
ENDBRANCH  15  21
ENDBRANCH   1  20
BRANCH   4  24
ATOM     24  C   UNL     1       2.869   0.248   5.307  0.00  0.00    +0.183 C 
BRANCH  24  25
ATOM     25  C   UNL     1       1.556   0.715   5.880  0.00  0.00    +0.122 A 
ATOM     26  C   UNL     1       1.347   1.110   7.149  0.00  0.00    +0.046 A 
ATOM     27  C   UNL     1      -0.019   1.460   7.249  0.00  0.00    +0.045 A 
ATOM     28  C   UNL     1      -0.563   1.259   6.035  0.00  0.00    +0.102 A 
ATOM     29  O   UNL     1       0.397   0.813   5.208  0.00  0.00    -0.463 OA
ATOM     30  C   UNL     1      -2.004   1.498   5.664  0.00  0.00    +0.086 C 
ENDBRANCH  24  25
ENDBRANCH   4  24
TORSDOF 6
