REMARK  Name = ZINC40890659
REMARK  6 active torsions:
REMARK  status: ('A' for Active; 'I' for Inactive)
REMARK    1  A    between atoms: C_1  and  C_2
REMARK    2  A    between atoms: C_2  and  O_3
REMARK    3  A    between atoms: O_3  and  C_4
REMARK    4  A    between atoms: C_9  and  C_10
REMARK    5  A    between atoms: C_11  and  C_12
REMARK    6  A    between atoms: C_20  and  N_24
REMARK                            x       y       z     vdW  Elec       q    Type
REMARK                         _______ _______ _______ _____ _____    ______ ____
ROOT
ATOM      1  C   UNL     1       3.164  -1.046  -5.578  0.00  0.00    +0.243 C 
ATOM      2  O   UNL     1       3.073   0.160  -5.439  0.00  0.00    -0.270 OA
ATOM      3  N   UNL     1       3.782  -1.554  -6.662  0.00  0.00    -0.261 N 
ATOM      4  C   UNL     1       4.313  -0.706  -7.618  0.00  0.00    +0.166 A 
ATOM      5  N   UNL     1       4.319   0.607  -7.641  0.00  0.00    -0.225 NA
ATOM      6  C   UNL     1       4.880   1.312  -8.647  0.00  0.00    +0.080 A 
ATOM      7  C   UNL     1       4.954   2.717  -8.793  0.00  0.00    +0.031 A 
ATOM      8  C   UNL     1       5.563   3.276  -9.886  0.00  0.00    +0.035 A 
ATOM      9  C   UNL     1       6.126   2.492 -10.883  0.00  0.00    +0.127 A 
ATOM     10  C   UNL     1       6.072   1.115 -10.772  0.00  0.00    +0.050 A 
ATOM     11  C   UNL     1       5.464   0.546  -9.681  0.00  0.00    +0.043 A 
ATOM     12  S   UNL     1       5.171  -1.118  -9.130  0.00  0.00    -0.052 S 
ATOM     13  H   UNL     1       3.855  -2.515  -6.773  0.00  0.00    +0.157 HD
ENDROOT
BRANCH   9  14
ATOM     14  N   UNL     1       6.777   3.123 -12.052  0.00  0.00    +0.056 N 
ATOM     15  O   UNL     1       6.820   4.328 -12.143  0.00  0.00    -0.126 OA
ATOM     16  O   UNL     1       7.266   2.434 -12.917  0.00  0.00    -0.126 OA
ENDBRANCH   9  14
BRANCH   1  18
ATOM     17  C   UNL     1       1.985  -1.432  -3.482  0.00  0.00    +0.016 C 
ATOM     18  C   UNL     1       2.604  -1.942  -4.568  0.00  0.00    +0.068 C 
BRANCH  17  24
ATOM     19  C   UNL     1       0.777  -1.808  -1.336  0.00  0.00    +0.128 A 
ATOM     20  C   UNL     1       0.244  -2.668  -0.388  0.00  0.00    +0.047 A 
ATOM     21  C   UNL     1       0.352  -4.035  -0.554  0.00  0.00    +0.019 A 
ATOM     22  C   UNL     1       0.993  -4.559  -1.666  0.00  0.00    +0.019 A 
ATOM     23  C   UNL     1       1.528  -3.720  -2.620  0.00  0.00    +0.026 A 
ATOM     24  C   UNL     1       1.421  -2.333  -2.467  0.00  0.00    +0.018 A 
ATOM     25 BR   UNL     1       1.132  -6.433  -1.876  0.00  0.00    -0.050 Br
BRANCH  19  26
ATOM     26  O   UNL     1       0.671  -0.465  -1.174  0.00  0.00    -0.492 OA
BRANCH  26  28
ATOM     27  C   UNL     1      -0.019   1.526   0.010  0.00  0.00    +0.048 C 
ATOM     28  C   UNL     1       0.002  -0.004   0.002  0.00  0.00    +0.226 C 
ENDBRANCH  26  28
ENDBRANCH  19  26
ENDBRANCH  17  24
ENDBRANCH   1  18
TORSDOF 5
