REMARK  Name = ZINC04286734
REMARK  7 active torsions:
REMARK  status: ('A' for Active; 'I' for Inactive)
REMARK    1  A    between atoms: C_1  and  C_2
REMARK    2  A    between atoms: C_5  and  C_12
REMARK    3  A    between atoms: N_9  and  C_11
REMARK    4  A    between atoms: C_12  and  O_14
REMARK    5  A    between atoms: O_14  and  N_15
REMARK    6  A    between atoms: C_16  and  C_17
REMARK    7  A    between atoms: C_20  and  C_23
REMARK                            x       y       z     vdW  Elec       q    Type
REMARK                         _______ _______ _______ _____ _____    ______ ____
ROOT
ATOM      1  O   UNL     1       0.008  -2.596  -5.697  0.00  0.00    -0.310 OA
ENDROOT
BRANCH   1   2
ATOM      2  N   UNL     1      -0.003  -2.266  -7.074  0.00  0.00    -0.059 NA
ATOM      3  C   UNL     1       0.005  -3.211  -7.970  0.00  0.00    +0.163 C 
ATOM      4  N   UNL     1       0.025  -4.537  -7.577  0.00  0.00    -0.340 N 
ATOM      5  H   UNL     1       0.033  -4.763  -6.633  0.00  0.00    +0.144 HD
ATOM      6  H   UNL     1       0.031  -5.240  -8.244  0.00  0.00    +0.144 HD
BRANCH   3   7
ATOM      7  C   UNL     1      -0.008  -2.866  -9.410  0.00  0.00    +0.018 A 
ATOM      8  C   UNL     1      -0.022  -1.530  -9.809  0.00  0.00    +0.012 A 
ATOM      9  C   UNL     1      -0.034  -1.214 -11.153  0.00  0.00    +0.013 A 
ATOM     10  C   UNL     1      -0.031  -2.220 -12.102  0.00  0.00    +0.055 A 
ATOM     11  C   UNL     1      -0.017  -3.548 -11.712  0.00  0.00    +0.013 A 
ATOM     12  C   UNL     1       0.001  -3.876 -10.372  0.00  0.00    +0.012 A 
BRANCH  10  13
ATOM     13  C   UNL     1      -0.044  -1.869 -13.568  0.00  0.00    +0.417 C 
ATOM     14  F   UNL     1       1.270  -1.749 -14.030  0.00  0.00    -0.166 F 
ATOM     15  F   UNL     1      -0.700  -2.877 -14.283  0.00  0.00    -0.166 F 
ATOM     16  F   UNL     1      -0.716  -0.656 -13.750  0.00  0.00    -0.166 F 
ENDBRANCH  10  13
ENDBRANCH   3   7
ENDBRANCH   1   2
BRANCH   1  17
ATOM     17  C   UNL     1      -0.002  -1.528  -4.878  0.00  0.00    +0.369 C 
ATOM     18  O   UNL     1      -0.019  -0.405  -5.344  0.00  0.00    -0.242 OA
BRANCH  17  23
ATOM     19  C   UNL     1      -0.018   1.503   0.010  0.00  0.00    +0.068 C 
ATOM     20  C   UNL     1       0.002  -0.004   0.002  0.00  0.00    +0.071 A 
ATOM     21  C   UNL     1       0.008  -0.860  -1.180  0.00  0.00    +0.061 A 
ATOM     22  C   UNL     1      -0.002  -0.617  -2.557  0.00  0.00    +0.069 A 
ATOM     23  C   UNL     1       0.009  -1.720  -3.416  0.00  0.00    +0.098 A 
ATOM     24  C   UNL     1       0.029  -3.011  -2.869  0.00  0.00    +0.129 A 
ATOM     25  N   UNL     1       0.037  -3.203  -1.572  0.00  0.00    -0.235 NA
ATOM     26  C   UNL     1       0.029  -2.189  -0.711  0.00  0.00    +0.160 A 
ATOM     27  N   UNL     1       0.034  -2.120   0.653  0.00  0.00    -0.249 N 
ATOM     28  N   UNL     1       0.023  -0.779   1.048  0.00  0.00    -0.174 NA
ATOM     29  C   UNL     1       0.053  -3.270   1.560  0.00  0.00    +0.174 C 
ATOM     30 CL   UNL     1      -0.027   1.003  -3.181  0.00  0.00    -0.082 Cl
ENDBRANCH  17  23
ENDBRANCH   1  17
TORSDOF 5
