REMARK  Name = ZINC38612286
REMARK  5 active torsions:
REMARK  status: ('A' for Active; 'I' for Inactive)
REMARK    1  A    between atoms: C_1  and  O_2
REMARK    2  A    between atoms: O_2  and  C_3
REMARK    3  A    between atoms: C_5  and  C_10
REMARK    4  A    between atoms: C_8  and  O_9
REMARK    5  A    between atoms: C_12  and  C_23
REMARK                            x       y       z     vdW  Elec       q    Type
REMARK                         _______ _______ _______ _____ _____    ______ ____
ROOT
ATOM      1  C   UNL     1       2.462   0.334   4.204  0.00  0.00    +0.056 C 
ATOM      2  C   UNL     1       1.740   0.073   5.516  0.00  0.00    +0.110 C 
ATOM      3  C   UNL     1       1.580  -1.377   5.875  0.00  0.00    +0.094 C 
ATOM      4  S   UNL     1       2.945  -2.459   5.438  0.00  0.00    -0.110 S 
ATOM      5  C   UNL     1       3.943  -1.600   4.424  0.00  0.00    +0.082 C 
ATOM      6  N   UNL     1       4.795  -2.136   3.604  0.00  0.00    -0.168 NA
ATOM      7  C   UNL     1       5.523  -1.460   2.697  0.00  0.00    +0.296 C 
ATOM      8  O   UNL     1       6.431  -1.864   1.994  0.00  0.00    -0.261 OA
ATOM      9  S   UNL     1       4.818   0.186   2.783  0.00  0.00    -0.055 S 
ATOM     10  C   UNL     1       3.930  -0.065   4.375  0.00  0.00    +0.117 C 
ENDROOT
BRANCH   1  13
ATOM     11  C   UNL     1       0.065  -1.905   2.329  0.00  0.00    +0.162 A 
ATOM     12  C   UNL     1       0.641  -1.147   3.335  0.00  0.00    +0.053 A 
ATOM     13  C   UNL     1       1.836  -0.490   3.108  0.00  0.00    -0.038 A 
ATOM     14  C   UNL     1       2.458  -0.586   1.877  0.00  0.00    +0.008 A 
ATOM     15  C   UNL     1       1.887  -1.339   0.868  0.00  0.00    +0.049 A 
ATOM     16  C   UNL     1       0.693  -2.006   1.091  0.00  0.00    +0.158 A 
BRANCH  11  18
ATOM     17  C   UNL     1      -1.699  -2.403   3.845  0.00  0.00    +0.277 C 
ATOM     18  O   UNL     1      -1.111  -2.552   2.551  0.00  0.00    -0.491 OA
ENDBRANCH  11  18
BRANCH  16  19
ATOM     19  O   UNL     1       0.134  -2.752   0.102  0.00  0.00    -0.503 OA
ATOM     20  H   UNL     1      -0.472  -2.259  -0.468  0.00  0.00    +0.292 HD
ENDBRANCH  16  19
ENDBRANCH   1  13
BRANCH   2  21
ATOM     21  C   UNL     1       0.401   0.678   5.437  0.00  0.00    +0.067 C 
ATOM     22  N   UNL     1      -0.633   1.146   5.377  0.00  0.00    -0.196 NA
ENDBRANCH   2  21
TORSDOF 4
