REMARK  Name = ZINC05923731
REMARK  7 active torsions:
REMARK  status: ('A' for Active; 'I' for Inactive)
REMARK    1  A    between atoms: C_1  and  C_2
REMARK    2  A    between atoms: C_2  and  C_3
REMARK    3  A    between atoms: C_3  and  S_4
REMARK    4  A    between atoms: S_4  and  C_5
REMARK    5  A    between atoms: C_16  and  C_18
REMARK    6  A    between atoms: C_27  and  C_29
REMARK    7  A    between atoms: C_27  and  C_30
REMARK                            x       y       z     vdW  Elec       q    Type
REMARK                         _______ _______ _______ _____ _____    ______ ____
ROOT
ATOM      1  C   UNL     1      -4.638   1.983   3.528  0.00  0.00    +0.171 A 
ATOM      2  N   UNL     1      -3.603   1.101   3.604  0.00  0.00    -0.302 N 
ATOM      3  H   UNL     1      -3.332   0.652   4.571  0.00  0.00    +0.171 HD
ATOM      4  C   UNL     1      -2.908   0.775   2.494  0.00  0.00    +0.258 A 
ATOM      5  O   UNL     1      -1.978  -0.013   2.551  0.00  0.00    -0.267 OA
ATOM      6  C   UNL     1      -3.274   1.358   1.275  0.00  0.00    +0.069 A 
ATOM      7  C   UNL     1      -4.336   2.246   1.252  0.00  0.00    +0.135 A 
ATOM      8  N   UNL     1      -4.987   2.534   2.384  0.00  0.00    -0.208 NA
ATOM      9  N   UNL     1      -4.715   2.828   0.058  0.00  0.00    -0.302 N 
ATOM     10  C   UNL     1      -4.341   2.277  -1.137  0.00  0.00    +0.017 C 
ATOM     11  C   UNL     1      -3.311   1.408  -1.208  0.00  0.00    +0.024 C 
ATOM     12  C   UNL     1      -2.524   1.026   0.020  0.00  0.00    +0.094 C 
ATOM     13  C   UNL     1      -2.936   0.829  -2.434  0.00  0.00    +0.162 C 
ATOM     14  O   UNL     1      -1.999   0.055  -2.465  0.00  0.00    -0.292 OA
ATOM     15  C   UNL     1      -3.671   1.147  -3.706  0.00  0.00    +0.086 C 
ATOM     16  C   UNL     1      -5.121   1.508  -3.367  0.00  0.00    -0.023 C 
ATOM     17  C   UNL     1      -5.111   2.672  -2.374  0.00  0.00    +0.058 C 
ATOM     18  C   UNL     1      -5.817   0.301  -2.737  0.00  0.00    +0.011 C 
ATOM     19  C   UNL     1      -5.863   1.924  -4.639  0.00  0.00    +0.011 C 
ATOM     20  H   UNL     1      -5.323   3.745   0.062  0.00  0.00    +0.153 HD
ENDROOT
BRANCH  12  21
ATOM     21  C   UNL     1      -1.213   1.769   0.017  0.00  0.00    -0.017 A 
ATOM     22  C   UNL     1      -0.013   1.076   0.008  0.00  0.00    +0.007 A 
ATOM     23  C   UNL     1       1.169   1.802   0.001  0.00  0.00    +0.020 A 
ATOM     24  C   UNL     1       1.111   3.183   0.008  0.00  0.00    +0.111 A 
ATOM     25  N   UNL     1      -0.050   3.809   0.022  0.00  0.00    -0.263 NA
ATOM     26  C   UNL     1      -1.193   3.151   0.030  0.00  0.00    +0.115 A 
ENDBRANCH  12  21
BRANCH   1  27
ATOM     27  S   UNL     1      -5.528   2.397   4.992  0.00  0.00    -0.088 S 
BRANCH  27  28
ATOM     28  C   UNL     1      -6.734   3.560   4.308  0.00  0.00    +0.077 C 
BRANCH  28  30
ATOM     29  C   UNL     1      -8.664   5.052   4.850  0.00  0.00    +0.004 C 
ATOM     30  C   UNL     1      -7.644   4.069   5.428  0.00  0.00    +0.008 C 
ENDBRANCH  28  30
ENDBRANCH  27  28
ENDBRANCH   1  27
TORSDOF 4
