REMARK  Name = ZINC44441207
REMARK  6 active torsions:
REMARK  status: ('A' for Active; 'I' for Inactive)
REMARK    1  A    between atoms: C_1  and  C_2
REMARK    2  A    between atoms: C_3  and  C_12
REMARK    3  A    between atoms: C_12  and  C_13
REMARK    4  A    between atoms: C_16  and  S_18
REMARK    5  A    between atoms: S_18  and  C_19
REMARK    6  A    between atoms: C_19  and  C_20
REMARK                            x       y       z     vdW  Elec       q    Type
REMARK                         _______ _______ _______ _____ _____    ______ ____
ROOT
ATOM      1  C   UNL     1      -2.986   0.164  -1.397  0.00  0.00    +0.223 A 
ATOM      2  N   UNL     1      -3.750  -0.680  -2.027  0.00  0.00    -0.111 NA
ATOM      3  N   UNL     1      -3.988  -0.243  -3.213  0.00  0.00    -0.101 NA
ATOM      4  C   UNL     1      -3.378   0.905  -3.383  0.00  0.00    +0.278 A 
ATOM      5  O   UNL     1      -2.736   1.190  -2.235  0.00  0.00    -0.415 OA
ENDROOT
BRANCH   1   6
ATOM      6  C   UNL     1      -2.479   0.024   0.015  0.00  0.00    +0.140 C 
BRANCH   6   9
ATOM      7  C   UNL     1      -0.018   1.503   0.010  0.00  0.00    +0.064 C 
ATOM      8  C   UNL     1       0.002  -0.004   0.002  0.00  0.00    +0.026 A 
ATOM      9  C   UNL     1      -1.156  -0.698   0.004  0.00  0.00    +0.045 A 
ATOM     10  C   UNL     1      -1.111  -2.113  -0.005  0.00  0.00    +0.258 A 
ATOM     11  O   UNL     1      -2.142  -2.761  -0.004  0.00  0.00    -0.267 OA
ATOM     12  N   UNL     1       0.084  -2.737  -0.014  0.00  0.00    -0.275 N 
ATOM     13  H   UNL     1       0.123  -3.706  -0.020  0.00  0.00    +0.173 HD
ATOM     14  C   UNL     1       1.224  -2.020  -0.016  0.00  0.00    +0.327 A 
ATOM     15  O   UNL     1       2.294  -2.597  -0.024  0.00  0.00    -0.247 OA
ATOM     16  N   UNL     1       1.194  -0.675  -0.013  0.00  0.00    -0.311 N 
ATOM     17  H   UNL     1       2.026  -0.177  -0.018  0.00  0.00    +0.170 HD
ENDBRANCH   6   9
ENDBRANCH   1   6
BRANCH   4  18
ATOM     18  S   UNL     1      -3.401   1.895  -4.841  0.00  0.00    -0.061 S 
BRANCH  18  19
ATOM     19  C   UNL     1      -4.441   0.956  -5.993  0.00  0.00    +0.114 C 
BRANCH  19  20
ATOM     20  C   UNL     1      -4.545   1.702  -7.298  0.00  0.00    -0.036 A 
ATOM     21  C   UNL     1      -5.558   2.623  -7.489  0.00  0.00    +0.006 A 
ATOM     22  C   UNL     1      -5.655   3.308  -8.685  0.00  0.00    +0.022 A 
ATOM     23  C   UNL     1      -4.737   3.072  -9.693  0.00  0.00    +0.059 A 
ATOM     24  C   UNL     1      -3.722   2.150  -9.502  0.00  0.00    +0.060 A 
ATOM     25  C   UNL     1      -3.624   1.469  -8.302  0.00  0.00    +0.026 A 
ATOM     26 CL   UNL     1      -2.570   1.852 -10.767  0.00  0.00    -0.082 Cl
ATOM     27 CL   UNL     1      -4.859   3.931 -11.197  0.00  0.00    -0.082 Cl
ENDBRANCH  19  20
ENDBRANCH  18  19
ENDBRANCH   4  18
TORSDOF 5
