REMARK  Name = ZINC51067287
REMARK  1 active torsions:
REMARK  status: ('A' for Active; 'I' for Inactive)
REMARK    1  A    between atoms: CA_3  and  C_19
REMARK                            x       y       z     vdW  Elec       q    Type
REMARK                         _______ _______ _______ _____ _____    ______ ____
ROOT
ATOM      1  C   UNL     1       2.394   1.425   0.009  0.00  0.00    +0.006 A 
ATOM      2  C   UNL     1       1.158   2.058   0.005  0.00  0.00    +0.033 A 
ATOM      3  CA  UNL     1      -0.001   1.288  -0.009  0.00  0.00    +0.130 A 
ATOM      4  N   UNL     1       0.069  -0.040  -0.018  0.00  0.00    -0.338 N 
ATOM      5  C   UNL     1       1.228  -0.671  -0.014  0.00  0.00    +0.100 A 
ATOM      6  C   UNL     1       2.428   0.043  -0.001  0.00  0.00    +0.042 A 
ATOM      7  N   UNL     1       1.255  -2.060  -0.023  0.00  0.00    -0.309 N 
ATOM      8  C   UNL     1       2.523  -2.797  -0.144  0.00  0.00    +0.135 C 
ATOM      9  C   UNL     1       2.592  -3.840   0.976  0.00  0.00    +0.179 C 
ATOM     10  O   UNL     1       1.394  -4.623   0.971  0.00  0.00    -0.373 OA
ATOM     11  C   UNL     1       0.208  -3.867   1.214  0.00  0.00    +0.139 C 
ATOM     12  C   UNL     1       0.014  -2.849   0.094  0.00  0.00    +0.104 C 
ATOM     13  C   UNL     1      -0.214  -3.584  -1.229  0.00  0.00    +0.025 C 
ATOM     14  C   UNL     1      -1.442  -4.488  -1.113  0.00  0.00    +0.002 C 
ATOM     15  C   UNL     1      -1.208  -5.519  -0.007  0.00  0.00    +0.003 C 
ATOM     16  C   UNL     1      -1.004  -4.790   1.296  0.00  0.00    +0.033 C 
ATOM     17  H   UNL     1      -0.752  -0.558  -0.028  0.00  0.00    +0.167 HD
ENDROOT
BRANCH   3  18
ATOM     18  C   UNL     1      -1.322   1.952  -0.013  0.00  0.00    +0.402 C 
ATOM     19  O   UNL     1      -2.344   1.280  -0.026  0.00  0.00    -0.239 OA
ATOM     20  OXT UNL     1      -1.393   3.172  -0.005  0.00  0.00    -0.239 OA
ENDBRANCH   3  18
TORSDOF 1
