REMARK  Name = ZINC64960065
REMARK  4 active torsions:
REMARK  status: ('A' for Active; 'I' for Inactive)
REMARK    1  A    between atoms: C_1  and  C_2
REMARK    2  A    between atoms: C_5  and  C_7
REMARK    3  A    between atoms: C_7  and  N_8
REMARK    4  A    between atoms: C_9  and  C_11
REMARK                            x       y       z     vdW  Elec       q    Type
REMARK                         _______ _______ _______ _____ _____    ______ ____
ROOT
ATOM      1  C   UNL     1       3.117  -5.038  -3.086  0.00  0.00    +0.247 C 
ATOM      2  N   UNL     1       3.955  -4.012  -3.702  0.00  0.00    -0.319 N 
ATOM      3  C   UNL     1       5.283  -3.792  -3.345  0.00  0.00    +0.058 A 
ATOM      4  C   UNL     1       5.856  -2.553  -3.621  0.00  0.00    +0.063 A 
ATOM      5  C   UNL     1       7.176  -2.309  -3.295  0.00  0.00    +0.125 A 
ATOM      6  C   UNL     1       7.939  -3.296  -2.692  0.00  0.00    +0.040 A 
ATOM      7  C   UNL     1       7.373  -4.526  -2.410  0.00  0.00    +0.033 A 
ATOM      8  C   UNL     1       6.053  -4.769  -2.727  0.00  0.00    +0.126 A 
ATOM      9  S   UNL     1       5.325  -6.329  -2.327  0.00  0.00    +0.062 S 
ATOM     10  O   UNL     1       6.118  -7.329  -2.952  0.00  0.00    -0.153 OA
ATOM     11  O   UNL     1       5.059  -6.318  -0.931  0.00  0.00    -0.153 OA
ATOM     12  N   UNL     1       3.846  -6.323  -3.106  0.00  0.00    -0.161 NA
ATOM     13  F   UNL     1       7.725  -1.105  -3.564  0.00  0.00    -0.205 F 
ATOM     14  H   UNL     1       3.567  -3.455  -4.395  0.00  0.00    +0.148 HD
ATOM     15  H   UNL     1       3.489  -7.111  -3.545  0.00  0.00    +0.151 HD
ENDROOT
BRANCH   1  17
ATOM     16  N   UNL     1       1.844  -5.302  -0.982  0.00  0.00    -0.306 N 
ATOM     17  C   UNL     1       2.810  -4.653  -1.662  0.00  0.00    +0.250 C 
ATOM     18  O   UNL     1       3.431  -3.759  -1.128  0.00  0.00    -0.272 OA
ATOM     19  H   UNL     1       1.347  -6.017  -1.409  0.00  0.00    +0.149 HD
BRANCH  16  20
ATOM     20  C   UNL     1       1.545  -4.927   0.403  0.00  0.00    +0.178 C 
BRANCH  20  25
ATOM     21  C   UNL     1      -3.075  -6.598   1.542  0.00  0.00    +0.086 C 
ATOM     22  C   UNL     1      -1.575  -6.525   1.426  0.00  0.00    +0.102 A 
ATOM     23  C   UNL     1      -0.705  -7.445   1.880  0.00  0.00    +0.045 A 
ATOM     24  C   UNL     1       0.591  -6.977   1.560  0.00  0.00    +0.046 A 
ATOM     25  C   UNL     1       0.434  -5.798   0.930  0.00  0.00    +0.122 A 
ATOM     26  O   UNL     1      -0.879  -5.533   0.847  0.00  0.00    -0.463 OA
ENDBRANCH  20  25
ENDBRANCH  16  20
ENDBRANCH   1  17
TORSDOF 3
