REMARK  Name = ZINC63139077
REMARK  4 active torsions:
REMARK  status: ('A' for Active; 'I' for Inactive)
REMARK    1  A    between atoms: C_4  and  C_7
REMARK    2  A    between atoms: N_20  and  C_23
REMARK    3  A    between atoms: C_23  and  C_24
REMARK    4  A    between atoms: C_24  and  C_25
REMARK                            x       y       z     vdW  Elec       q    Type
REMARK                         _______ _______ _______ _____ _____    ______ ____
ROOT
ATOM      1  C   UNL     1       3.711  -0.707  -0.038  0.00  0.00    +0.132 C 
ATOM      2  C   UNL     1       3.961  -1.268  -1.442  0.00  0.00    +0.134 C 
ATOM      3  C   UNL     1       3.107  -2.518  -1.716  0.00  0.00    +0.030 C 
ATOM      4  C   UNL     1       3.035  -3.513  -0.590  0.00  0.00    +0.038 C 
ATOM      5  C   UNL     1       2.682  -2.836   0.734  0.00  0.00    +0.163 C 
ATOM      6  N   UNL     1       3.670  -1.799   0.943  0.00  0.00    -0.279 N 
ATOM      7  C   UNL     1       4.517  -1.817   1.974  0.00  0.00    +0.234 C 
ATOM      8  O   UNL     1       5.195  -0.832   2.176  0.00  0.00    -0.274 OA
ATOM      9  C   UNL     1       4.674  -2.987   2.895  0.00  0.00    +0.203 C 
ATOM     10  N   UNL     1       3.545  -3.899   2.802  0.00  0.00    -0.291 N 
ATOM     11  C   UNL     1       2.676  -3.817   1.858  0.00  0.00    +0.237 C 
ATOM     12  O   UNL     1       1.796  -4.651   1.882  0.00  0.00    -0.274 OA
ATOM     13  C   UNL     1       1.762  -1.871  -2.049  0.00  0.00    +0.065 C 
ATOM     14  C   UNL     1       0.927  -2.691  -2.981  0.00  0.00    -0.017 C 
ATOM     15  C   UNL     1       0.326  -2.141  -4.032  0.00  0.00    -0.004 C 
ATOM     16  C   UNL     1       0.444  -0.721  -4.353  0.00  0.00    +0.001 C 
ATOM     17  C   UNL     1       1.374   0.047  -3.731  0.00  0.00    +0.023 C 
ATOM     18  C   UNL     1       2.188  -0.583  -2.735  0.00  0.00    +0.043 C 
ATOM     19  N   UNL     1       3.417  -0.253  -2.383  0.00  0.00    -0.282 NA
ENDROOT
BRANCH   1  23
ATOM     20  C   UNL     1      -0.016   1.380   0.013  0.00  0.00    +0.000 A 
ATOM     21  C   UNL     1       0.189   0.310   0.865  0.00  0.00    +0.000 A 
ATOM     22  C   UNL     1       1.395  -0.365   0.849  0.00  0.00    +0.005 A 
ATOM     23  C   UNL     1       2.396   0.029  -0.020  0.00  0.00    -0.025 A 
ATOM     24  C   UNL     1       2.191   1.097  -0.873  0.00  0.00    +0.005 A 
ATOM     25  C   UNL     1       0.985   1.773  -0.855  0.00  0.00    +0.000 A 
ENDBRANCH   1  23
BRANCH  10  26
ATOM     26  C   UNL     1       3.393  -4.927   3.834  0.00  0.00    +0.113 C 
BRANCH  26  27
ATOM     27  C   UNL     1       2.542  -4.377   4.981  0.00  0.00    +0.052 C 
BRANCH  27  28
ATOM     28  C   UNL     1       2.386  -5.435   6.043  0.00  0.00    -0.040 C 
ATOM     29  C   UNL     1       3.136  -5.584   7.158  0.00  0.00    -0.001 A 
ATOM     30  C   UNL     1       4.279  -4.836   7.695  0.00  0.00    +0.010 A 
ATOM     31  C   UNL     1       4.834  -5.235   8.862  0.00  0.00    +0.001 A 
ATOM     32  C   UNL     1       4.347  -6.343   9.569  0.00  0.00    +0.002 A 
ATOM     33  C   UNL     1       3.301  -7.080   9.140  0.00  0.00    +0.026 A 
ATOM     34  C   UNL     1       2.641  -6.750   7.924  0.00  0.00    +0.043 A 
ATOM     35  N   UNL     1       1.623  -7.300   7.307  0.00  0.00    -0.380 N 
ATOM     36  C   UNL     1       1.355  -6.540   6.080  0.00  0.00    +0.144 C 
ATOM     37  H   UNL     1       1.129  -8.076   7.612  0.00  0.00    +0.160 HD
ENDBRANCH  27  28
ENDBRANCH  26  27
ENDBRANCH  10  26
TORSDOF 4
