REMARK  Name = ZINC43619390
REMARK  6 active torsions:
REMARK  status: ('A' for Active; 'I' for Inactive)
REMARK    1  A    between atoms: C_5  and  C_7
REMARK    2  A    between atoms: C_7  and  N_8
REMARK    3  A    between atoms: C_10  and  C_13
REMARK    4  A    between atoms: N_15  and  C_16
REMARK    5  A    between atoms: C_16  and  C_17
REMARK    6  A    between atoms: C_17  and  C_18
REMARK                            x       y       z     vdW  Elec       q    Type
REMARK                         _______ _______ _______ _____ _____    ______ ____
ROOT
ATOM      1  C   UNL     1       0.486  -4.605   4.276  0.00  0.00    +0.266 C 
ATOM      2  O   UNL     1      -0.522  -5.245   4.047  0.00  0.00    -0.268 OA
ATOM      3  N   UNL     1       1.081  -4.693   5.482  0.00  0.00    -0.310 N 
ATOM      4  H   UNL     1       1.885  -4.183   5.665  0.00  0.00    +0.149 HD
ENDROOT
BRANCH   1   7
ATOM      5  N   UNL     1       1.368  -2.681   1.350  0.00  0.00    -0.247 N 
ATOM      6  C   UNL     1       0.554  -3.553   1.977  0.00  0.00    +0.143 A 
ATOM      7  C   UNL     1       1.058  -3.731   3.234  0.00  0.00    +0.167 A 
ATOM      8  N   UNL     1       2.162  -2.975   3.361  0.00  0.00    -0.125 NA
ATOM      9  N   UNL     1       2.379  -2.343   2.261  0.00  0.00    -0.065 NA
BRANCH   5  10
ATOM     10  C   UNL     1       1.228  -2.186  -0.022  0.00  0.00    +0.183 C 
BRANCH  10  15
ATOM     11  C   UNL     1      -0.017   1.378   0.010  0.00  0.00    +0.000 A 
ATOM     12  C   UNL     1       1.171   2.087   0.002  0.00  0.00    +0.003 A 
ATOM     13  C   UNL     1       2.377   1.414  -0.013  0.00  0.00    +0.039 A 
ATOM     14  C   UNL     1       2.397   0.029  -0.021  0.00  0.00    +0.128 A 
ATOM     15  C   UNL     1       1.208  -0.679  -0.013  0.00  0.00    +0.009 A 
ATOM     16  C   UNL     1       0.002  -0.004   0.002  0.00  0.00    +0.008 A 
ATOM     17  F   UNL     1       3.577  -0.630  -0.036  0.00  0.00    -0.205 F 
ENDBRANCH  10  15
ENDBRANCH   5  10
ENDBRANCH   1   7
BRANCH   3  18
ATOM     18  C   UNL     1       0.513  -5.561   6.517  0.00  0.00    +0.105 C 
BRANCH  18  19
ATOM     19  C   UNL     1       1.374  -5.479   7.780  0.00  0.00    +0.020 C 
BRANCH  19  20
ATOM     20  C   UNL     1       0.781  -6.386   8.861  0.00  0.00    -0.023 C 
ATOM     21  C   UNL     1      -0.594  -5.856   9.270  0.00  0.00    +0.000 C 
ATOM     22  C   UNL     1      -1.144  -6.739  10.396  0.00  0.00    -0.018 C 
ATOM     23  C   UNL     1      -0.157  -6.722  11.562  0.00  0.00    -0.078 C 
ATOM     24  N   UNL     1       1.146  -7.251  11.131  0.00  0.00    +0.382 N 
ATOM     25  C   UNL     1       1.712  -6.403  10.078  0.00  0.00    -0.065 C 
ATOM     26  C   UNL     1       3.070  -6.956   9.632  0.00  0.00    -0.015 C 
ATOM     27  C   UNL     1       4.024  -7.009  10.826  0.00  0.00    -0.003 C 
ATOM     28  C   UNL     1       3.389  -7.871  11.923  0.00  0.00    -0.019 C 
ATOM     29  C   UNL     1       2.038  -7.271  12.300  0.00  0.00    -0.078 C 
ATOM     30  H   UNL     1       1.029  -8.190  10.781  0.00  0.00    -0.081 HD
ENDBRANCH  19  20
ENDBRANCH  18  19
ENDBRANCH   3  18
TORSDOF 6
