REMARK  Name = ZINC39928438
REMARK  7 active torsions:
REMARK  status: ('A' for Active; 'I' for Inactive)
REMARK    1  A    between atoms: C_1  and  C_2
REMARK    2  A    between atoms: C_5  and  N_8
REMARK    3  A    between atoms: N_8  and  C_9
REMARK    4  A    between atoms: C_9  and  C_10
REMARK    5  A    between atoms: C_16  and  O_22
REMARK    6  A    between atoms: O_22  and  C_23
REMARK    7  A    between atoms: C_24  and  C_26
REMARK                            x       y       z     vdW  Elec       q    Type
REMARK                         _______ _______ _______ _____ _____    ______ ____
ROOT
ATOM      1  N   UNL     1       0.488  -4.209  -0.099  0.00  0.00    -0.268 N 
ATOM      2  C   UNL     1       0.071  -4.843  -1.213  0.00  0.00    +0.249 C 
ATOM      3  O   UNL     1      -0.238  -4.202  -2.196  0.00  0.00    -0.272 OA
ENDROOT
BRANCH   1   8
ATOM      4  C   UNL     1       0.388   1.458   0.146  0.00  0.00    +0.044 C 
ATOM      5  C   UNL     1       0.414  -0.047   0.081  0.00  0.00    -0.050 A 
ATOM      6  C   UNL     1      -0.193  -0.703  -0.975  0.00  0.00    +0.005 A 
ATOM      7  C   UNL     1      -0.170  -2.082  -1.037  0.00  0.00    +0.024 A 
ATOM      8  C   UNL     1       0.463  -2.811  -0.039  0.00  0.00    +0.036 A 
ATOM      9  C   UNL     1       1.072  -2.149   1.020  0.00  0.00    +0.024 A 
ATOM     10  C   UNL     1       1.050  -0.769   1.074  0.00  0.00    +0.005 A 
ENDBRANCH   1   8
BRANCH   2  11
ATOM     11  C   UNL     1      -0.012  -6.347  -1.238  0.00  0.00    +0.204 C 
ATOM     12  C   UNL     1      -1.414  -6.816  -0.773  0.00  0.00    +0.043 C 
ATOM     13  C   UNL     1      -1.504  -8.204  -1.463  0.00  0.00    +0.031 C 
ATOM     14  C   UNL     1      -0.734  -7.966  -2.780  0.00  0.00    +0.161 C 
ATOM     15  O   UNL     1       0.121  -6.832  -2.583  0.00  0.00    -0.367 OA
ENDBRANCH   2  11
BRANCH   1  16
ATOM     16  C   UNL     1       0.967  -4.983   1.049  0.00  0.00    +0.130 C 
BRANCH  16  17
ATOM     17  C   UNL     1      -0.212  -5.321   1.963  0.00  0.00    +0.116 C 
ATOM     18  C   UNL     1       0.239  -6.405   2.922  0.00  0.00    -0.003 C 
ATOM     19  C   UNL     1       0.155  -6.138   4.253  0.00  0.00    -0.007 A 
ATOM     20  C   UNL     1       0.572  -7.133   5.244  0.00  0.00    +0.013 A 
ATOM     21  C   UNL     1       0.474  -6.832   6.561  0.00  0.00    +0.046 A 
ATOM     22  C   UNL     1      -0.016  -5.589   6.989  0.00  0.00    +0.122 A 
ATOM     23  C   UNL     1      -0.422  -4.614   6.105  0.00  0.00    +0.069 A 
ATOM     24  C   UNL     1      -0.358  -4.838   4.723  0.00  0.00    +0.044 A 
ATOM     25  N   UNL     1      -0.755  -3.886   3.876  0.00  0.00    -0.284 N 
ATOM     26  C   UNL     1      -0.719  -4.029   2.563  0.00  0.00    +0.226 C 
ATOM     27  O   UNL     1      -1.093  -3.125   1.840  0.00  0.00    -0.275 OA
ATOM     28  H   UNL     1      -1.084  -3.050   4.241  0.00  0.00    +0.155 HD
BRANCH  22  29
ATOM     29  O   UNL     1      -0.092  -5.339   8.318  0.00  0.00    -0.495 OA
ATOM     30  C   UNL     1       0.340  -6.378   9.199  0.00  0.00    +0.277 C 
ENDBRANCH  22  29
ENDBRANCH  16  17
ENDBRANCH   1  16
TORSDOF 5
