REMARK  Name = ZINC50008630
REMARK  6 active torsions:
REMARK  status: ('A' for Active; 'I' for Inactive)
REMARK    1  A    between atoms: C_1  and  C_2
REMARK    2  A    between atoms: C_5  and  N_8
REMARK    3  A    between atoms: N_8  and  C_9
REMARK    4  A    between atoms: N_8  and  S_10
REMARK    5  A    between atoms: S_10  and  C_13
REMARK    6  A    between atoms: N_15  and  C_18
REMARK                            x       y       z     vdW  Elec       q    Type
REMARK                         _______ _______ _______ _____ _____    ______ ____
ROOT
ATOM      1  S   UNL     1      -0.415  -5.009   1.325  0.00  0.00    +0.095 S 
ATOM      2  O   UNL     1       0.303  -6.236   1.309  0.00  0.00    -0.148 OA
ATOM      3  O   UNL     1      -0.348  -4.101   2.416  0.00  0.00    -0.148 OA
ENDROOT
BRANCH   1   4
ATOM      4  C   UNL     1      -2.115  -5.418   1.112  0.00  0.00    +0.234 A 
ATOM      5  C   UNL     1      -3.165  -4.665   1.497  0.00  0.00    +0.156 A 
ATOM      6  N   UNL     1      -4.295  -5.351   1.142  0.00  0.00    -0.323 N 
ATOM      7  C   UNL     1      -3.897  -6.500   0.553  0.00  0.00    +0.202 A 
ATOM      8  N   UNL     1      -2.593  -6.531   0.535  0.00  0.00    -0.215 NA
ATOM      9  C   UNL     1      -5.678  -4.920   1.361  0.00  0.00    +0.151 C 
ATOM     10 CL   UNL     1      -3.097  -3.121   2.288  0.00  0.00    -0.060 Cl
ENDBRANCH   1   4
BRANCH   1  11
ATOM     11  N   UNL     1       0.058  -4.167  -0.021  0.00  0.00    -0.205 N 
ATOM     12  C   UNL     1       0.483  -4.888  -1.224  0.00  0.00    +0.157 C 
BRANCH  11  17
ATOM     13  C   UNL     1       0.033   1.503   0.029  0.00  0.00    +0.044 C 
ATOM     14  C   UNL     1       0.040  -0.004   0.016  0.00  0.00    -0.050 A 
ATOM     15  C   UNL     1      -0.739  -0.689  -0.898  0.00  0.00    +0.005 A 
ATOM     16  C   UNL     1      -0.736  -2.070  -0.913  0.00  0.00    +0.025 A 
ATOM     17  C   UNL     1       0.052  -2.771  -0.009  0.00  0.00    +0.051 A 
ATOM     18  C   UNL     1       0.833  -2.079   0.908  0.00  0.00    +0.025 A 
ATOM     19  C   UNL     1       0.829  -0.698   0.914  0.00  0.00    +0.005 A 
ENDBRANCH  11  17
ENDBRANCH   1  11
TORSDOF 3
