REMARK  Name = ZINC11635041
REMARK  9 active torsions:
REMARK  status: ('A' for Active; 'I' for Inactive)
REMARK    1  A    between atoms: C_1  and  C_2
REMARK    2  A    between atoms: C_2  and  S_3
REMARK    3  A    between atoms: S_3  and  N_6
REMARK    4  A    between atoms: N_6  and  C_7
REMARK    5  A    between atoms: C_12  and  C_13
REMARK    6  A    between atoms: C_18  and  C_22
REMARK    7  A    between atoms: C_22  and  C_23
REMARK    8  A    between atoms: C_22  and  C_24
REMARK    9  A    between atoms: C_22  and  C_25
REMARK                            x       y       z     vdW  Elec       q    Type
REMARK                         _______ _______ _______ _____ _____    ______ ____
ROOT
ATOM      1  C   UNL     1      -1.981   1.923   1.105  0.00  0.00    +0.051 A 
ATOM      2  C   UNL     1      -2.529   2.440   2.265  0.00  0.00    +0.036 A 
ATOM      3  C   UNL     1      -1.693   2.809   3.318  0.00  0.00    +0.025 A 
ATOM      4  C   UNL     1      -0.300   2.650   3.201  0.00  0.00    +0.136 A 
ATOM      5  C   UNL     1       0.231   2.124   2.031  0.00  0.00    +0.052 A 
ATOM      6  C   UNL     1      -0.601   1.762   0.995  0.00  0.00    -0.025 A 
ATOM      7  C   UNL     1      -0.014   1.192  -0.270  0.00  0.00    +0.046 C 
ATOM      8  O   UNL     1       0.252   3.083   4.355  0.00  0.00    -0.459 OA
ATOM      9  C   UNL     1      -0.692   3.512   5.208  0.00  0.00    +0.109 A 
ATOM     10  C   UNL     1      -1.905   3.377   4.648  0.00  0.00    +0.002 A 
ATOM     11  C   UNL     1      -3.206   3.754   5.306  0.00  0.00    +0.043 C 
ATOM     12  C   UNL     1      -2.899   4.667   6.500  0.00  0.00    -0.001 C 
ATOM     13  C   UNL     1      -1.802   4.027   7.356  0.00  0.00    +0.012 C 
ATOM     14  C   UNL     1      -0.471   4.069   6.597  0.00  0.00    +0.075 C 
ENDROOT
BRANCH  12  15
ATOM     15  C   UNL     1      -4.163   4.848   7.342  0.00  0.00    -0.035 C 
ATOM     16  C   UNL     1      -4.637   3.485   7.851  0.00  0.00    +0.011 C 
ATOM     17  C   UNL     1      -3.856   5.759   8.533  0.00  0.00    +0.011 C 
ATOM     18  C   UNL     1      -5.261   5.482   6.485  0.00  0.00    +0.011 C 
ENDBRANCH  12  15
BRANCH   1  19
ATOM     19  N   UNL     1      -2.813   1.556   0.042  0.00  0.00    -0.220 N 
ATOM     20  H   UNL     1      -2.591   0.786  -0.505  0.00  0.00    +0.173 HD
BRANCH  19  21
ATOM     21  S   UNL     1      -4.179   2.435  -0.282  0.00  0.00    +0.043 S 
ATOM     22  O   UNL     1      -4.718   1.846  -1.457  0.00  0.00    -0.155 OA
ATOM     23  O   UNL     1      -4.913   2.426   0.935  0.00  0.00    -0.155 OA
BRANCH  21  25
ATOM     24  C   UNL     1      -4.771   5.019  -0.956  0.00  0.00    +0.030 C 
ATOM     25  C   UNL     1      -3.581   4.110  -0.639  0.00  0.00    +0.185 C 
ENDBRANCH  21  25
ENDBRANCH  19  21
ENDBRANCH   1  19
TORSDOF 4
