REMARK  Name = ZINC67426674
REMARK  9 active torsions:
REMARK  status: ('A' for Active; 'I' for Inactive)
REMARK    1  A    between atoms: C_1  and  C_2
REMARK    2  A    between atoms: C_5  and  N_9
REMARK    3  A    between atoms: C_6  and  C_8
REMARK    4  A    between atoms: C_10  and  C_12
REMARK    5  A    between atoms: N_14  and  C_15
REMARK    6  A    between atoms: C_15  and  C_17
REMARK    7  A    between atoms: C_15  and  C_18
REMARK    8  A    between atoms: C_21  and  N_24
REMARK    9  A    between atoms: N_27  and  C_30
REMARK                            x       y       z     vdW  Elec       q    Type
REMARK                         _______ _______ _______ _____ _____    ______ ____
ROOT
ATOM      1  C   UNL     1      -0.146  -6.331  -1.179  0.00  0.00    +0.300 C 
ATOM      2  O   UNL     1      -0.125  -6.944  -0.132  0.00  0.00    -0.265 OA
ATOM      3  N   UNL     1      -0.243  -6.996  -2.347  0.00  0.00    -0.301 N 
ATOM      4  H   UNL     1      -0.260  -6.506  -3.184  0.00  0.00    +0.150 HD
ENDROOT
BRANCH   1   6
ATOM      5  N   UNL     1       0.034  -4.175  -0.005  0.00  0.00    -0.278 N 
ATOM      6  C   UNL     1      -0.064  -4.840  -1.173  0.00  0.00    +0.303 C 
ATOM      7  O   UNL     1      -0.085  -4.226  -2.220  0.00  0.00    -0.265 OA
ATOM      8  H   UNL     1       0.114  -4.666   0.828  0.00  0.00    +0.155 HD
BRANCH   5  13
ATOM      9  C   UNL     1      -0.032   1.496   0.044  0.00  0.00    +0.044 C 
ATOM     10  C   UNL     1      -0.015  -0.011   0.031  0.00  0.00    -0.050 A 
ATOM     11  C   UNL     1       0.584  -0.685  -1.018  0.00  0.00    +0.005 A 
ATOM     12  C   UNL     1       0.602  -2.066  -1.033  0.00  0.00    +0.024 A 
ATOM     13  C   UNL     1       0.018  -2.778   0.008  0.00  0.00    +0.037 A 
ATOM     14  C   UNL     1      -0.583  -2.097   1.059  0.00  0.00    -0.029 A 
ATOM     15  C   UNL     1      -0.593  -0.716   1.070  0.00  0.00    +0.008 A 
ATOM     16  C   UNL     1      -1.218  -2.865   2.190  0.00  0.00    +0.045 C 
ENDBRANCH   5  13
ENDBRANCH   1   6
BRANCH   3  17
ATOM     17  C   UNL     1      -0.323  -8.458  -2.353  0.00  0.00    +0.101 C 
ATOM     18  C   UNL     1       1.088  -9.047  -2.304  0.00  0.00    +0.033 C 
BRANCH  17  19
ATOM     19  C   UNL     1      -1.016  -8.918  -3.610  0.00  0.00    -0.027 A 
ATOM     20  C   UNL     1      -0.745  -8.295  -4.814  0.00  0.00    +0.007 A 
ATOM     21  C   UNL     1      -1.378  -8.714  -5.968  0.00  0.00    +0.023 A 
ATOM     22  C   UNL     1      -2.288  -9.763  -5.918  0.00  0.00    +0.030 A 
ATOM     23  C   UNL     1      -2.558 -10.387  -4.706  0.00  0.00    +0.023 A 
ATOM     24  C   UNL     1      -1.917  -9.966  -3.557  0.00  0.00    +0.007 A 
BRANCH  22  25
ATOM     25  N   UNL     1      -2.930 -10.189  -7.082  0.00  0.00    -0.333 N 
ATOM     26  C   UNL     1      -3.988 -11.210  -7.032  0.00  0.00    +0.086 C 
ATOM     27  C   UNL     1      -5.204 -10.688  -7.804  0.00  0.00    -0.060 C 
ATOM     28  N   UNL     1      -4.795 -10.306  -9.161  0.00  0.00    +0.380 N 
ATOM     29  C   UNL     1      -3.853  -9.181  -9.101  0.00  0.00    -0.060 C 
ATOM     30  C   UNL     1      -2.573  -9.625  -8.393  0.00  0.00    +0.086 C 
ATOM     31  C   UNL     1      -5.979  -9.909  -9.935  0.00  0.00    -0.096 C 
ATOM     32  H   UNL     1      -4.350 -11.092  -9.611  0.00  0.00    -0.082 HD
ENDBRANCH  22  25
ENDBRANCH  17  19
ENDBRANCH   3  17
TORSDOF 5
