REMARK  Name = ZINC41315423
REMARK  2 active torsions:
REMARK  status: ('A' for Active; 'I' for Inactive)
REMARK    1  A    between atoms: C_4  and  C_7
REMARK    2  A    between atoms: C_7  and  N_8
REMARK                            x       y       z     vdW  Elec       q    Type
REMARK                         _______ _______ _______ _____ _____    ______ ____
ROOT
ATOM      1  N   UNL     1       4.157  -0.944   1.337  0.00  0.00    -0.295 N 
ATOM      2  C   UNL     1       5.311  -1.601   1.569  0.00  0.00    +0.303 C 
ATOM      3  O   UNL     1       5.941  -2.069   0.640  0.00  0.00    -0.253 OA
ATOM      4  N   UNL     1       5.766  -1.738   2.830  0.00  0.00    -0.278 N 
ATOM      5  C   UNL     1       4.968  -1.294   3.986  0.00  0.00    +0.137 C 
ATOM      6  C   UNL     1       4.902  -2.432   5.009  0.00  0.00    +0.179 C 
ATOM      7  O   UNL     1       6.221  -2.916   5.284  0.00  0.00    -0.373 OA
ATOM      8  C   UNL     1       6.880  -3.453   4.139  0.00  0.00    +0.139 C 
ATOM      9  C   UNL     1       7.076  -2.341   3.108  0.00  0.00    +0.106 C 
ATOM     10  C   UNL     1       7.678  -2.945   1.841  0.00  0.00    +0.025 C 
ATOM     11  C   UNL     1       9.039  -3.559   2.183  0.00  0.00    +0.002 C 
ATOM     12  C   UNL     1       8.870  -4.643   3.248  0.00  0.00    +0.003 C 
ATOM     13  C   UNL     1       8.249  -4.025   4.502  0.00  0.00    +0.033 C 
ATOM     14  H   UNL     1       3.617  -0.634   2.081  0.00  0.00    +0.151 HD
ENDROOT
BRANCH   1  15
ATOM     15  C   UNL     1       3.716  -0.700  -0.039  0.00  0.00    +0.141 C 
BRANCH  15  19
ATOM     16  C   UNL     1       0.005   1.414   0.006  0.00  0.00    +0.000 A 
ATOM     17  C   UNL     1       1.198   2.112  -0.005  0.00  0.00    +0.000 A 
ATOM     18  C   UNL     1       2.399   1.428  -0.019  0.00  0.00    +0.005 A 
ATOM     19  C   UNL     1       2.407   0.046  -0.022  0.00  0.00    -0.030 A 
ATOM     20  C   UNL     1       1.214  -0.652  -0.010  0.00  0.00    +0.005 A 
ATOM     21  C   UNL     1       0.013   0.032   0.002  0.00  0.00    +0.000 A 
ENDBRANCH  15  19
ENDBRANCH   1  15
TORSDOF 2
