REMARK  Name = ZINC01365055
REMARK  5 active torsions:
REMARK  status: ('A' for Active; 'I' for Inactive)
REMARK    1  A    between atoms: C_1  and  O_2
REMARK    2  A    between atoms: O_2  and  C_3
REMARK    3  A    between atoms: C_6  and  C_9
REMARK    4  A    between atoms: N_11  and  N_12
REMARK    5  A    between atoms: C_22  and  C_23
REMARK                            x       y       z     vdW  Elec       q    Type
REMARK                         _______ _______ _______ _____ _____    ______ ____
ROOT
ATOM      1  N   UNL     1      -1.394   5.172  -2.217  0.00  0.00    -0.209 N 
ATOM      2  C   UNL     1      -2.231   5.826  -1.378  0.00  0.00    +0.279 A 
ATOM      3  O   UNL     1      -2.972   5.221  -0.625  0.00  0.00    -0.265 OA
ATOM      4  C   UNL     1      -2.206   7.296  -1.408  0.00  0.00    +0.067 A 
ATOM      5  C   UNL     1      -3.024   8.064  -0.582  0.00  0.00    +0.017 A 
ATOM      6  C   UNL     1      -2.967   9.428  -0.653  0.00  0.00    +0.021 A 
ATOM      7  C   UNL     1      -2.101  10.057  -1.540  0.00  0.00    +0.043 A 
ATOM      8  C   UNL     1      -1.282   9.320  -2.368  0.00  0.00    +0.048 A 
ATOM      9  C   UNL     1      -1.323   7.925  -2.313  0.00  0.00    +0.080 A 
ATOM     10  N   UNL     1      -0.537   7.157  -3.108  0.00  0.00    -0.232 NA
ATOM     11  C   UNL     1      -0.577   5.860  -3.056  0.00  0.00    +0.134 A 
ATOM     12 CL   UNL     1      -2.051  11.791  -1.607  0.00  0.00    -0.083 Cl
ENDROOT
BRANCH   1  15
ATOM     13  C   UNL     1      -0.773   3.099  -1.223  0.00  0.00    +0.234 C 
ATOM     14  O   UNL     1      -0.248   3.708  -0.315  0.00  0.00    -0.274 OA
ATOM     15  N   UNL     1      -1.375   3.771  -2.225  0.00  0.00    -0.218 N 
ATOM     16  H   UNL     1      -1.796   3.284  -2.951  0.00  0.00    +0.176 HD
BRANCH  13  20
ATOM     17  C   UNL     1      -2.164   1.050   1.278  0.00  0.00    +0.118 C 
ATOM     18  C   UNL     1      -0.729   1.579   1.267  0.00  0.00    +0.032 C 
ATOM     19  C   UNL     1      -0.013   1.086   0.008  0.00  0.00    +0.015 C 
ATOM     20  C   UNL     1      -0.753   1.593  -1.232  0.00  0.00    +0.077 C 
ATOM     21  C   UNL     1      -2.188   1.063  -1.221  0.00  0.00    +0.015 C 
ATOM     22  C   UNL     1      -2.904   1.556   0.038  0.00  0.00    +0.032 C 
BRANCH  17  24
ATOM     23  C   UNL     1      -2.708   0.634   3.575  0.00  0.00    +0.194 C 
ATOM     24  O   UNL     1      -2.833   1.510   2.453  0.00  0.00    -0.380 OA
ENDBRANCH  17  24
ENDBRANCH  13  20
ENDBRANCH   1  15
BRANCH  11  25
ATOM     25  C   UNL     1       0.329   5.079  -3.972  0.00  0.00    +0.057 C 
ATOM     26  C   UNL     1       1.776   5.557  -4.111  0.00  0.00    +0.012 C 
ATOM     27  C   UNL     1       0.788   5.762  -5.262  0.00  0.00    +0.012 C 
ENDBRANCH  11  25
TORSDOF 4
