REMARK  Name = ZINC39737801
REMARK  8 active torsions:
REMARK  status: ('A' for Active; 'I' for Inactive)
REMARK    1  A    between atoms: C_1  and  C_2
REMARK    2  A    between atoms: C_3  and  C_30
REMARK    3  A    between atoms: C_5  and  N_10
REMARK    4  A    between atoms: C_6  and  C_7
REMARK    5  A    between atoms: C_11  and  C_13
REMARK    6  A    between atoms: C_16  and  S_19
REMARK    7  A    between atoms: S_19  and  N_22
REMARK    8  A    between atoms: C_27  and  C_29
REMARK                            x       y       z     vdW  Elec       q    Type
REMARK                         _______ _______ _______ _____ _____    ______ ____
ROOT
ATOM      1  N   UNL     1      -0.218  -3.246   1.743  0.00  0.00    -0.275 N 
ATOM      2  C   UNL     1      -0.161  -4.568   1.485  0.00  0.00    +0.249 C 
ATOM      3  O   UNL     1      -0.167  -4.963   0.335  0.00  0.00    -0.270 OA
ATOM      4  H   UNL     1      -0.213  -2.931   2.660  0.00  0.00    +0.156 HD
ENDROOT
BRANCH   1   9
ATOM      5  C   UNL     1      -0.475   1.263  -0.544  0.00  0.00    +0.045 C 
ATOM      6  C   UNL     1      -0.404  -0.241  -0.481  0.00  0.00    -0.027 A 
ATOM      7  C   UNL     1      -0.392  -1.003  -1.590  0.00  0.00    -0.008 A 
ATOM      8  S   UNL     1      -0.301  -2.660  -0.948  0.00  0.00    -0.078 S 
ATOM      9  C   UNL     1      -0.281  -2.338   0.699  0.00  0.00    +0.085 A 
ATOM     10  C   UNL     1      -0.339  -0.954   0.774  0.00  0.00    +0.068 A 
ATOM     11  C   UNL     1      -0.443  -0.560  -3.030  0.00  0.00    +0.052 C 
BRANCH  10  12
ATOM     12  C   UNL     1      -0.339  -0.251   2.061  0.00  0.00    +0.244 C 
ATOM     13  O   UNL     1      -1.391  -0.009   2.622  0.00  0.00    -0.270 OA
ATOM     14  N   UNL     1       0.827   0.126   2.623  0.00  0.00    -0.325 N 
ATOM     15  H   UNL     1       1.666  -0.068   2.175  0.00  0.00    +0.145 HD
ATOM     16  H   UNL     1       0.827   0.591   3.474  0.00  0.00    +0.145 HD
ENDBRANCH  10  12
ENDBRANCH   1   9
BRANCH   2  17
ATOM     17  C   UNL     1      -0.093  -5.537   2.599  0.00  0.00    +0.037 A 
ATOM     18  C   UNL     1      -0.093  -5.086   3.920  0.00  0.00    +0.015 A 
ATOM     19  C   UNL     1      -0.030  -5.996   4.956  0.00  0.00    +0.029 A 
ATOM     20  C   UNL     1       0.034  -7.351   4.687  0.00  0.00    +0.106 A 
ATOM     21  C   UNL     1       0.034  -7.804   3.379  0.00  0.00    +0.029 A 
ATOM     22  C   UNL     1      -0.035  -6.906   2.335  0.00  0.00    +0.015 A 
BRANCH  20  23
ATOM     23  S   UNL     1       0.115  -8.506   6.015  0.00  0.00    +0.061 S 
ATOM     24  O   UNL     1       0.717  -9.683   5.494  0.00  0.00    -0.153 OA
ATOM     25  O   UNL     1       0.651  -7.806   7.130  0.00  0.00    -0.153 OA
BRANCH  23  26
ATOM     26  N   UNL     1      -1.442  -8.906   6.412  0.00  0.00    -0.174 NA
ATOM     27  C   UNL     1      -2.135  -8.220   7.510  0.00  0.00    +0.110 C 
ATOM     28  C   UNL     1      -2.671  -9.270   8.488  0.00  0.00    +0.017 C 
ATOM     29  C   UNL     1      -3.540 -10.274   7.727  0.00  0.00    +0.003 C 
ATOM     30  C   UNL     1      -2.693 -10.986   6.670  0.00  0.00    +0.020 C 
ATOM     31  C   UNL     1      -2.159  -9.951   5.668  0.00  0.00    +0.077 C 
ATOM     32  C   UNL     1      -1.202 -10.631   4.686  0.00  0.00    +0.026 C 
ENDBRANCH  23  26
ENDBRANCH  20  23
ENDBRANCH   2  17
TORSDOF 5
