REMARK  Name = ZINC09065815
REMARK  5 active torsions:
REMARK  status: ('A' for Active; 'I' for Inactive)
REMARK    1  A    between atoms: C_1  and  C_2
REMARK    2  A    between atoms: C_6  and  C_7
REMARK    3  A    between atoms: C_12  and  C_24
REMARK    4  A    between atoms: C_20  and  S_22
REMARK    5  A    between atoms: S_22  and  C_23
REMARK                            x       y       z     vdW  Elec       q    Type
REMARK                         _______ _______ _______ _____ _____    ______ ____
ROOT
ATOM      1  C   UNL     1      -1.206   2.714   0.023  0.00  0.00    +0.163 C 
ATOM      2  C   UNL     1      -1.987   2.502  -1.260  0.00  0.00    +0.129 C 
ATOM      3  C   UNL     1      -1.394   2.671  -2.449  0.00  0.00    +0.145 C 
ATOM      4  C   UNL     1      -2.150   2.469  -3.735  0.00  0.00    +0.078 C 
ATOM      5  C   UNL     1      -3.249   1.426  -3.518  0.00  0.00    -0.002 C 
ATOM      6  C   UNL     1      -4.162   1.907  -2.395  0.00  0.00    +0.055 C 
ATOM      7  C   UNL     1      -3.339   2.128  -1.148  0.00  0.00    +0.036 C 
ATOM      8  N   UNL     1      -3.891   1.964   0.025  0.00  0.00    -0.219 NA
ATOM      9  C   UNL     1      -3.257   2.131   1.207  0.00  0.00    +0.250 A 
ATOM     10  N   UNL     1      -1.949   2.496   1.270  0.00  0.00    -0.219 N 
ATOM     11  N   UNL     1      -1.608   2.579   2.623  0.00  0.00    -0.141 NA
ATOM     12  C   UNL     1      -2.688   2.271   3.305  0.00  0.00    +0.210 A 
ATOM     13  N   UNL     1      -3.683   2.001   2.457  0.00  0.00    -0.184 NA
ATOM     14  C   UNL     1      -4.064   1.265  -4.804  0.00  0.00    +0.008 C 
ATOM     15  O   UNL     1      -0.094   3.031  -2.494  0.00  0.00    -0.297 OA
ENDROOT
BRANCH   1  21
ATOM     16  C   UNL     1       1.760   3.514   0.004  0.00  0.00    +0.044 C 
ATOM     17  C   UNL     1       1.300   2.079   0.001  0.00  0.00    -0.038 A 
ATOM     18  C   UNL     1       2.220   1.048  -0.013  0.00  0.00    +0.011 A 
ATOM     19  C   UNL     1       1.773  -0.232  -0.016  0.00  0.00    +0.046 A 
ATOM     20  S   UNL     1       0.002  -0.004   0.002  0.00  0.00    -0.099 S 
ATOM     21  C   UNL     1      -0.022   1.781   0.012  0.00  0.00    +0.018 A 
ENDBRANCH   1  21
BRANCH  12  22
ATOM     22  S   UNL     1      -2.805   2.222   5.063  0.00  0.00    -0.088 S 
ATOM     23  C   UNL     1      -4.526   1.739   5.375  0.00  0.00    +0.093 C 
ENDBRANCH  12  22
TORSDOF 2
