REMARK  Name = ZINC55599850
REMARK  7 active torsions:
REMARK  status: ('A' for Active; 'I' for Inactive)
REMARK    1  A    between atoms: C_1  and  C_2
REMARK    2  A    between atoms: C_3  and  C_14
REMARK    3  A    between atoms: C_4  and  C_13
REMARK    4  A    between atoms: C_9  and  S_11
REMARK    5  A    between atoms: S_11  and  C_12
REMARK    6  A    between atoms: C_14  and  C_15
REMARK    7  A    between atoms: C_21  and  C_23
REMARK                            x       y       z     vdW  Elec       q    Type
REMARK                         _______ _______ _______ _____ _____    ______ ____
ROOT
ATOM      1  C   UNL     1      -2.817   0.658  -0.361  0.00  0.00    +0.134 C 
ENDROOT
BRANCH   1   4
ATOM      2  C   UNL     1      -0.493   2.410  -0.444  0.00  0.00    +0.066 C 
ATOM      3  C   UNL     1      -0.329   0.930  -0.670  0.00  0.00    +0.047 A 
ATOM      4  C   UNL     1      -1.448   0.090  -0.630  0.00  0.00    +0.004 A 
ATOM      5  C   UNL     1      -1.285  -1.243  -0.837  0.00  0.00    +0.049 A 
ATOM      6  N   UNL     1      -0.038  -1.725  -1.078  0.00  0.00    -0.200 N 
ATOM      7  C   UNL     1       1.034  -0.879  -1.110  0.00  0.00    +0.254 A 
ATOM      8  N   UNL     1       0.864   0.433  -0.910  0.00  0.00    -0.216 NA
ATOM      9  N   UNL     1       2.112  -1.613  -1.362  0.00  0.00    -0.183 NA
ATOM     10  C   UNL     1       1.764  -2.892  -1.490  0.00  0.00    +0.211 A 
ATOM     11  N   UNL     1       0.462  -3.011  -1.325  0.00  0.00    -0.137 NA
ATOM     12  C   UNL     1      -2.470  -2.173  -0.800  0.00  0.00    +0.066 C 
BRANCH  10  13
ATOM     13  S   UNL     1       2.873  -4.220  -1.828  0.00  0.00    -0.088 S 
ATOM     14  C   UNL     1       4.496  -3.418  -1.944  0.00  0.00    +0.093 C 
ENDBRANCH  10  13
ENDBRANCH   1   4
BRANCH   1  15
ATOM     15  C   UNL     1      -3.031   0.768   1.127  0.00  0.00    +0.220 C 
ATOM     16  O   UNL     1      -2.158   0.420   1.893  0.00  0.00    -0.275 OA
ATOM     17  N   UNL     1      -4.194   1.254   1.607  0.00  0.00    -0.298 N 
ATOM     18  C   UNL     1      -5.297   1.800   0.795  0.00  0.00    +0.108 C 
ATOM     19  C   UNL     1      -6.559   1.631   1.677  0.00  0.00    +0.021 C 
ATOM     20  C   UNL     1      -5.993   1.924   3.091  0.00  0.00    +0.024 C 
ATOM     21  C   UNL     1      -4.574   1.321   3.025  0.00  0.00    +0.079 C 
BRANCH  21  22
ATOM     22  C   UNL     1      -3.595   2.217   3.785  0.00  0.00    +0.010 C 
ATOM     23  C   UNL     1      -4.031   2.326   5.247  0.00  0.00    +0.005 C 
ATOM     24  C   UNL     1      -3.052   3.222   6.007  0.00  0.00    +0.000 C 
ATOM     25  C   UNL     1      -3.039   4.615   5.374  0.00  0.00    +0.000 C 
ATOM     26  C   UNL     1      -2.602   4.507   3.912  0.00  0.00    +0.000 C 
ATOM     27  C   UNL     1      -3.582   3.610   3.152  0.00  0.00    +0.005 C 
ENDBRANCH  21  22
ENDBRANCH   1  15
TORSDOF 4
