REMARK  Name = ZINC54920761
REMARK  9 active torsions:
REMARK  status: ('A' for Active; 'I' for Inactive)
REMARK    1  A    between atoms: C_1  and  N_2
REMARK    2  A    between atoms: N_2  and  C_3
REMARK    3  A    between atoms: N_2  and  C_4
REMARK    4  A    between atoms: C_4  and  C_6
REMARK    5  A    between atoms: C_4  and  C_22
REMARK    6  A    between atoms: C_6  and  N_7
REMARK    7  A    between atoms: N_10  and  N_11
REMARK    8  A    between atoms: C_12  and  C_14
REMARK    9  A    between atoms: C_14  and  C_15
REMARK                            x       y       z     vdW  Elec       q    Type
REMARK                         _______ _______ _______ _____ _____    ______ ____
ROOT
ATOM      1  N   UNL     1       2.052   1.349  -0.743  0.00  0.00    -0.299 N 
ATOM      2  C   UNL     1       3.213   1.984  -0.487  0.00  0.00    +0.316 C 
ATOM      3  O   UNL     1       4.265   1.378  -0.557  0.00  0.00    -0.251 OA
ATOM      4  N   UNL     1       3.208   3.289  -0.154  0.00  0.00    -0.218 N 
ATOM      5  H   UNL     1       1.212   1.832  -0.688  0.00  0.00    +0.150 HD
ATOM      6  H   UNL     1       4.043   3.746   0.031  0.00  0.00    +0.174 HD
ENDROOT
BRANCH   4   7
ATOM      7  N   UNL     1       1.995   3.987  -0.074  0.00  0.00    -0.233 N 
ATOM      8  C   UNL     1       1.990   5.293   0.260  0.00  0.00    +0.233 C 
ATOM      9  O   UNL     1       3.035   5.864   0.490  0.00  0.00    -0.274 OA
ATOM     10  H   UNL     1       1.160   3.530  -0.258  0.00  0.00    +0.173 HD
BRANCH   8  11
ATOM     11  C   UNL     1       0.686   6.043   0.346  0.00  0.00    +0.132 C 
BRANCH  11  12
ATOM     12  C   UNL     1       0.955   7.475   0.734  0.00  0.00    -0.038 A 
ATOM     13  C   UNL     1       0.990   7.834   2.068  0.00  0.00    +0.007 A 
ATOM     14  C   UNL     1       1.237   9.146   2.425  0.00  0.00    +0.038 A 
ATOM     15  C   UNL     1       1.449  10.101   1.445  0.00  0.00    +0.123 A 
ATOM     16  C   UNL     1       1.413   9.740   0.109  0.00  0.00    +0.038 A 
ATOM     17  C   UNL     1       1.172   8.426  -0.245  0.00  0.00    +0.007 A 
ATOM     18  F   UNL     1       1.690  11.384   1.793  0.00  0.00    -0.205 F 
ENDBRANCH  11  12
ENDBRANCH   8  11
ENDBRANCH   4   7
BRANCH   1  19
ATOM     19  C   UNL     1       2.058  -0.071  -1.106  0.00  0.00    +0.095 C 
BRANCH  19  20
ATOM     20  C   UNL     1       0.617  -0.573  -1.224  0.00  0.00    -0.020 C 
BRANCH  20  21
ATOM     21  C   UNL     1      -0.051  -0.506   0.125  0.00  0.00    -0.041 A 
ATOM     22  C   UNL     1      -0.900   0.543   0.425  0.00  0.00    +0.003 A 
ATOM     23  C   UNL     1      -1.512   0.605   1.663  0.00  0.00    +0.000 A 
ATOM     24  C   UNL     1      -1.276  -0.383   2.601  0.00  0.00    +0.001 A 
ATOM     25  C   UNL     1      -0.428  -1.432   2.302  0.00  0.00    +0.020 A 
ATOM     26  C   UNL     1       0.181  -1.497   1.062  0.00  0.00    +0.043 A 
ATOM     27 CL   UNL     1       1.242  -2.818   0.683  0.00  0.00    -0.083 Cl
ENDBRANCH  20  21
BRANCH  20  29
ATOM     28  C   UNL     1       0.605   0.310  -3.455  0.00  0.00    -0.096 C 
ATOM     29  N   UNL     1      -0.118   0.270  -2.177  0.00  0.00    +0.382 N 
ATOM     30  C   UNL     1      -1.460  -0.289  -2.391  0.00  0.00    -0.096 C 
ATOM     31  H   UNL     1      -0.199   1.205  -1.806  0.00  0.00    -0.082 HD
ENDBRANCH  20  29
ENDBRANCH  19  20
ENDBRANCH   1  19
TORSDOF 7
