REMARK  Name = ZINC38534868
REMARK  5 active torsions:
REMARK  status: ('A' for Active; 'I' for Inactive)
REMARK    1  A    between atoms: C_1  and  N_2
REMARK    2  A    between atoms: N_2  and  C_3
REMARK    3  A    between atoms: N_2  and  C_4
REMARK    4  A    between atoms: C_7  and  C_9
REMARK    5  A    between atoms: N_10  and  N_11
REMARK                            x       y       z     vdW  Elec       q    Type
REMARK                         _______ _______ _______ _____ _____    ______ ____
ROOT
ATOM      1  N   UNL     1       0.039  -6.015  -2.966  0.00  0.00    -0.127 N 
ATOM      2  C   UNL     1       0.039  -6.281  -4.315  0.00  0.00    +0.246 C 
ATOM      3  O   UNL     1       0.320  -5.525  -5.220  0.00  0.00    -0.273 OA
ATOM      4  C   UNL     1      -0.389  -7.719  -4.417  0.00  0.00    +0.097 C 
ATOM      5  C   UNL     1       0.224  -8.693  -5.430  0.00  0.00    +0.031 C 
ATOM      6  C   UNL     1       1.737  -8.770  -5.339  0.00  0.00    -0.026 C 
ATOM      7  C   UNL     1       2.124  -9.361  -4.215  0.00  0.00    -0.026 C 
ATOM      8  C   UNL     1       0.813  -9.600  -3.386  0.00  0.00    +0.031 C 
ATOM      9  C   UNL     1       0.470  -8.155  -3.156  0.00  0.00    +0.097 C 
ATOM     10  C   UNL     1       0.056  -7.169  -2.198  0.00  0.00    +0.246 C 
ATOM     11  O   UNL     1      -0.211  -7.311  -1.024  0.00  0.00    -0.273 OA
ATOM     12  C   UNL     1      -0.105  -9.985  -4.612  0.00  0.00    -0.015 C 
ATOM     13  C   UNL     1      -0.234 -11.352  -5.200  0.00  0.00    +0.009 C 
ATOM     14  C   UNL     1      -1.438 -10.648  -4.551  0.00  0.00    +0.009 C 
ENDROOT
BRANCH   1  16
ATOM     15  C   UNL     1       0.015  -3.687  -3.219  0.00  0.00    +0.177 C 
ATOM     16  N   UNL     1       0.031  -4.722  -2.428  0.00  0.00    -0.175 NA
BRANCH  15  20
ATOM     17  C   UNL     1       0.000  -0.690  -1.202  0.00  0.00    +0.189 A 
ATOM     18  C   UNL     1      -0.014  -0.124  -2.439  0.00  0.00    +0.066 A 
ATOM     19  C   UNL     1      -0.010  -1.172  -3.371  0.00  0.00    +0.053 A 
ATOM     20  C   UNL     1       0.006  -2.337  -2.657  0.00  0.00    +0.150 A 
ATOM     21  O   UNL     1       0.017  -2.026  -1.343  0.00  0.00    -0.440 OA
BRANCH  17  23
ATOM     22  C   UNL     1      -0.018   1.461   0.010  0.00  0.00    +0.132 C 
ATOM     23  N   UNL     1       0.002  -0.004   0.002  0.00  0.00    -0.308 N 
ATOM     24  C   UNL     1       0.024  -0.743   1.267  0.00  0.00    +0.132 C 
ENDBRANCH  17  23
ENDBRANCH  15  20
ENDBRANCH   1  16
TORSDOF 3
