REMARK  Name = ZINC38612331
REMARK  8 active torsions:
REMARK  status: ('A' for Active; 'I' for Inactive)
REMARK    1  A    between atoms: C_1  and  C_2
REMARK    2  A    between atoms: C_2  and  O_3
REMARK    3  A    between atoms: O_3  and  C_4
REMARK    4  A    between atoms: C_6  and  C_12
REMARK    5  A    between atoms: C_9  and  O_10
REMARK    6  A    between atoms: N_13  and  N_14
REMARK    7  A    between atoms: C_15  and  C_17
REMARK    8  A    between atoms: C_20  and  C_23
REMARK                            x       y       z     vdW  Elec       q    Type
REMARK                         _______ _______ _______ _____ _____    ______ ____
ROOT
ATOM      1  C   UNL     1      -1.498  -1.849   0.006  0.00  0.00    +0.163 A 
ATOM      2  C   UNL     1      -0.391  -2.676  -0.003  0.00  0.00    +0.059 A 
ATOM      3  C   UNL     1      -0.558  -4.063  -0.008  0.00  0.00    -0.001 A 
ATOM      4  C   UNL     1      -1.845  -4.608  -0.004  0.00  0.00    +0.027 A 
ATOM      5  C   UNL     1      -2.946  -3.777   0.005  0.00  0.00    +0.059 A 
ATOM      6  C   UNL     1      -2.778  -2.399   0.016  0.00  0.00    +0.172 A 
ATOM      7  I   UNL     1      -4.874  -4.595   0.011  0.00  0.00    -0.040 I 
ENDROOT
BRANCH   6   8
ATOM      8  O   UNL     1      -3.866  -1.584   0.030  0.00  0.00    -0.503 OA
ATOM      9  H   UNL     1      -4.189  -1.343  -0.849  0.00  0.00    +0.292 HD
ENDBRANCH   6   8
BRANCH   3  10
ATOM     10  C   UNL     1       0.620  -4.950  -0.019  0.00  0.00    +0.138 C 
ATOM     11  N   UNL     1       0.462  -6.238  -0.024  0.00  0.00    -0.188 NA
BRANCH  11  12
ATOM     12  N   UNL     1       1.581  -7.081  -0.033  0.00  0.00    -0.205 N 
ATOM     13  C   UNL     1       1.418  -8.418  -0.039  0.00  0.00    +0.262 C 
ATOM     14  O   UNL     1       0.301  -8.893  -0.035  0.00  0.00    -0.271 OA
ATOM     15  H   UNL     1       2.474  -6.701  -0.036  0.00  0.00    +0.177 HD
BRANCH  13  16
ATOM     16  C   UNL     1       2.622  -9.325  -0.049  0.00  0.00    +0.240 C 
ATOM     17  C   UNL     1       3.156  -9.492  -1.461  0.00  0.00    +0.035 C 
ATOM     18  C   UNL     1       3.032 -10.799  -1.698  0.00  0.00    +0.059 C 
ATOM     19  N   UNL     1       2.501 -11.434  -0.630  0.00  0.00    -0.159 NA
ATOM     20  N   UNL     1       2.244 -10.697   0.331  0.00  0.00    -0.170 NA
ATOM     21  C   UNL     1       3.431 -11.477  -2.984  0.00  0.00    +0.067 C 
ENDBRANCH  13  16
ENDBRANCH  11  12
ENDBRANCH   3  10
BRANCH   1  22
ATOM     22  O   UNL     1      -1.339  -0.499   0.012  0.00  0.00    -0.489 OA
BRANCH  22  24
ATOM     23  C   UNL     1      -0.019   1.526   0.010  0.00  0.00    +0.048 C 
ATOM     24  C   UNL     1       0.002  -0.004   0.002  0.00  0.00    +0.226 C 
ENDBRANCH  22  24
ENDBRANCH   1  22
TORSDOF 6
