REMARK  Name = ZINC35368905
REMARK  2 active torsions:
REMARK  status: ('A' for Active; 'I' for Inactive)
REMARK    1  A    between atoms: C_6  and  C_7
REMARK    2  A    between atoms: C_7  and  C_9
REMARK                            x       y       z     vdW  Elec       q    Type
REMARK                         _______ _______ _______ _____ _____    ______ ____
ROOT
ATOM      1  C   UNL     1      -0.017   1.393  -0.013  0.00  0.00    +0.013 A 
ATOM      2  C   UNL     1       1.161   2.102  -0.021  0.00  0.00    +0.024 A 
ATOM      3  C   UNL     1       2.387   1.432  -0.017  0.00  0.00    +0.037 A 
ATOM      4  C   UNL     1       2.399   0.040  -0.004  0.00  0.00    -0.017 A 
ATOM      5  C   UNL     1       1.229  -0.676   0.004  0.00  0.00    +0.017 A 
ATOM      6  C   UNL     1       0.002  -0.004   0.001  0.00  0.00    +0.026 A 
ATOM      7  C   UNL     1       3.854  -0.371  -0.003  0.00  0.00    +0.133 C 
ATOM      8  C   UNL     1       4.606   0.943  -0.016  0.00  0.00    +0.222 C 
ATOM      9  O   UNL     1       5.810   1.083  -0.020  0.00  0.00    -0.275 OA
ATOM     10  N   UNL     1       3.688   1.924  -0.024  0.00  0.00    -0.285 N 
ATOM     11  H   UNL     1       3.908   2.869  -0.033  0.00  0.00    +0.155 HD
ENDROOT
BRANCH   6  12
ATOM     12  C   UNL     1      -1.263  -0.765   0.010  0.00  0.00    +0.228 C 
ATOM     13  O   UNL     1      -2.326  -0.179   0.116  0.00  0.00    -0.283 OA
BRANCH  12  14
ATOM     14  C   UNL     1      -1.241  -2.224  -0.109  0.00  0.00    +0.176 A 
ATOM     15  C   UNL     1      -2.341  -3.047  -0.218  0.00  0.00    +0.054 A 
ATOM     16  C   UNL     1      -1.853  -4.358  -0.306  0.00  0.00    +0.057 A 
ATOM     17  C   UNL     1      -0.502  -4.286  -0.249  0.00  0.00    +0.171 A 
ATOM     18  O   UNL     1      -0.138  -3.002  -0.136  0.00  0.00    -0.445 OA
ATOM     19 BR   UNL     1       0.679  -5.761  -0.325  0.00  0.00    -0.008 Br
ENDBRANCH  12  14
ENDBRANCH   6  12
TORSDOF 2
