REMARK  Name = ZINC35552451
REMARK  1 active torsions:
REMARK  status: ('A' for Active; 'I' for Inactive)
REMARK    1  A    between atoms: C_19  and  C_21
REMARK                            x       y       z     vdW  Elec       q    Type
REMARK                         _______ _______ _______ _____ _____    ______ ____
ROOT
ATOM      1  C   UNL     1      -0.138   2.799  -1.614  0.00  0.00    +0.020 A 
ATOM      2  C   UNL     1       1.236   2.990  -1.348  0.00  0.00    +0.025 A 
ATOM      3  C   UNL     1       1.764   1.788  -1.093  0.00  0.00    +0.047 A 
ATOM      4  N   UNL     1       0.759   0.848  -1.171  0.00  0.00    -0.316 N 
ATOM      5  C   UNL     1      -0.394   1.475  -1.504  0.00  0.00    +0.092 A 
ATOM      6  C   UNL     1       1.006  -0.508  -0.905  0.00  0.00    +0.067 A 
ATOM      7  C   UNL     1       0.064  -1.482  -1.172  0.00  0.00    +0.031 A 
ATOM      8  C   UNL     1       0.357  -2.810  -0.914  0.00  0.00    +0.040 A 
ATOM      9  C   UNL     1       1.591  -3.161  -0.393  0.00  0.00    +0.125 A 
ATOM     10  C   UNL     1       2.535  -2.188  -0.116  0.00  0.00    +0.063 A 
ATOM     11  C   UNL     1       2.246  -0.854  -0.360  0.00  0.00    +0.055 A 
ATOM     12  N   UNL     1       3.172   0.143  -0.031  0.00  0.00    -0.331 N 
ATOM     13  C   UNL     1       3.189   1.413  -0.771  0.00  0.00    +0.075 C 
ATOM     14  C   UNL     1       3.827   2.500   0.092  0.00  0.00    +0.051 C 
ATOM     15  C   UNL     1       5.258   2.088   0.452  0.00  0.00    +0.110 C 
ATOM     16  N   UNL     1       5.989   1.790  -0.787  0.00  0.00    -0.301 N 
ATOM     17  C   UNL     1       5.417   0.818  -1.729  0.00  0.00    +0.110 C 
ATOM     18  C   UNL     1       3.984   1.242  -2.065  0.00  0.00    +0.051 C 
ATOM     19  C   UNL     1       7.162   2.397  -1.055  0.00  0.00    +0.219 C 
ATOM     20  O   UNL     1       7.802   2.075  -2.033  0.00  0.00    -0.275 OA
ATOM     21  F   UNL     1       1.874  -4.460  -0.153  0.00  0.00    -0.205 F 
ATOM     22  H   UNL     1       3.805  -0.004   0.690  0.00  0.00    +0.147 HD
ENDROOT
BRANCH  19  23
ATOM     23  C   UNL     1       7.679   3.476  -0.138  0.00  0.00    +0.075 C 
ATOM     24  C   UNL     1       8.532   2.859   0.999  0.00  0.00    +0.013 C 
ATOM     25  C   UNL     1       9.434   4.042   1.430  0.00  0.00    +0.001 C 
ATOM     26  C   UNL     1       9.777   4.758   0.107  0.00  0.00    +0.001 C 
ATOM     27  C   UNL     1       8.661   4.398  -0.890  0.00  0.00    +0.013 C 
ENDBRANCH  19  23
TORSDOF 1
