REMARK  Name = ZINC00983979
REMARK  3 active torsions:
REMARK  status: ('A' for Active; 'I' for Inactive)
REMARK    1  A    between atoms: C_4  and  C_7
REMARK    2  A    between atoms: C_8  and  C_22
REMARK    3  A    between atoms: C_13  and  C_14
REMARK                            x       y       z     vdW  Elec       q    Type
REMARK                         _______ _______ _______ _____ _____    ______ ____
ROOT
ATOM      1  C   UNL     1      -1.805   7.890  -0.050  0.00  0.00    +0.098 A 
ATOM      2  C   UNL     1      -0.764   7.420  -0.820  0.00  0.00    +0.085 A 
ATOM      3  N   UNL     1      -0.464   6.127  -0.359  0.00  0.00    -0.252 N 
ATOM      4  C   UNL     1       0.415   5.162  -0.663  0.00  0.00    +0.272 A 
ATOM      5  O   UNL     1       1.222   5.323  -1.560  0.00  0.00    -0.266 OA
ATOM      6  C   UNL     1       0.388   3.946   0.073  0.00  0.00    +0.084 A 
ATOM      7  C   UNL     1       1.172   2.837  -0.060  0.00  0.00    +0.066 C 
ATOM      8  S   UNL     1      -0.942   4.263   1.223  0.00  0.00    -0.046 S 
ATOM      9  C   UNL     1      -1.350   5.903   0.665  0.00  0.00    +0.182 A 
ATOM     10  N   UNL     1      -2.127   6.931   0.840  0.00  0.00    -0.221 NA
ENDROOT
BRANCH   1  14
ATOM     11  C   UNL     1      -3.670  11.692  -0.415  0.00  0.00    +0.000 A 
ATOM     12  C   UNL     1      -4.446  10.552  -0.307  0.00  0.00    +0.001 A 
ATOM     13  C   UNL     1      -3.846   9.315  -0.189  0.00  0.00    +0.010 A 
ATOM     14  C   UNL     1      -2.455   9.215  -0.178  0.00  0.00    +0.002 A 
ATOM     15  C   UNL     1      -1.678  10.369  -0.281  0.00  0.00    +0.010 A 
ATOM     16  C   UNL     1      -2.289  11.600  -0.404  0.00  0.00    +0.001 A 
ENDBRANCH   1  14
BRANCH   2  17
ATOM     17  C   UNL     1      -0.092   8.138  -1.919  0.00  0.00    +0.001 A 
ATOM     18  C   UNL     1      -0.847   8.764  -2.914  0.00  0.00    +0.010 A 
ATOM     19  C   UNL     1      -0.212   9.438  -3.936  0.00  0.00    +0.001 A 
ATOM     20  C   UNL     1       1.171   9.486  -3.983  0.00  0.00    +0.000 A 
ATOM     21  C   UNL     1       1.925   8.864  -3.004  0.00  0.00    +0.001 A 
ATOM     22  C   UNL     1       1.304   8.191  -1.973  0.00  0.00    +0.010 A 
ENDBRANCH   2  17
BRANCH   7  23
ATOM     23  C   UNL     1       0.975   1.727   0.793  0.00  0.00    +0.129 A 
ATOM     24  C   UNL     1       1.692   0.546   0.770  0.00  0.00    +0.049 A 
ATOM     25  C   UNL     1       1.158  -0.264   1.783  0.00  0.00    +0.042 A 
ATOM     26  C   UNL     1       0.162   0.435   2.371  0.00  0.00    +0.195 A 
ATOM     27  O   UNL     1       0.054   1.631   1.774  0.00  0.00    -0.463 OA
ENDBRANCH   7  23
TORSDOF 3
