REMARK  Name = ZINC37131252
REMARK  6 active torsions:
REMARK  status: ('A' for Active; 'I' for Inactive)
REMARK    1  A    between atoms: C_1  and  C_2
REMARK    2  A    between atoms: C_2  and  C_4
REMARK    3  A    between atoms: C_2  and  N_8
REMARK    4  A    between atoms: C_4  and  C_7
REMARK    5  A    between atoms: N_8  and  C_9
REMARK    6  A    between atoms: C_12  and  N_16
REMARK                            x       y       z     vdW  Elec       q    Type
REMARK                         _______ _______ _______ _____ _____    ______ ____
ROOT
ATOM      1  C   UNL     1      -0.019  -0.613  -2.401  0.00  0.00    +0.042 A 
ATOM      2  C   UNL     1      -1.370  -0.296  -2.452  0.00  0.00    +0.026 A 
ATOM      3  C   UNL     1      -2.066  -0.431  -3.637  0.00  0.00    +0.034 A 
ATOM      4  C   UNL     1      -1.419  -0.883  -4.773  0.00  0.00    +0.127 A 
ATOM      5  C   UNL     1      -0.073  -1.200  -4.727  0.00  0.00    +0.049 A 
ATOM      6  C   UNL     1       0.630  -1.061  -3.545  0.00  0.00    +0.041 A 
ATOM      7 BR   UNL     1       2.471  -1.487  -3.484  0.00  0.00    -0.048 Br
ENDROOT
BRANCH   4   8
ATOM      8  N   UNL     1      -2.168  -1.028  -6.041  0.00  0.00    +0.056 N 
ATOM      9  O   UNL     1      -3.344  -0.751  -6.084  0.00  0.00    -0.126 OA
ATOM     10  O   UNL     1      -1.603  -1.422  -7.035  0.00  0.00    -0.126 OA
ENDBRANCH   4   8
BRANCH   1  11
ATOM     11  N   UNL     1       0.688  -0.476  -1.203  0.00  0.00    -0.340 N 
ATOM     12  H   UNL     1       1.632  -0.695  -1.170  0.00  0.00    +0.146 HD
BRANCH  11  14
ATOM     13  C   UNL     1      -0.019   1.526   0.010  0.00  0.00    +0.028 C 
ATOM     14  C   UNL     1       0.002  -0.004   0.002  0.00  0.00    +0.073 C 
BRANCH  14  15
ATOM     15  C   UNL     1       0.742  -0.511   1.242  0.00  0.00    -0.014 C 
ATOM     16  C   UNL     1       0.038  -1.559   2.105  0.00  0.00    +0.009 C 
ATOM     17  C   UNL     1       0.178  -0.122   2.610  0.00  0.00    +0.009 C 
ATOM     18  C   UNL     1       2.263  -0.611   1.107  0.00  0.00    +0.013 C 
ENDBRANCH  14  15
ENDBRANCH  11  14
ENDBRANCH   1  11
TORSDOF 4
