REMARK  Name = ZINC32109240
REMARK  6 active torsions:
REMARK  status: ('A' for Active; 'I' for Inactive)
REMARK    1  A    between atoms: C_9  and  C_12
REMARK    2  A    between atoms: N_14  and  N_15
REMARK    3  A    between atoms: C_16  and  C_17
REMARK    4  A    between atoms: C_20  and  O_23
REMARK    5  A    between atoms: O_23  and  C_24
REMARK    6  A    between atoms: C_24  and  C_26
REMARK                            x       y       z     vdW  Elec       q    Type
REMARK                         _______ _______ _______ _____ _____    ______ ____
ROOT
ATOM      1  N   UNL     1       2.394   5.266  -0.048  0.00  0.00    -0.188 NA
ATOM      2  C   UNL     1       2.395   3.968  -0.007  0.00  0.00    +0.138 C 
ENDROOT
BRANCH   2   3
ATOM      3  C   UNL     1       1.212   3.216  -0.463  0.00  0.00    -0.005 A 
ATOM      4  C   UNL     1       0.223   3.854  -1.216  0.00  0.00    +0.013 A 
ATOM      5  C   UNL     1      -0.881   3.147  -1.639  0.00  0.00    +0.047 A 
ATOM      6  C   UNL     1      -1.014   1.803  -1.314  0.00  0.00    +0.132 A 
ATOM      7  C   UNL     1      -0.031   1.163  -0.571  0.00  0.00    +0.047 A 
ATOM      8  C   UNL     1       1.077   1.862  -0.143  0.00  0.00    +0.013 A 
BRANCH   6   9
ATOM      9  O   UNL     1      -2.108   1.111  -1.729  0.00  0.00    -0.422 OA
BRANCH   9  10
ATOM     10  C   UNL     1      -2.954   0.675  -0.775  0.00  0.00    +0.344 C 
ATOM     11  O   UNL     1      -2.773   0.986   0.386  0.00  0.00    -0.245 OA
BRANCH  10  12
ATOM     12  C   UNL     1      -4.100  -0.180  -1.140  0.00  0.00    +0.059 A 
ATOM     13  C   UNL     1      -4.314  -0.535  -2.474  0.00  0.00    +0.016 A 
ATOM     14  C   UNL     1      -5.383  -1.339  -2.808  0.00  0.00    +0.021 A 
ATOM     15  C   UNL     1      -6.251  -1.785  -1.825  0.00  0.00    +0.041 A 
ATOM     16  C   UNL     1      -6.048  -1.432  -0.501  0.00  0.00    +0.021 A 
ATOM     17  C   UNL     1      -4.979  -0.634  -0.153  0.00  0.00    +0.016 A 
ATOM     18 CL   UNL     1      -7.600  -2.791  -2.254  0.00  0.00    -0.084 Cl
ENDBRANCH  10  12
ENDBRANCH   9  10
ENDBRANCH   6   9
ENDBRANCH   2   3
BRANCH   1  21
ATOM     19  C   UNL     1       1.170   7.304  -0.168  0.00  0.00    +0.276 C 
ATOM     20  O   UNL     1       2.208   7.899  -0.370  0.00  0.00    -0.270 OA
ATOM     21  N   UNL     1       1.183   5.967   0.006  0.00  0.00    -0.204 N 
ATOM     22  H   UNL     1       0.242   5.428   0.189  0.00  0.00    +0.177 HD
BRANCH  19  31
ATOM     23  C   UNL     1      -2.942  12.101   0.431  0.00  0.00    +0.004 A 
ATOM     24  C   UNL     1      -1.939  12.451  -0.453  0.00  0.00    +0.004 A 
ATOM     25  C   UNL     1      -0.926  11.556  -0.742  0.00  0.00    +0.049 A 
ATOM     26  C   UNL     1      -0.914  10.304  -0.145  0.00  0.00    +0.163 A 
ATOM     27  C   UNL     1      -1.925   9.952   0.742  0.00  0.00    +0.162 A 
ATOM     28  C   UNL     1      -2.937  10.855   1.028  0.00  0.00    +0.049 A 
ATOM     29  O   UNL     1      -1.936   8.726   1.333  0.00  0.00    -0.484 OA
ATOM     30  C   UNL     1      -0.709   7.989   1.311  0.00  0.00    +0.283 C 
ATOM     31  C   UNL     1      -0.133   8.059  -0.110  0.00  0.00    +0.297 C 
ATOM     32  O   UNL     1       0.092   9.434  -0.436  0.00  0.00    -0.472 OA
ENDBRANCH  19  31
ENDBRANCH   1  21
TORSDOF 6
