REMARK  Name = ZINC33043052
REMARK  4 active torsions:
REMARK  status: ('A' for Active; 'I' for Inactive)
REMARK    1  A    between atoms: C_1  and  C_2
REMARK    2  A    between atoms: C_2  and  C_3
REMARK    3  A    between atoms: C_3  and  N_4
REMARK    4  A    between atoms: C_19  and  C_21
REMARK                            x       y       z     vdW  Elec       q    Type
REMARK                         _______ _______ _______ _____ _____    ______ ____
ROOT
ATOM      1  N   UNL     1      -3.808   2.456   1.212  0.00  0.00    -0.299 N 
ATOM      2  C   UNL     1      -2.749   3.022   1.825  0.00  0.00    +0.303 C 
ATOM      3  O   UNL     1      -2.901   3.618   2.874  0.00  0.00    -0.253 OA
ATOM      4  N   UNL     1      -1.522   2.926   1.276  0.00  0.00    -0.273 N 
ATOM      5  C   UNL     1      -1.297   2.212   0.006  0.00  0.00    +0.148 C 
ATOM      6  C   UNL     1      -0.017   1.406   0.010  0.00  0.00    +0.005 A 
ATOM      7  C   UNL     1       0.002  -0.004   0.002  0.00  0.00    -0.030 A 
ATOM      8  C   UNL     1       1.213  -0.619  -0.029  0.00  0.00    -0.005 A 
ATOM      9  S   UNL     1       2.372   0.726  -0.041  0.00  0.00    -0.075 S 
ATOM     10  C   UNL     1       1.188   2.036   0.002  0.00  0.00    +0.090 A 
ATOM     11  N   UNL     1       1.346   3.416   0.040  0.00  0.00    -0.312 N 
ATOM     12  C   UNL     1       2.136   4.248  -0.675  0.00  0.00    +0.092 A 
ATOM     13  C   UNL     1       1.859   5.517  -0.296  0.00  0.00    +0.020 A 
ATOM     14  C   UNL     1       0.869   5.455   0.708  0.00  0.00    +0.025 A 
ATOM     15  C   UNL     1       0.587   4.160   0.914  0.00  0.00    +0.044 A 
ATOM     16  C   UNL     1      -0.333   3.535   1.920  0.00  0.00    +0.122 C 
ATOM     17  C   UNL     1       0.428   2.449   2.684  0.00  0.00    +0.035 C 
ATOM     18  C   UNL     1       1.492  -2.087  -0.048  0.00  0.00    +0.043 C 
ATOM     19  C   UNL     1       0.205  -2.827   0.347  0.00  0.00    +0.005 C 
ATOM     20  C   UNL     1      -0.962  -2.247  -0.456  0.00  0.00    +0.005 C 
ATOM     21  C   UNL     1      -1.280  -0.832   0.028  0.00  0.00    +0.036 C 
ATOM     22  H   UNL     1      -3.670   1.917   0.263  0.00  0.00    +0.150 HD
ENDROOT
BRANCH   1  23
ATOM     23  C   UNL     1      -5.141   2.560   1.808  0.00  0.00    +0.105 C 
BRANCH  23  25
ATOM     24  C   UNL     1      -7.549   1.946   1.542  0.00  0.00    +0.005 C 
ATOM     25  C   UNL     1      -6.156   1.838   0.919  0.00  0.00    +0.015 C 
ENDBRANCH  23  25
ENDBRANCH   1  23
TORSDOF 2
