REMARK  Name = ZINC09223412
REMARK  9 active torsions:
REMARK  status: ('A' for Active; 'I' for Inactive)
REMARK    1  A    between atoms: C_1  and  C_2
REMARK    2  A    between atoms: C_7  and  O_34
REMARK    3  A    between atoms: C_8  and  C_12
REMARK    4  A    between atoms: C_13  and  C_14
REMARK    5  A    between atoms: N_19  and  S_22
REMARK    6  A    between atoms: S_22  and  C_25
REMARK    7  A    between atoms: C_28  and  C_31
REMARK    8  A    between atoms: C_31  and  C_33
REMARK    9  A    between atoms: O_34  and  C_35
REMARK                            x       y       z     vdW  Elec       q    Type
REMARK                         _______ _______ _______ _____ _____    ______ ____
ROOT
ATOM      1  C   UNL     1      -0.490  -4.983  -0.951  0.00  0.00    +0.240 C 
ATOM      2  O   UNL     1      -1.128  -4.443  -1.836  0.00  0.00    -0.271 OA
ATOM      3  N   UNL     1      -0.351  -6.323  -0.941  0.00  0.00    -0.295 N 
ATOM      4  C   UNL     1       0.323  -6.997   0.178  0.00  0.00    +0.125 C 
ATOM      5  C   UNL     1      -0.630  -8.061   0.748  0.00  0.00    +0.128 C 
ATOM      6  N   UNL     1      -1.143  -8.874  -0.363  0.00  0.00    -0.174 NA
ATOM      7  C   UNL     1      -1.812  -8.200  -1.485  0.00  0.00    +0.128 C 
ATOM      8  C   UNL     1      -0.864  -7.136  -2.053  0.00  0.00    +0.125 C 
ENDROOT
BRANCH   6   9
ATOM      9  S   UNL     1      -0.972 -10.521  -0.352  0.00  0.00    +0.061 S 
ATOM     10  O   UNL     1      -0.831 -10.906   1.009  0.00  0.00    -0.153 OA
ATOM     11  O   UNL     1      -1.995 -11.042  -1.189  0.00  0.00    -0.153 OA
BRANCH   9  12
ATOM     12  C   UNL     1       0.560 -10.891  -1.140  0.00  0.00    +0.106 A 
ATOM     13  C   UNL     1       0.597 -11.107  -2.506  0.00  0.00    +0.029 A 
ATOM     14  C   UNL     1       1.792 -11.392  -3.131  0.00  0.00    +0.013 A 
ATOM     15  C   UNL     1       2.969 -11.473  -2.379  0.00  0.00    +0.017 A 
ATOM     16  C   UNL     1       2.922 -11.258  -0.998  0.00  0.00    +0.013 A 
ATOM     17  C   UNL     1       1.720 -10.970  -0.388  0.00  0.00    +0.029 A 
BRANCH  15  18
ATOM     18  C   UNL     1       4.248 -11.781  -3.037  0.00  0.00    +0.160 C 
ATOM     19  O   UNL     1       5.266 -11.850  -2.382  0.00  0.00    -0.292 OA
ATOM     20  C   UNL     1       4.293 -12.011  -4.526  0.00  0.00    +0.091 C 
ENDBRANCH  15  18
ENDBRANCH   9  12
ENDBRANCH   6   9
BRANCH   1  22
ATOM     21  C   UNL     1       0.070  -2.829   0.040  0.00  0.00    +0.017 C 
ATOM     22  C   UNL     1       0.124  -4.176   0.103  0.00  0.00    +0.068 C 
BRANCH  21  29
ATOM     23  C   UNL     1       3.418  -1.214   6.329  0.00  0.00    +0.052 C 
ATOM     24  C   UNL     1       3.358  -1.184   4.800  0.00  0.00    +0.175 C 
ATOM     25  C   UNL     1       2.578   0.058   4.308  0.00  0.00    +0.083 C 
ATOM     26  C   UNL     1       1.852  -0.490   3.093  0.00  0.00    +0.001 A 
ATOM     27  C   UNL     1       1.219   0.135   2.040  0.00  0.00    +0.053 A 
ATOM     28  C   UNL     1       0.633  -0.617   1.034  0.00  0.00    +0.128 A 
ATOM     29  C   UNL     1       0.688  -2.018   1.099  0.00  0.00    +0.020 A 
ATOM     30  C   UNL     1       1.335  -2.641   2.169  0.00  0.00    +0.057 A 
ATOM     31  C   UNL     1       1.914  -1.878   3.174  0.00  0.00    +0.125 A 
ATOM     32  O   UNL     1       2.570  -2.276   4.300  0.00  0.00    -0.488 OA
BRANCH  28  33
ATOM     33  O   UNL     1       0.005  -0.004  -0.002  0.00  0.00    -0.495 OA
ATOM     34  C   UNL     1      -0.014   1.425   0.006  0.00  0.00    +0.277 C 
ENDBRANCH  28  33
ENDBRANCH  21  29
ENDBRANCH   1  22
TORSDOF 6
