REMARK  Name = ZINC12467606
REMARK  6 active torsions:
REMARK  status: ('A' for Active; 'I' for Inactive)
REMARK    1  A    between atoms: C_1  and  C_2
REMARK    2  A    between atoms: C_9  and  C_13
REMARK    3  A    between atoms: C_13  and  C_14
REMARK    4  A    between atoms: C_14  and  C_15
REMARK    5  A    between atoms: C_16  and  C_21
REMARK    6  A    between atoms: C_18  and  C_20
REMARK                            x       y       z     vdW  Elec       q    Type
REMARK                         _______ _______ _______ _____ _____    ______ ____
ROOT
ATOM      1  C   UNL     1      -0.018   1.503   0.010  0.00  0.00    +0.044 C 
ATOM      2  C   UNL     1       0.002  -0.004   0.002  0.00  0.00    -0.048 A 
ATOM      3  C   UNL     1       0.006  -0.684  -1.208  0.00  0.00    +0.007 A 
ATOM      4  C   UNL     1       0.016  -2.064  -1.235  0.00  0.00    +0.049 A 
ATOM      5  C   UNL     1       0.025  -2.776  -0.044  0.00  0.00    +0.157 A 
ATOM      6  C   UNL     1       0.037  -2.088   1.183  0.00  0.00    +0.107 A 
ATOM      7  C   UNL     1       0.023  -0.686   1.184  0.00  0.00    +0.034 A 
ATOM      8  N   UNL     1       0.083  -2.768   2.348  0.00  0.00    -0.241 NA
ATOM      9  C   UNL     1       0.307  -4.056   2.344  0.00  0.00    +0.134 A 
ATOM     10  C   UNL     1       0.540  -4.723   1.050  0.00  0.00    +0.359 A 
ATOM     11  O   UNL     1       1.176  -5.757   0.975  0.00  0.00    -0.243 OA
ATOM     12  O   UNL     1       0.016  -4.133  -0.052  0.00  0.00    -0.419 OA
ENDROOT
BRANCH   9  13
ATOM     13  C   UNL     1       0.328  -4.839   3.631  0.00  0.00    +0.143 C 
BRANCH  13  14
ATOM     14  C   UNL     1      -0.814  -5.823   3.639  0.00  0.00    +0.177 C 
ATOM     15  O   UNL     1      -1.571  -5.882   2.691  0.00  0.00    -0.291 OA
BRANCH  14  16
ATOM     16  C   UNL     1      -1.004  -6.677   4.749  0.00  0.00    +0.077 A 
ATOM     17  C   UNL     1      -1.974  -7.653   4.967  0.00  0.00    +0.056 A 
ATOM     18  N   UNL     1      -1.900  -8.296   6.104  0.00  0.00    -0.249 NA
ATOM     19  C   UNL     1      -0.964  -8.034   6.988  0.00  0.00    +0.076 A 
ATOM     20  S   UNL     1      -0.063  -6.812   6.261  0.00  0.00    -0.069 S 
ATOM     21  C   UNL     1      -0.745  -8.679   8.332  0.00  0.00    +0.073 C 
ATOM     22  C   UNL     1      -3.046  -7.950   3.951  0.00  0.00    +0.067 C 
ENDBRANCH  14  16
ENDBRANCH  13  14
ENDBRANCH   9  13
TORSDOF 3
