REMARK  Name = ZINC66976173
REMARK  6 active torsions:
REMARK  status: ('A' for Active; 'I' for Inactive)
REMARK    1  A    between atoms: C_1  and  C_2
REMARK    2  A    between atoms: C_2  and  N_3
REMARK    3  A    between atoms: C_6  and  N_9
REMARK    4  A    between atoms: C_15  and  N_18
REMARK    5  A    between atoms: C_19  and  C_21
REMARK    6  A    between atoms: C_21  and  C_22
REMARK                            x       y       z     vdW  Elec       q    Type
REMARK                         _______ _______ _______ _____ _____    ______ ____
ROOT
ATOM      1  N   UNL     1       1.739  -2.477   4.765  0.00  0.00    -0.297 N 
ATOM      2  C   UNL     1       1.632  -3.730   5.248  0.00  0.00    +0.302 C 
ATOM      3  O   UNL     1       0.801  -4.490   4.789  0.00  0.00    -0.253 OA
ATOM      4  N   UNL     1       2.446  -4.142   6.240  0.00  0.00    -0.286 N 
ATOM      5  C   UNL     1       3.374  -3.203   6.885  0.00  0.00    +0.111 C 
ATOM      6  C   UNL     1       4.788  -3.791   6.829  0.00  0.00    +0.041 C 
ATOM      7  C   UNL     1       4.779  -5.190   7.448  0.00  0.00    +0.076 C 
ATOM      8  C   UNL     1       3.845  -6.099   6.645  0.00  0.00    +0.041 C 
ATOM      9  C   UNL     1       2.417  -5.536   6.703  0.00  0.00    +0.111 C 
ATOM     10  H   UNL     1       2.350  -1.848   5.179  0.00  0.00    +0.151 HD
ENDROOT
BRANCH   1  14
ATOM     11  N   UNL     1       0.717  -0.493   1.189  0.00  0.00    +0.380 N 
ATOM     12  C   UNL     1      -0.033  -0.112   2.393  0.00  0.00    -0.077 C 
ATOM     13  C   UNL     1       0.742  -0.545   3.639  0.00  0.00    +0.004 C 
ATOM     14  C   UNL     1       0.932  -2.064   3.613  0.00  0.00    +0.071 C 
ATOM     15  C   UNL     1       1.649  -2.458   2.319  0.00  0.00    +0.004 C 
ATOM     16  C   UNL     1       0.841  -1.954   1.121  0.00  0.00    -0.077 C 
ATOM     17  H   UNL     1       1.637  -0.080   1.224  0.00  0.00    -0.082 HD
BRANCH  11  19
ATOM     18  C   UNL     1      -0.013   1.523   0.006  0.00  0.00    -0.017 C 
ATOM     19  C   UNL     1       0.008  -0.007  -0.002  0.00  0.00    -0.082 C 
ENDBRANCH  11  19
ENDBRANCH   1  14
BRANCH   7  20
ATOM     20  N   UNL     1       6.135  -5.743   7.426  0.00  0.00    -0.312 N 
ATOM     21  C   UNL     1       6.494  -6.686   8.320  0.00  0.00    +0.214 C 
ATOM     22  O   UNL     1       5.693  -7.077   9.143  0.00  0.00    -0.276 OA
ATOM     23  H   UNL     1       6.776  -5.430   6.769  0.00  0.00    +0.149 HD
BRANCH  21  24
ATOM     24  C   UNL     1       7.889  -7.254   8.298  0.00  0.00    +0.099 C 
BRANCH  24  25
ATOM     25  C   UNL     1       8.033  -8.298   9.407  0.00  0.00    -0.002 C 
ATOM     26  C   UNL     1       7.895  -7.616  10.770  0.00  0.00    +0.004 C 
ATOM     27  C   UNL     1       8.039  -8.659  11.879  0.00  0.00    +0.000 C 
ATOM     28  C   UNL     1       9.413  -9.325  11.779  0.00  0.00    +0.000 C 
ATOM     29  C   UNL     1       9.550 -10.007  10.416  0.00  0.00    +0.000 C 
ATOM     30  C   UNL     1       9.407  -8.963   9.306  0.00  0.00    +0.004 C 
ENDBRANCH  24  25
ENDBRANCH  21  24
ENDBRANCH   7  20
TORSDOF 5
