REMARK  Name = ZINC00225492
REMARK  4 active torsions:
REMARK  status: ('A' for Active; 'I' for Inactive)
REMARK    1  A    between atoms: C_1  and  C_2
REMARK    2  A    between atoms: C_9  and  C_11
REMARK    3  A    between atoms: N_13  and  N_14
REMARK    4  A    between atoms: C_15  and  C_16
REMARK                            x       y       z     vdW  Elec       q    Type
REMARK                         _______ _______ _______ _____ _____    ______ ____
ROOT
ATOM      1  C   UNL     1       0.806   4.563  -2.439  0.00  0.00    +0.236 C 
ATOM      2  O   UNL     1       0.810   5.756  -2.219  0.00  0.00    -0.274 OA
ATOM      3  N   UNL     1       1.059   4.106  -3.682  0.00  0.00    -0.207 N 
ATOM      4  H   UNL     1       1.056   3.152  -3.858  0.00  0.00    +0.177 HD
ENDROOT
BRANCH   1  12
ATOM      5  C   UNL     1      -1.907   3.646  -2.197  0.00  0.00    +0.012 C 
ATOM      6  C   UNL     1      -0.910   3.086  -1.180  0.00  0.00    -0.017 C 
ATOM      7  C   UNL     1      -1.165   1.644  -0.770  0.00  0.00    +0.008 C 
ATOM      8  C   UNL     1      -0.340   1.284   0.465  0.00  0.00    +0.001 C 
ATOM      9  C   UNL     1      -0.644   2.297   1.574  0.00  0.00    +0.000 C 
ATOM     10  C   UNL     1       0.067   3.613   1.222  0.00  0.00    +0.005 C 
ATOM     11  C   UNL     1      -0.365   4.080  -0.166  0.00  0.00    +0.008 C 
ATOM     12  C   UNL     1       0.519   3.591  -1.323  0.00  0.00    +0.086 C 
ENDBRANCH   1  12
BRANCH   3  13
ATOM     13  N   UNL     1       1.325   5.009  -4.719  0.00  0.00    -0.188 NA
ATOM     14  C   UNL     1       1.568   4.570  -5.916  0.00  0.00    +0.138 C 
BRANCH  14  15
ATOM     15  C   UNL     1       1.849   5.521  -7.008  0.00  0.00    -0.005 A 
ATOM     16  C   UNL     1       1.849   6.895  -6.758  0.00  0.00    +0.010 A 
ATOM     17  C   UNL     1       2.118   7.778  -7.783  0.00  0.00    +0.016 A 
ATOM     18  C   UNL     1       2.376   7.306  -9.059  0.00  0.00    +0.018 A 
ATOM     19  C   UNL     1       2.372   5.945  -9.313  0.00  0.00    +0.016 A 
ATOM     20  C   UNL     1       2.111   5.051  -8.297  0.00  0.00    +0.010 A 
ATOM     21 BR   UNL     1       2.736   8.525 -10.459  0.00  0.00    -0.050 Br
ENDBRANCH  14  15
ENDBRANCH   3  13
TORSDOF 3
