REMARK  Name = ZINC65638870
REMARK  10 active torsions:
REMARK  status: ('A' for Active; 'I' for Inactive)
REMARK    1  A    between atoms: C_1  and  C_2
REMARK    2  A    between atoms: C_2  and  C_3
REMARK    3  A    between atoms: C_2  and  N_4
REMARK    4  A    between atoms: C_7  and  C_9
REMARK    5  A    between atoms: C_9  and  N_10
REMARK    6  A    between atoms: C_11  and  C_13
REMARK    7  A    between atoms: N_15  and  C_16
REMARK    8  A    between atoms: C_21  and  N_22
REMARK    9  A    between atoms: N_22  and  C_23
REMARK   10  A    between atoms: N_22  and  C_24
REMARK                            x       y       z     vdW  Elec       q    Type
REMARK                         _______ _______ _______ _____ _____    ______ ____
ROOT
ATOM      1  C   UNL     1       2.543  -4.821   6.476  0.00  0.00    +0.303 C 
ATOM      2  O   UNL     1       1.526  -4.567   7.089  0.00  0.00    -0.265 OA
ATOM      3  N   UNL     1       3.532  -5.517   7.069  0.00  0.00    -0.276 N 
ATOM      4  H   UNL     1       4.316  -5.776   6.560  0.00  0.00    +0.155 HD
ENDROOT
BRANCH   3   5
ATOM      5  C   UNL     1       3.429  -5.867   8.419  0.00  0.00    +0.055 A 
ATOM      6  C   UNL     1       2.192  -6.179   8.965  0.00  0.00    +0.025 A 
ATOM      7  C   UNL     1       2.092  -6.524  10.299  0.00  0.00    +0.002 A 
ATOM      8  C   UNL     1       3.223  -6.559  11.095  0.00  0.00    +0.002 A 
ATOM      9  C   UNL     1       4.459  -6.250  10.561  0.00  0.00    +0.025 A 
ATOM     10  C   UNL     1       4.570  -5.909   9.221  0.00  0.00    +0.055 A 
BRANCH  10  11
ATOM     11  N   UNL     1       5.821  -5.602   8.677  0.00  0.00    -0.302 N 
ATOM     12  C   UNL     1       6.644  -6.662   8.089  0.00  0.00    +0.135 C 
BRANCH  11  13
ATOM     13  C   UNL     1       6.286  -4.285   8.693  0.00  0.00    +0.034 A 
ATOM     14  C   UNL     1       5.509  -3.279   9.256  0.00  0.00    +0.023 A 
ATOM     15  C   UNL     1       5.972  -1.978   9.271  0.00  0.00    +0.002 A 
ATOM     16  C   UNL     1       7.207  -1.676   8.728  0.00  0.00    +0.000 A 
ATOM     17  C   UNL     1       7.983  -2.674   8.167  0.00  0.00    +0.002 A 
ATOM     18  C   UNL     1       7.529  -3.978   8.153  0.00  0.00    +0.023 A 
ENDBRANCH  11  13
ENDBRANCH  10  11
ENDBRANCH   3   5
BRANCH   1  20
ATOM     19  N   UNL     1       1.707  -3.664   4.470  0.00  0.00    -0.307 N 
ATOM     20  C   UNL     1       2.696  -4.361   5.063  0.00  0.00    +0.299 C 
ATOM     21  O   UNL     1       3.712  -4.615   4.450  0.00  0.00    -0.265 OA
ATOM     22  H   UNL     1       0.895  -3.462   4.960  0.00  0.00    +0.149 HD
BRANCH  19  23
ATOM     23  C   UNL     1       1.858  -3.213   3.084  0.00  0.00    +0.106 C 
BRANCH  23  27
ATOM     24  N   UNL     1       0.686  -0.537   1.166  0.00  0.00    +0.381 N 
ATOM     25  C   UNL     1      -0.042  -0.132   2.396  0.00  0.00    -0.078 C 
ATOM     26  C   UNL     1       0.472  -1.137   3.458  0.00  0.00    -0.015 C 
ATOM     27  C   UNL     1       0.602  -2.452   2.656  0.00  0.00    -0.012 C 
ATOM     28  C   UNL     1       0.717  -2.015   1.184  0.00  0.00    -0.074 C 
ATOM     29  H   UNL     1       1.625  -0.169   1.179  0.00  0.00    -0.081 HD
BRANCH  24  31
ATOM     30  C   UNL     1      -0.052   1.470  -0.028  0.00  0.00    -0.014 C 
ATOM     31  C   UNL     1      -0.029  -0.060  -0.025  0.00  0.00    -0.075 C 
ATOM     32  C   UNL     1       0.683  -0.561  -1.283  0.00  0.00    -0.014 C 
ENDBRANCH  24  31
ENDBRANCH  23  27
ENDBRANCH  19  23
ENDBRANCH   1  20
TORSDOF 7
