REMARK  Name = ZINC02201606
REMARK  8 active torsions:
REMARK  status: ('A' for Active; 'I' for Inactive)
REMARK    1  A    between atoms: C_1  and  C_2
REMARK    2  A    between atoms: C_2  and  C_3
REMARK    3  A    between atoms: C_3  and  C_5
REMARK    4  A    between atoms: C_3  and  N_6
REMARK    5  A    between atoms: C_10  and  C_11
REMARK    6  A    between atoms: C_12  and  S_23
REMARK    7  A    between atoms: C_15  and  C_22
REMARK    8  A    between atoms: S_23  and  C_24
REMARK                            x       y       z     vdW  Elec       q    Type
REMARK                         _______ _______ _______ _____ _____    ______ ____
ROOT
ATOM      1  C   UNL     1       4.752   0.050  -0.009  0.00  0.00    +0.073 A 
ATOM      2  C   UNL     1       4.715   1.435   0.279  0.00  0.00    +0.116 A 
ATOM      3  N   UNL     1       3.549   2.064   0.318  0.00  0.00    -0.222 NA
ATOM      4  C   UNL     1       2.402   1.423   0.092  0.00  0.00    +0.144 A 
ATOM      5  C   UNL     1       1.194   2.143   0.146  0.00  0.00    -0.008 A 
ATOM      6  C   UNL     1       0.016   1.497  -0.082  0.00  0.00    +0.008 A 
ATOM      7  C   UNL     1       0.024   0.125  -0.369  0.00  0.00    +0.019 A 
ATOM      8  C   UNL     1       1.193  -0.551  -0.418  0.00  0.00    +0.096 A 
ATOM      9  N   UNL     1       2.377   0.086  -0.191  0.00  0.00    -0.267 N 
ATOM     10  C   UNL     1       3.528  -0.619  -0.247  0.00  0.00    +0.267 A 
ATOM     11  O   UNL     1       3.512  -1.812  -0.498  0.00  0.00    -0.267 OA
ATOM     12  C   UNL     1       1.203   3.618   0.456  0.00  0.00    +0.047 C 
ENDROOT
BRANCH   1  17
ATOM     13  N   UNL     1       9.075  -0.141  -1.954  0.00  0.00    -0.252 N 
ATOM     14  C   UNL     1       8.303  -0.706  -1.042  0.00  0.00    +0.259 C 
ATOM     15  O   UNL     1       8.726  -1.602  -0.331  0.00  0.00    -0.269 OA
ATOM     16  C   UNL     1       6.965  -0.238  -0.911  0.00  0.00    +0.077 C 
ATOM     17  C   UNL     1       5.981  -0.648  -0.058  0.00  0.00    +0.036 C 
ATOM     18  S   UNL     1       6.922   1.028  -2.173  0.00  0.00    -0.061 S 
ATOM     19  C   UNL     1       8.606   0.852  -2.742  0.00  0.00    +0.121 C 
ATOM     20  S   UNL     1       9.418   1.718  -3.976  0.00  0.00    -0.027 S 
BRANCH  13  21
ATOM     21  C   UNL     1      10.457  -0.599  -2.115  0.00  0.00    +0.080 C 
ATOM     22  C   UNL     1      10.660  -1.121  -3.539  0.00  0.00    +0.028 C 
BRANCH  21  24
ATOM     23  C   UNL     1      11.300   1.007  -0.397  0.00  0.00    +0.006 C 
ATOM     24  C   UNL     1      11.414   0.567  -1.858  0.00  0.00    +0.019 C 
ENDBRANCH  21  24
ENDBRANCH  13  21
ENDBRANCH   1  17
BRANCH   2  25
ATOM     25  S   UNL     1       6.210   2.318   0.584  0.00  0.00    -0.069 S 
BRANCH  25  26
ATOM     26  C   UNL     1       5.575   3.957   0.714  0.00  0.00    +0.014 A 
ATOM     27  C   UNL     1       5.394   4.726  -0.429  0.00  0.00    +0.015 A 
ATOM     28  C   UNL     1       4.892   6.008  -0.324  0.00  0.00    +0.001 A 
ATOM     29  C   UNL     1       4.580   6.530   0.918  0.00  0.00    +0.000 A 
ATOM     30  C   UNL     1       4.765   5.770   2.058  0.00  0.00    +0.001 A 
ATOM     31  C   UNL     1       5.261   4.485   1.960  0.00  0.00    +0.015 A 
ENDBRANCH  25  26
ENDBRANCH   2  25
TORSDOF 5
