REMARK  Name = ZINC54334962
REMARK  2 active torsions:
REMARK  status: ('A' for Active; 'I' for Inactive)
REMARK    1  A    between atoms: C_1  and  C_2
REMARK    2  A    between atoms: N_8  and  C_11
REMARK                            x       y       z     vdW  Elec       q    Type
REMARK                         _______ _______ _______ _____ _____    ______ ____
ROOT
ATOM      1  C   UNL     1      -0.019   1.526   0.010  0.00  0.00    +0.019 C 
ATOM      2  C   UNL     1       0.002  -0.004   0.002  0.00  0.00    +0.090 C 
ATOM      3  C   UNL     1       0.721  -0.499  -1.255  0.00  0.00    +0.118 C 
ATOM      4  N   UNL     1       1.024  -1.924  -1.116  0.00  0.00    -0.298 N 
ATOM      5  C   UNL     1       1.365  -2.445   0.074  0.00  0.00    +0.313 C 
ATOM      6  O   UNL     1       1.712  -3.608   0.135  0.00  0.00    -0.252 OA
ATOM      7  N   UNL     1       1.333  -1.710   1.198  0.00  0.00    -0.193 N 
ATOM      8  C   UNL     1       0.734  -0.505   1.222  0.00  0.00    +0.232 C 
ATOM      9  O   UNL     1       0.783   0.178   2.222  0.00  0.00    -0.274 OA
ATOM     10  H   UNL     1       0.978  -2.501  -1.895  0.00  0.00    +0.150 HD
ENDROOT
BRANCH   7  11
ATOM     11  C   UNL     1       1.929  -2.206   2.363  0.00  0.00    +0.053 A 
ATOM     12  C   UNL     1       3.251  -1.932   2.637  0.00  0.00    +0.024 A 
ATOM     13  C   UNL     1       3.854  -2.420   3.792  0.00  0.00    +0.002 A 
ATOM     14  C   UNL     1       3.158  -3.180   4.682  0.00  0.00    +0.008 A 
ATOM     15  C   UNL     1       1.807  -3.482   4.439  0.00  0.00    -0.016 A 
ATOM     16  C   UNL     1       1.181  -2.986   3.269  0.00  0.00    +0.004 A 
ATOM     17  C   UNL     1      -0.170  -3.284   3.031  0.00  0.00    +0.010 A 
ATOM     18  C   UNL     1      -0.862  -4.040   3.927  0.00  0.00    +0.001 A 
ATOM     19  C   UNL     1      -0.248  -4.524   5.081  0.00  0.00    +0.001 A 
ATOM     20  C   UNL     1       1.063  -4.265   5.339  0.00  0.00    +0.008 A 
ENDBRANCH   7  11
TORSDOF 1
