REMARK  Name = ZINC01495771
REMARK  6 active torsions:
REMARK  status: ('A' for Active; 'I' for Inactive)
REMARK    1  A    between atoms: C_1  and  C_2
REMARK    2  A    between atoms: C_6  and  N_8
REMARK    3  A    between atoms: C_18  and  C_19
REMARK    4  A    between atoms: C_18  and  N_59
REMARK    5  A    between atoms: C_19  and  S_20
REMARK    6  A    between atoms: S_20  and  C_23
REMARK                            x       y       z     vdW  Elec       q    Type
REMARK                         _______ _______ _______ _____ _____    ______ ____
ROOT
ATOM      1  C   UNL     1      -2.695   0.641  -3.875  0.00  0.00    +0.088 C 
ATOM      2  C   UNL     1      -2.099   1.608  -2.884  0.00  0.00    +0.128 A 
ATOM      3  N   UNL     1      -2.345   2.895  -3.018  0.00  0.00    -0.237 NA
ATOM      4  C   UNL     1      -1.840   3.781  -2.166  0.00  0.00    +0.046 A 
ATOM      5  C   UNL     1      -1.056   3.339  -1.127  0.00  0.00    -0.003 A 
ATOM      6  C   UNL     1      -0.808   1.967  -1.016  0.00  0.00    +0.126 A 
ATOM      7  N   UNL     1      -1.347   1.142  -1.908  0.00  0.00    -0.217 NA
ATOM      8  C   UNL     1      -0.455   4.281  -0.122  0.00  0.00    -0.038 C 
ATOM      9  C   UNL     1      -1.833   6.014  -1.078  0.00  0.00    -0.072 C 
ATOM     10  C   UNL     1      -2.143   5.243  -2.362  0.00  0.00    +0.037 C 
ATOM     11  N   UNL     1      -0.465   5.656  -0.652  0.00  0.00    +0.384 N 
ATOM     12  H   UNL     1       0.163   5.707  -1.463  0.00  0.00    -0.081 HD
ENDROOT
BRANCH   6  13
ATOM     13  N   UNL     1      -0.018   1.476   0.010  0.00  0.00    -0.315 N 
ATOM     14  C   UNL     1       1.201   0.828  -0.523  0.00  0.00    +0.106 C 
ATOM     15  C   UNL     1       1.951   0.046   0.521  0.00  0.00    +0.019 C 
ATOM     16  C   UNL     1       1.482  -1.423   0.463  0.00  0.00    +0.002 C 
ATOM     17  C   UNL     1       0.196  -1.617   1.125  0.00  0.00    +0.002 C 
ATOM     18  C   UNL     1      -0.929  -0.792   0.467  0.00  0.00    +0.019 C 
ATOM     19  C   UNL     1      -0.811   0.633   0.933  0.00  0.00    +0.106 C 
ENDBRANCH   6  13
BRANCH  11  20
ATOM     20  C   UNL     1       0.009   6.601   0.384  0.00  0.00    -0.055 C 
BRANCH  20  21
ATOM     21  C   UNL     1      -0.839   6.470   1.651  0.00  0.00    +0.153 C 
BRANCH  21  22
ATOM     22  S   UNL     1      -0.238   7.636   2.903  0.00  0.00    -0.005 S 
ATOM     23  O   UNL     1       1.055   7.253   3.350  0.00  0.00    -0.169 OA
ATOM     24  O   UNL     1      -0.496   8.972   2.491  0.00  0.00    -0.169 OA
BRANCH  22  25
ATOM     25  C   UNL     1      -1.288   7.385   4.296  0.00  0.00    +0.088 A 
ATOM     26  C   UNL     1      -2.449   8.124   4.429  0.00  0.00    +0.027 A 
ATOM     27  C   UNL     1      -3.275   7.924   5.519  0.00  0.00    +0.002 A 
ATOM     28  C   UNL     1      -2.935   6.991   6.481  0.00  0.00    +0.000 A 
ATOM     29  C   UNL     1      -1.772   6.256   6.351  0.00  0.00    +0.002 A 
ATOM     30  C   UNL     1      -0.948   6.453   5.258  0.00  0.00    +0.027 A 
ENDBRANCH  22  25
ENDBRANCH  21  22
ENDBRANCH  20  21
ENDBRANCH  11  20
TORSDOF 5
