REMARK  Name = ZINC09056636
REMARK  8 active torsions:
REMARK  status: ('A' for Active; 'I' for Inactive)
REMARK    1  A    between atoms: C_1  and  C_2
REMARK    2  A    between atoms: C_5  and  C_8
REMARK    3  A    between atoms: C_9  and  C_33
REMARK    4  A    between atoms: C_17  and  C_19
REMARK    5  A    between atoms: C_19  and  N_57
REMARK    6  A    between atoms: C_20  and  N_57
REMARK    7  A    between atoms: C_21  and  C_22
REMARK    8  A    between atoms: C_21  and  N_57
REMARK                            x       y       z     vdW  Elec       q    Type
REMARK                         _______ _______ _______ _____ _____    ______ ____
ROOT
ATOM      1  C   UNL     1       5.035  11.196   2.448  0.00  0.00    +0.007 A 
ATOM      2  C   UNL     1       5.608  10.284   3.271  0.00  0.00    -0.003 A 
ATOM      3  S   UNL     1       4.473   8.911   3.217  0.00  0.00    -0.073 S 
ATOM      4  C   UNL     1       3.268   9.585   2.104  0.00  0.00    +0.116 A 
ATOM      5  C   UNL     1       3.773  10.860   1.799  0.00  0.00    +0.080 A 
ATOM      6  C   UNL     1       2.981  11.642   0.899  0.00  0.00    +0.260 A 
ATOM      7  O   UNL     1       3.336  12.762   0.575  0.00  0.00    -0.267 OA
ATOM      8  N   UNL     1       1.837  11.122   0.417  0.00  0.00    -0.312 N 
ATOM      9  H   UNL     1       1.296  11.647  -0.194  0.00  0.00    +0.170 HD
ATOM     10  C   UNL     1       1.425   9.877   0.768  0.00  0.00    +0.094 A 
ATOM     11  N   UNL     1       2.124   9.141   1.591  0.00  0.00    -0.229 NA
ATOM     12  C   UNL     1       6.895  10.403   4.045  0.00  0.00    +0.052 C 
ENDROOT
BRANCH   1  17
ATOM     13  C   UNL     1       7.533  16.303   1.537  0.00  0.00    +0.044 C 
ATOM     14  C   UNL     1       6.879  14.967   1.776  0.00  0.00    -0.050 A 
ATOM     15  C   UNL     1       6.415  14.642   3.038  0.00  0.00    +0.004 A 
ATOM     16  C   UNL     1       5.815  13.420   3.262  0.00  0.00    +0.009 A 
ATOM     17  C   UNL     1       5.678  12.511   2.214  0.00  0.00    -0.016 A 
ATOM     18  C   UNL     1       6.153  12.841   0.945  0.00  0.00    +0.009 A 
ATOM     19  C   UNL     1       6.746  14.069   0.732  0.00  0.00    +0.004 A 
ENDBRANCH   1  17
BRANCH  10  20
ATOM     20  C   UNL     1       0.137   9.336   0.203  0.00  0.00    -0.003 C 
BRANCH  20  22
ATOM     21  C   UNL     1      -0.334   8.009   2.173  0.00  0.00    -0.095 C 
ATOM     22  N   UNL     1      -0.072   7.966   0.719  0.00  0.00    +0.385 N 
ATOM     23  H   UNL     1       0.775   7.413   0.548  0.00  0.00    -0.081 HD
BRANCH  22  24
ATOM     24  C   UNL     1      -1.209   7.332   0.019  0.00  0.00    -0.030 C 
BRANCH  24  25
ATOM     25  C   UNL     1      -1.263   5.852   0.407  0.00  0.00    +0.194 C 
ATOM     26  C   UNL     1      -2.424   5.167  -0.326  0.00  0.00    +0.271 C 
ATOM     27  O   UNL     1      -2.437   3.785   0.048  0.00  0.00    -0.485 OA
ATOM     28  C   UNL     1      -1.241   3.136   0.030  0.00  0.00    +0.162 A 
ATOM     29  C   UNL     1      -1.219   1.749   0.017  0.00  0.00    +0.049 A 
ATOM     30  C   UNL     1      -0.013   1.076   0.008  0.00  0.00    +0.004 A 
ATOM     31  C   UNL     1       1.176   1.782   0.000  0.00  0.00    +0.004 A 
ATOM     32  C   UNL     1       1.161   3.164   0.007  0.00  0.00    +0.049 A 
ATOM     33  C   UNL     1      -0.046   3.846   0.020  0.00  0.00    +0.162 A 
ATOM     34  O   UNL     1      -0.045   5.207   0.019  0.00  0.00    -0.484 OA
ENDBRANCH  24  25
ENDBRANCH  22  24
ENDBRANCH  20  22
ENDBRANCH  10  20
TORSDOF 5
