REMARK  Name = ZINC16322212
REMARK  6 active torsions:
REMARK  status: ('A' for Active; 'I' for Inactive)
REMARK    1  A    between atoms: C_1  and  C_2
REMARK    2  A    between atoms: C_2  and  C_4
REMARK    3  A    between atoms: C_2  and  O_18
REMARK    4  A    between atoms: N_6  and  N_7
REMARK    5  A    between atoms: O_18  and  N_19
REMARK    6  A    between atoms: C_20  and  C_21
REMARK                            x       y       z     vdW  Elec       q    Type
REMARK                         _______ _______ _______ _____ _____    ______ ____
ROOT
ATOM      1  C   UNL     1       1.126   0.711  -0.892  0.00  0.00    +0.275 C 
ATOM      2  O   UNL     1       2.207   0.166  -0.826  0.00  0.00    -0.270 OA
ATOM      3  N   UNL     1       0.700   1.222  -2.064  0.00  0.00    -0.203 N 
ATOM      4  H   UNL     1      -0.165   1.658  -2.118  0.00  0.00    +0.177 HD
ENDROOT
BRANCH   3   5
ATOM      5  N   UNL     1       1.506   1.123  -3.206  0.00  0.00    -0.174 NA
ATOM      6  C   UNL     1       1.091   1.620  -4.346  0.00  0.00    +0.152 C 
ATOM      7  C   UNL     1       1.798   1.604  -5.648  0.00  0.00    +0.028 A 
ATOM      8  C   UNL     1       3.028   1.101  -6.057  0.00  0.00    +0.012 A 
ATOM      9  C   UNL     1       3.423   1.242  -7.372  0.00  0.00    +0.001 A 
ATOM     10  C   UNL     1       2.596   1.884  -8.280  0.00  0.00    +0.002 A 
ATOM     11  C   UNL     1       1.373   2.387  -7.883  0.00  0.00    +0.024 A 
ATOM     12  C   UNL     1       0.959   2.253  -6.562  0.00  0.00    +0.043 A 
ATOM     13  N   UNL     1      -0.201   2.661  -5.912  0.00  0.00    -0.280 N 
ATOM     14  C   UNL     1      -0.185   2.313  -4.614  0.00  0.00    +0.269 C 
ATOM     15  O   UNL     1      -1.065   2.533  -3.803  0.00  0.00    -0.268 OA
ATOM     16  H   UNL     1      -0.931   3.132  -6.343  0.00  0.00    +0.155 HD
ENDBRANCH   3   5
BRANCH   1  18
ATOM     17  C   UNL     1       0.100   2.289   0.722  0.00  0.00    +0.065 C 
ATOM     18  C   UNL     1       0.259   0.818   0.336  0.00  0.00    +0.288 C 
BRANCH  18  19
ATOM     19  O   UNL     1       0.871   0.106   1.414  0.00  0.00    -0.381 OA
BRANCH  19  20
ATOM     20  N   UNL     1      -0.042  -0.340   2.400  0.00  0.00    -0.092 NA
ATOM     21  C   UNL     1       0.388  -0.998   3.428  0.00  0.00    +0.161 C 
BRANCH  21  22
ATOM     22  C   UNL     1       1.786  -1.470   3.471  0.00  0.00    -0.004 A 
ATOM     23  C   UNL     1       2.303  -2.023   4.644  0.00  0.00    +0.010 A 
ATOM     24  C   UNL     1       3.610  -2.463   4.677  0.00  0.00    +0.016 A 
ATOM     25  C   UNL     1       4.408  -2.358   3.550  0.00  0.00    +0.018 A 
ATOM     26  C   UNL     1       3.901  -1.810   2.384  0.00  0.00    +0.016 A 
ATOM     27  C   UNL     1       2.594  -1.372   2.337  0.00  0.00    +0.010 A 
ATOM     28 BR   UNL     1       6.198  -2.964   3.605  0.00  0.00    -0.050 Br
ENDBRANCH  21  22
ENDBRANCH  19  20
ENDBRANCH  18  19
ENDBRANCH   1  18
TORSDOF 5
