REMARK  Name = ZINC28793650
REMARK  6 active torsions:
REMARK  status: ('A' for Active; 'I' for Inactive)
REMARK    1  A    between atoms: C_4  and  C_7
REMARK    2  A    between atoms: C_9  and  C_12
REMARK    3  A    between atoms: N_14  and  N_15
REMARK    4  A    between atoms: C_16  and  C_18
REMARK    5  A    between atoms: C_18  and  C_19
REMARK    6  A    between atoms: C_26  and  C_31
REMARK                            x       y       z     vdW  Elec       q    Type
REMARK                         _______ _______ _______ _____ _____    ______ ____
ROOT
ATOM      1  N   UNL     1       3.419  -2.068   2.917  0.00  0.00    -0.234 N 
ATOM      2  C   UNL     1       2.878  -1.825   1.707  0.00  0.00    +0.231 C 
ATOM      3  O   UNL     1       3.353  -2.339   0.717  0.00  0.00    -0.274 OA
ATOM      4  H   UNL     1       2.988  -1.602   3.816  0.00  0.00    +0.173 HD
ENDROOT
BRANCH   1   7
ATOM      5  C   UNL     1       5.072  -3.155   4.241  0.00  0.00    +0.282 C 
ATOM      6  O   UNL     1       4.596  -2.641   5.234  0.00  0.00    -0.267 OA
ATOM      7  N   UNL     1       4.531  -2.913   3.031  0.00  0.00    -0.229 N 
ATOM      8  H   UNL     1       4.962  -3.378   2.132  0.00  0.00    +0.173 HD
BRANCH   5  11
ATOM      9  C   UNL     1       7.926  -5.238   5.127  0.00  0.00    +0.168 A 
ATOM     10  C   UNL     1       6.931  -4.404   5.555  0.00  0.00    +0.086 A 
ATOM     11  C   UNL     1       6.249  -4.050   4.362  0.00  0.00    +0.170 A 
ATOM     12  N   UNL     1       6.864  -4.676   3.387  0.00  0.00    -0.073 NA
ATOM     13  O   UNL     1       7.795  -5.332   3.793  0.00  0.00    -0.354 OA
BRANCH   9  17
ATOM     14  C   UNL     1      10.852  -7.154   7.538  0.00  0.00    +0.000 A 
ATOM     15  C   UNL     1      10.850  -7.353   6.169  0.00  0.00    +0.001 A 
ATOM     16  C   UNL     1       9.902  -6.734   5.380  0.00  0.00    +0.011 A 
ATOM     17  C   UNL     1       8.945  -5.905   5.966  0.00  0.00    +0.020 A 
ATOM     18  C   UNL     1       8.956  -5.704   7.347  0.00  0.00    +0.011 A 
ATOM     19  C   UNL     1       9.905  -6.334   8.125  0.00  0.00    +0.001 A 
ENDBRANCH   9  17
ENDBRANCH   5  11
ENDBRANCH   1   7
BRANCH   2  20
ATOM     20  C   UNL     1       1.682  -0.917   1.585  0.00  0.00    +0.121 C 
BRANCH  20  21
ATOM     21  C   UNL     1       1.269  -0.812   0.116  0.00  0.00    +0.146 C 
ATOM     22  C   UNL     1       0.002  -0.004   0.002  0.00  0.00    +0.231 C 
ATOM     23  O   UNL     1      -1.052  -0.595  -0.102  0.00  0.00    -0.274 OA
ATOM     24  N   UNL     1      -0.016   1.325   0.009  0.00  0.00    -0.284 N 
ATOM     25  C   UNL     1       1.090   2.170   0.003  0.00  0.00    +0.047 A 
ATOM     26  C   UNL     1       0.927   3.503   0.367  0.00  0.00    +0.036 A 
ATOM     27  C   UNL     1       2.010   4.359   0.376  0.00  0.00    +0.057 A 
ATOM     28  C   UNL     1       3.268   3.903   0.026  0.00  0.00    +0.013 A 
ATOM     29  C   UNL     1       3.444   2.582  -0.341  0.00  0.00    +0.017 A 
ATOM     30  C   UNL     1       2.360   1.719  -0.354  0.00  0.00    +0.030 A 
ATOM     31  S   UNL     1       2.576   0.032  -0.828  0.00  0.00    -0.110 S 
ATOM     32  H   UNL     1      -0.976   1.862   0.021  0.00  0.00    +0.155 HD
BRANCH  27  33
ATOM     33  C   UNL     1       1.821   5.801   0.772  0.00  0.00    +0.417 C 
ATOM     34  F   UNL     1       3.049   6.468   0.707  0.00  0.00    -0.166 F 
ATOM     35  F   UNL     1       0.913   6.409  -0.103  0.00  0.00    -0.166 F 
ATOM     36  F   UNL     1       1.324   5.865   2.078  0.00  0.00    -0.166 F 
ENDBRANCH  27  33
ENDBRANCH  20  21
ENDBRANCH   2  20
TORSDOF 6
