REMARK  Name = ZINC02766485
REMARK  6 active torsions:
REMARK  status: ('A' for Active; 'I' for Inactive)
REMARK    1  A    between atoms: C_1  and  C_2
REMARK    2  A    between atoms: C_2  and  C_3
REMARK    3  A    between atoms: C_2  and  C_4
REMARK    4  A    between atoms: C_2  and  C_5
REMARK    5  A    between atoms: C_8  and  C_18
REMARK    6  A    between atoms: C_12  and  C_15
REMARK                            x       y       z     vdW  Elec       q    Type
REMARK                         _______ _______ _______ _____ _____    ______ ____
ROOT
ATOM      1  C   UNL     1       0.718  -0.497  -1.257  0.00  0.00    +0.079 C 
ATOM      2  C   UNL     1      -0.015   0.017  -2.501  0.00  0.00    +0.058 C 
ATOM      3  C   UNL     1       0.667  -0.521  -3.765  0.00  0.00    +0.214 C 
ATOM      4  N   UNL     1       2.109  -0.273  -3.667  0.00  0.00    -0.238 N 
ATOM      5  C   UNL     1       2.751  -0.021  -2.500  0.00  0.00    +0.135 A 
ATOM      6  C   UNL     1       4.088   0.163  -2.790  0.00  0.00    +0.111 A 
ATOM      7  C   UNL     1       4.228   0.008  -4.192  0.00  0.00    +0.155 A 
ATOM      8  N   UNL     1       3.050  -0.249  -4.695  0.00  0.00    -0.176 NA
ATOM      9  N   UNL     1       2.101   0.019  -1.276  0.00  0.00    -0.325 N 
ATOM     10  H   UNL     1       2.528   0.370  -0.479  0.00  0.00    +0.148 HD
ENDROOT
BRANCH   1  12
ATOM     11  C   UNL     1      -0.019   1.526   0.010  0.00  0.00    +0.012 C 
ATOM     12  C   UNL     1       0.002  -0.004   0.002  0.00  0.00    -0.019 C 
ATOM     13  C   UNL     1       0.742  -0.511   1.242  0.00  0.00    +0.012 C 
ATOM     14  C   UNL     1      -1.433  -0.534   0.013  0.00  0.00    +0.012 C 
ENDBRANCH   1  12
BRANCH   3  15
ATOM     15  C   UNL     1       0.104   0.194  -4.995  0.00  0.00    +0.412 C 
ATOM     16  F   UNL     1       0.343   1.568  -4.886  0.00  0.00    -0.168 F 
ATOM     17  F   UNL     1       0.727  -0.298  -6.146  0.00  0.00    -0.168 F 
ATOM     18  F   UNL     1      -1.274  -0.034  -5.076  0.00  0.00    -0.168 F 
ENDBRANCH   3  15
BRANCH   6  19
ATOM     19  C   UNL     1       5.133   0.455  -1.855  0.00  0.00    +0.104 C 
ATOM     20  N   UNL     1       5.961   0.686  -1.113  0.00  0.00    -0.191 NA
ENDBRANCH   6  19
TORSDOF 3
