REMARK  Name = ZINC61889270
REMARK  3 active torsions:
REMARK  status: ('A' for Active; 'I' for Inactive)
REMARK    1  A    between atoms: C_3  and  C_21
REMARK    2  A    between atoms: C_5  and  N_8
REMARK    3  A    between atoms: C_9  and  C_11
REMARK                            x       y       z     vdW  Elec       q    Type
REMARK                         _______ _______ _______ _____ _____    ______ ____
ROOT
ATOM      1  N   UNL     1       1.694  -1.614   0.815  0.00  0.00    -0.311 N 
ATOM      2  C   UNL     1       1.590  -2.842   0.270  0.00  0.00    +0.219 C 
ATOM      3  O   UNL     1       1.324  -2.963  -0.907  0.00  0.00    -0.275 OA
ATOM      4  H   UNL     1       1.907  -1.518   1.756  0.00  0.00    +0.149 HD
ENDROOT
BRANCH   2   5
ATOM      5  C   UNL     1       1.804  -4.066   1.123  0.00  0.00    +0.048 C 
ATOM      6  C   UNL     1       0.782  -4.079   2.262  0.00  0.00    +0.019 C 
ATOM      7  C   UNL     1       0.999  -5.321   3.128  0.00  0.00    -0.009 C 
ATOM      8  C   UNL     1       0.824  -6.577   2.272  0.00  0.00    +0.007 C 
ATOM      9  C   UNL     1       1.846  -6.564   1.133  0.00  0.00    -0.009 C 
ATOM     10  C   UNL     1       1.629  -5.322   0.267  0.00  0.00    +0.019 C 
ATOM     11  C   UNL     1       3.260  -6.538   1.717  0.00  0.00    +0.007 C 
ATOM     12  C   UNL     1       3.434  -5.282   2.574  0.00  0.00    -0.009 C 
ATOM     13  C   UNL     1       2.413  -5.295   3.712  0.00  0.00    +0.007 C 
ATOM     14  C   UNL     1       3.217  -4.040   1.707  0.00  0.00    +0.019 C 
ENDBRANCH   2   5
BRANCH   1  18
ATOM     15  C   UNL     1      -0.019   1.534   0.011  0.00  0.00    +0.003 C 
ATOM     16  C   UNL     1       1.453   1.995  -0.001  0.00  0.00    +0.020 C 
ATOM     17  C   UNL     1       2.232   0.792   0.586  0.00  0.00    +0.112 C 
ATOM     18  C   UNL     1       1.486  -0.425  -0.014  0.00  0.00    +0.090 C 
ATOM     19  C   UNL     1       0.002  -0.004   0.002  0.00  0.00    +0.023 C 
BRANCH  17  20
ATOM     20  C   UNL     1       2.151   0.786   2.056  0.00  0.00    +0.068 C 
ATOM     21  N   UNL     1       2.088   0.780   3.190  0.00  0.00    -0.196 NA
ENDBRANCH  17  20
ENDBRANCH   1  18
TORSDOF 3
