REMARK  Name = ZINC08926322
REMARK  7 active torsions:
REMARK  status: ('A' for Active; 'I' for Inactive)
REMARK    1  A    between atoms: C_1  and  N_2
REMARK    2  A    between atoms: N_7  and  C_8
REMARK    3  A    between atoms: C_8  and  C_9
REMARK    4  A    between atoms: C_9  and  C_10
REMARK    5  A    between atoms: N_16  and  C_31
REMARK    6  A    between atoms: N_19  and  C_22
REMARK    7  A    between atoms: C_22  and  C_23
REMARK                            x       y       z     vdW  Elec       q    Type
REMARK                         _______ _______ _______ _____ _____    ______ ____
ROOT
ATOM      1  C   UNL     1      -2.920  -3.929   0.006  0.00  0.00    +0.152 C 
ATOM      2  N   UNL     1      -2.460  -2.538   0.011  0.00  0.00    -0.309 N 
ATOM      3  C   UNL     1      -1.141  -2.103   0.001  0.00  0.00    +0.153 A 
ATOM      4  C   UNL     1      -1.189  -0.713   0.015  0.00  0.00    +0.170 A 
ATOM      5  N   UNL     1      -2.474  -0.354   0.022  0.00  0.00    -0.196 NA
ATOM      6  C   UNL     1      -3.240  -1.426   0.023  0.00  0.00    +0.198 A 
ATOM      7  N   UNL     1      -4.616  -1.419   0.035  0.00  0.00    -0.314 N 
ATOM      8  N   UNL     1       0.002  -0.004   0.002  0.00  0.00    -0.279 N 
ATOM      9  C   UNL     1       1.177  -0.661  -0.013  0.00  0.00    +0.334 A 
ATOM     10  O   UNL     1       2.213  -0.023  -0.019  0.00  0.00    -0.246 OA
ATOM     11  N   UNL     1       1.234  -2.004  -0.020  0.00  0.00    -0.255 N 
ATOM     12  C   UNL     1       0.108  -2.747  -0.014  0.00  0.00    +0.283 A 
ATOM     13  O   UNL     1       0.173  -3.964  -0.020  0.00  0.00    -0.265 OA
ATOM     14  C   UNL     1      -0.018   1.461   0.010  0.00  0.00    +0.155 C 
ATOM     15  H   UNL     1      -5.105  -2.257   0.035  0.00  0.00    +0.149 HD
ENDROOT
BRANCH   7  16
ATOM     16  C   UNL     1      -5.342  -0.147   0.049  0.00  0.00    +0.109 C 
BRANCH  16  17
ATOM     17  C   UNL     1      -6.848  -0.420   0.061  0.00  0.00    +0.054 C 
BRANCH  17  18
ATOM     18  C   UNL     1      -7.595   0.889   0.074  0.00  0.00    -0.046 A 
ATOM     19  C   UNL     1      -7.932   1.480   1.278  0.00  0.00    +0.004 A 
ATOM     20  C   UNL     1      -8.613   2.683   1.290  0.00  0.00    +0.000 A 
ATOM     21  C   UNL     1      -8.967   3.289   0.099  0.00  0.00    +0.000 A 
ATOM     22  C   UNL     1      -8.634   2.695  -1.104  0.00  0.00    +0.000 A 
ATOM     23  C   UNL     1      -7.949   1.495  -1.117  0.00  0.00    +0.004 A 
ENDBRANCH  17  18
ENDBRANCH  16  17
ENDBRANCH   7  16
BRANCH  11  24
ATOM     24  C   UNL     1       2.539  -2.671  -0.036  0.00  0.00    +0.165 C 
BRANCH  24  25
ATOM     25  C   UNL     1       2.999  -2.906   1.380  0.00  0.00    -0.026 A 
ATOM     26  C   UNL     1       2.665  -4.081   2.028  0.00  0.00    +0.007 A 
ATOM     27  C   UNL     1       3.087  -4.298   3.326  0.00  0.00    +0.022 A 
ATOM     28  C   UNL     1       3.844  -3.341   3.977  0.00  0.00    +0.059 A 
ATOM     29  C   UNL     1       4.179  -2.165   3.328  0.00  0.00    +0.060 A 
ATOM     30  C   UNL     1       3.760  -1.951   2.027  0.00  0.00    +0.026 A 
ATOM     31 CL   UNL     1       5.129  -0.962   4.143  0.00  0.00    -0.082 Cl
ATOM     32 CL   UNL     1       4.375  -3.614   5.608  0.00  0.00    -0.082 Cl
ENDBRANCH  24  25
ENDBRANCH  11  24
TORSDOF 5
