REMARK  Name = ZINC12251206
REMARK  8 active torsions:
REMARK  status: ('A' for Active; 'I' for Inactive)
REMARK    1  A    between atoms: C_1  and  C_2
REMARK    2  A    between atoms: C_2  and  C_3
REMARK    3  A    between atoms: C_3  and  C_5
REMARK    4  A    between atoms: C_3  and  C_6
REMARK    5  A    between atoms: C_6  and  C_8
REMARK    6  A    between atoms: C_6  and  N_20
REMARK    7  A    between atoms: N_10  and  C_11
REMARK    8  A    between atoms: C_11  and  C_12
REMARK                            x       y       z     vdW  Elec       q    Type
REMARK                         _______ _______ _______ _____ _____    ______ ____
ROOT
ATOM      1  C   UNL     1       5.274  -4.786  -2.991  0.00  0.00    +0.173 C 
ENDROOT
BRANCH   1   2
ATOM      2  N   UNL     1       5.960  -6.074  -2.860  0.00  0.00    -0.222 N 
ATOM      3  C   UNL     1       7.189  -6.232  -2.337  0.00  0.00    +0.255 C 
ATOM      4  O   UNL     1       7.894  -5.343  -1.904  0.00  0.00    -0.270 OA
ATOM      5  C   UNL     1       7.535  -7.668  -2.374  0.00  0.00    +0.049 A 
ATOM      6  C   UNL     1       8.639  -8.408  -1.981  0.00  0.00    +0.014 A 
ATOM      7  C   UNL     1       8.647  -9.781  -2.166  0.00  0.00    +0.001 A 
ATOM      8  C   UNL     1       7.562 -10.418  -2.740  0.00  0.00    +0.001 A 
ATOM      9  C   UNL     1       6.451  -9.691  -3.138  0.00  0.00    +0.014 A 
ATOM     10  C   UNL     1       6.429  -8.317  -2.959  0.00  0.00    +0.049 A 
ATOM     11  C   UNL     1       5.446  -7.253  -3.253  0.00  0.00    +0.255 C 
ATOM     12  O   UNL     1       4.356  -7.417  -3.764  0.00  0.00    -0.270 OA
ENDBRANCH   1   2
BRANCH   1  13
ATOM     13  C   UNL     1       4.966  -4.239  -1.621  0.00  0.00    +0.235 C 
ATOM     14  O   UNL     1       5.567  -4.655  -0.653  0.00  0.00    -0.274 OA
ATOM     15  N   UNL     1       4.024  -3.286  -1.472  0.00  0.00    -0.308 N 
ATOM     16  H   UNL     1       3.597  -2.900  -2.252  0.00  0.00    +0.149 HD
BRANCH  15  17
ATOM     17  C   UNL     1       3.647  -2.834  -0.130  0.00  0.00    +0.161 C 
BRANCH  17  18
ATOM     18  C   UNL     1       2.582  -1.773  -0.239  0.00  0.00    +0.078 A 
ATOM     19  C   UNL     1       1.257  -1.978  -0.159  0.00  0.00    +0.118 A 
ATOM     20  N   UNL     1       0.627  -0.746  -0.309  0.00  0.00    -0.300 N 
ATOM     21  C   UNL     1      -0.655  -0.242  -0.331  0.00  0.00    +0.100 A 
ATOM     22  C   UNL     1      -0.873   1.061  -0.506  0.00  0.00    +0.067 A 
ATOM     23  S   UNL     1       0.789   1.696  -0.660  0.00  0.00    -0.058 S 
ATOM     24  C   UNL     1       1.650   0.151  -0.475  0.00  0.00    +0.178 A 
ATOM     25  N   UNL     1       2.797  -0.463  -0.432  0.00  0.00    -0.225 NA
ENDBRANCH  17  18
ENDBRANCH  15  17
ENDBRANCH   1  13
BRANCH   1  26
ATOM     26  C   UNL     1       6.173  -3.803  -3.743  0.00  0.00    +0.016 C 
ATOM     27  C   UNL     1       5.526  -2.417  -3.744  0.00  0.00    +0.010 C 
BRANCH  26  29
ATOM     28  C   UNL     1       7.149  -5.590  -5.192  0.00  0.00    +0.004 C 
ATOM     29  C   UNL     1       6.357  -4.280  -5.185  0.00  0.00    +0.002 C 
ENDBRANCH  26  29
ENDBRANCH   1  26
TORSDOF 6
