REMARK  Name = ZINC44979303
REMARK  2 active torsions:
REMARK  status: ('A' for Active; 'I' for Inactive)
REMARK    1  A    between atoms: N_6  and  C_12
REMARK    2  A    between atoms: C_12  and  N_13
REMARK                            x       y       z     vdW  Elec       q    Type
REMARK                         _______ _______ _______ _____ _____    ______ ____
ROOT
ATOM      1  C   UNL     1      -0.018   1.506   0.010  0.00  0.00    +0.002 C 
ATOM      2  C   UNL     1       1.340   2.166   0.001  0.00  0.00    +0.008 C 
ATOM      3  C   UNL     1       2.068   1.975   1.336  0.00  0.00    +0.076 C 
ATOM      4  C   UNL     1       2.706   0.601   1.320  0.00  0.00    +0.134 A 
ATOM      5  N   UNL     1       3.954   0.297   1.304  0.00  0.00    -0.153 NA
ATOM      6  N   UNL     1       4.061  -1.103   1.292  0.00  0.00    -0.198 N 
ATOM      7  C   UNL     1       2.805  -1.605   1.301  0.00  0.00    +0.348 A 
ATOM      8  O   UNL     1       2.499  -2.784   1.294  0.00  0.00    -0.245 OA
ATOM      9  N   UNL     1       1.962  -0.566   1.319  0.00  0.00    -0.279 N 
ATOM     10  C   UNL     1       0.490  -0.573   1.338  0.00  0.00    +0.128 C 
ATOM     11  C   UNL     1       0.002  -0.004   0.002  0.00  0.00    +0.022 C 
ENDROOT
BRANCH   6  12
ATOM     12  C   UNL     1       5.305  -1.878   1.273  0.00  0.00    +0.236 C 
BRANCH  12  13
ATOM     13  N   UNL     1       5.924  -1.843   2.604  0.00  0.00    -0.276 NA
ATOM     14  C   UNL     1       6.686  -0.601   2.799  0.00  0.00    +0.114 C 
ATOM     15  C   UNL     1       7.265  -0.578   4.216  0.00  0.00    +0.175 C 
ATOM     16  O   UNL     1       8.065  -1.745   4.421  0.00  0.00    -0.374 OA
ATOM     17  C   UNL     1       7.350  -2.969   4.238  0.00  0.00    +0.135 C 
ATOM     18  C   UNL     1       6.787  -3.017   2.815  0.00  0.00    +0.087 C 
ATOM     19  C   UNL     1       7.938  -2.977   1.808  0.00  0.00    +0.021 C 
ATOM     20  C   UNL     1       8.864  -4.172   2.038  0.00  0.00    +0.002 C 
ATOM     21  C   UNL     1       9.434  -4.108   3.457  0.00  0.00    +0.003 C 
ATOM     22  C   UNL     1       8.287  -4.156   4.458  0.00  0.00    +0.033 C 
ENDBRANCH  12  13
ENDBRANCH   6  12
TORSDOF 2
