REMARK  Name = ZINC09548646
REMARK  3 active torsions:
REMARK  status: ('A' for Active; 'I' for Inactive)
REMARK    1  A    between atoms: C_4  and  N_7
REMARK    2  A    between atoms: C_8  and  C_12
REMARK    3  A    between atoms: C_12  and  N_13
REMARK                            x       y       z     vdW  Elec       q    Type
REMARK                         _______ _______ _______ _____ _____    ______ ____
ROOT
ATOM      1  C   UNL     1      -0.789   0.726   1.730  0.00  0.00    +0.183 C 
ENDROOT
BRANCH   1   2
ATOM      2  N   UNL     1      -1.100   1.586   0.581  0.00  0.00    -0.322 N 
ATOM      3  C   UNL     1      -0.563   1.018  -0.663  0.00  0.00    +0.106 C 
ATOM      4  C   UNL     1      -1.501   1.238  -1.830  0.00  0.00    +0.030 C 
ATOM      5  C   UNL     1      -1.607   2.664  -2.335  0.00  0.00    +0.076 C 
ATOM      6  S   UNL     1      -2.427   3.695  -1.074  0.00  0.00    -0.123 S 
ATOM      7  C   UNL     1      -1.108   3.974   0.081  0.00  0.00    +0.029 A 
ATOM      8  C   UNL     1      -0.608   2.891   0.779  0.00  0.00    +0.044 A 
ATOM      9  C   UNL     1       0.420   3.090   1.695  0.00  0.00    +0.024 A 
ATOM     10  C   UNL     1       0.927   4.362   1.889  0.00  0.00    +0.002 A 
ATOM     11  C   UNL     1       0.423   5.438   1.183  0.00  0.00    +0.001 A 
ATOM     12  C   UNL     1      -0.603   5.247   0.270  0.00  0.00    +0.016 A 
ENDBRANCH   1   2
BRANCH   1  14
ATOM     13  N   UNL     1      -2.797  -0.830   1.963  0.00  0.00    -0.196 N 
ATOM     14  C   UNL     1      -1.522  -0.583   1.591  0.00  0.00    +0.174 A 
ATOM     15  N   UNL     1      -1.041  -1.692   1.093  0.00  0.00    -0.111 NA
ATOM     16  N   UNL     1      -1.926  -2.622   1.120  0.00  0.00    -0.023 NA
ATOM     17  N   UNL     1      -3.023  -2.178   1.632  0.00  0.00    -0.039 NA
BRANCH  13  21
ATOM     18  C   UNL     1      -5.487   1.834   3.710  0.00  0.00    +0.000 A 
ATOM     19  C   UNL     1      -5.907   0.997   2.692  0.00  0.00    +0.002 A 
ATOM     20  C   UNL     1      -5.018   0.113   2.112  0.00  0.00    +0.028 A 
ATOM     21  C   UNL     1      -3.702   0.066   2.550  0.00  0.00    +0.069 A 
ATOM     22  C   UNL     1      -3.285   0.903   3.576  0.00  0.00    +0.028 A 
ATOM     23  C   UNL     1      -4.177   1.789   4.149  0.00  0.00    +0.002 A 
ENDBRANCH  13  21
ENDBRANCH   1  14
TORSDOF 3
