REMARK  Name = ZINC14128971
REMARK  11 active torsions:
REMARK  status: ('A' for Active; 'I' for Inactive)
REMARK    1  A    between atoms: C_1  and  C_2
REMARK    2  A    between atoms: C_5  and  S_24
REMARK    3  A    between atoms: C_7  and  N_8
REMARK    4  A    between atoms: C_9  and  C_11
REMARK    5  A    between atoms: C_11  and  C_13
REMARK    6  A    between atoms: C_11  and  S_14
REMARK    7  A    between atoms: S_14  and  C_15
REMARK    8  A    between atoms: C_21  and  N_23
REMARK    9  A    between atoms: S_24  and  N_27
REMARK   10  A    between atoms: N_27  and  C_28
REMARK   11  A    between atoms: N_27  and  C_29
REMARK                            x       y       z     vdW  Elec       q    Type
REMARK                         _______ _______ _______ _____ _____    ______ ____
ROOT
ATOM      1  N   UNL     1      -2.433   1.468   0.021  0.00  0.00    -0.284 N 
ATOM      2  C   UNL     1      -3.556   2.038  -0.459  0.00  0.00    +0.230 C 
ATOM      3  O   UNL     1      -3.506   3.134  -0.976  0.00  0.00    -0.274 OA
ATOM      4  H   UNL     1      -2.458   0.559   0.362  0.00  0.00    +0.155 HD
ENDROOT
BRANCH   1  11
ATOM      5  C   UNL     1       0.007   0.004   0.007  0.00  0.00    +0.045 C 
ATOM      6  C   UNL     1      -0.018   1.511   0.023  0.00  0.00    -0.029 A 
ATOM      7  C   UNL     1       1.166   2.222   0.026  0.00  0.00    +0.007 A 
ATOM      8  C   UNL     1       1.143   3.604   0.039  0.00  0.00    +0.029 A 
ATOM      9  C   UNL     1      -0.064   4.279   0.051  0.00  0.00    +0.107 A 
ATOM     10  C   UNL     1      -1.251   3.574   0.049  0.00  0.00    +0.052 A 
ATOM     11  C   UNL     1      -1.232   2.185   0.030  0.00  0.00    +0.038 A 
BRANCH   9  12
ATOM     12  S   UNL     1      -0.087   6.041   0.068  0.00  0.00    +0.060 S 
ATOM     13  O   UNL     1      -1.335   6.426   0.627  0.00  0.00    -0.153 OA
ATOM     14  O   UNL     1       1.155   6.458   0.617  0.00  0.00    -0.153 OA
BRANCH  12  15
ATOM     15  N   UNL     1      -0.100   6.546  -1.510  0.00  0.00    -0.183 NA
ATOM     16  C   UNL     1      -1.374   6.752  -2.202  0.00  0.00    +0.131 C 
ATOM     17  C   UNL     1       1.163   6.786  -2.212  0.00  0.00    +0.131 C 
ENDBRANCH  12  15
ENDBRANCH   9  12
ENDBRANCH   1  11
BRANCH   2  18
ATOM     18  C   UNL     1      -4.873   1.314  -0.355  0.00  0.00    +0.137 C 
ATOM     19  C   UNL     1      -4.972   0.271  -1.470  0.00  0.00    +0.029 C 
BRANCH  18  20
ATOM     20  S   UNL     1      -6.229   2.502  -0.518  0.00  0.00    -0.075 S 
BRANCH  20  21
ATOM     21  C   UNL     1      -7.603   1.441  -0.214  0.00  0.00    +0.171 A 
ATOM     22  N   UNL     1      -8.864   1.957  -0.243  0.00  0.00    -0.302 N 
ATOM     23  H   UNL     1      -8.997   2.899  -0.431  0.00  0.00    +0.171 HD
ATOM     24  C   UNL     1      -9.927   1.159  -0.012  0.00  0.00    +0.254 A 
ATOM     25  O   UNL     1     -11.060   1.614  -0.036  0.00  0.00    -0.268 OA
ATOM     26  C   UNL     1      -9.710  -0.195   0.256  0.00  0.00    +0.113 A 
ATOM     27  C   UNL     1      -8.406  -0.672   0.275  0.00  0.00    +0.124 A 
ATOM     28  N   UNL     1      -7.391   0.165   0.033  0.00  0.00    -0.209 NA
BRANCH  27  29
ATOM     29  N   UNL     1      -8.159  -2.004   0.536  0.00  0.00    -0.343 N 
ATOM     30  H   UNL     1      -8.898  -2.610   0.708  0.00  0.00    +0.144 HD
ATOM     31  H   UNL     1      -7.248  -2.335   0.549  0.00  0.00    +0.144 HD
ENDBRANCH  27  29
ENDBRANCH  20  21
ENDBRANCH  18  20
ENDBRANCH   2  18
TORSDOF 7
