REMARK  Name = ZINC04424943
REMARK  5 active torsions:
REMARK  status: ('A' for Active; 'I' for Inactive)
REMARK    1  A    between atoms: C_1  and  C_2
REMARK    2  A    between atoms: C_4  and  C_24
REMARK    3  A    between atoms: C_9  and  C_22
REMARK    4  A    between atoms: C_10  and  C_16
REMARK    5  A    between atoms: C_12  and  C_15
REMARK                            x       y       z     vdW  Elec       q    Type
REMARK                         _______ _______ _______ _____ _____    ______ ____
ROOT
ATOM      1  C   UNL     1       0.564   1.523   0.539  0.00  0.00    +0.040 C 
ATOM      2  C   UNL     1       0.291   0.036   0.301  0.00  0.00    +0.151 C 
ATOM      3  C   UNL     1      -1.203  -0.210   0.380  0.00  0.00    +0.184 C 
ATOM      4  C   UNL     1      -1.684  -0.292   1.824  0.00  0.00    +0.219 C 
ATOM      5  N   UNL     1      -2.844  -0.820   1.827  0.00  0.00    -0.197 NA
ATOM      6  C   UNL     1      -2.950  -1.663   0.760  0.00  0.00    +0.177 C 
ATOM      7  N   UNL     1      -3.973  -2.232   0.321  0.00  0.00    -0.131 NA
ATOM      8  C   UNL     1      -1.496  -1.745   0.220  0.00  0.00    +0.160 C 
ATOM      9  C   UNL     1      -0.697  -2.402   1.373  0.00  0.00    +0.120 C 
ATOM     10  C   UNL     1       0.146  -1.413   2.187  0.00  0.00    +0.220 C 
ATOM     11  O   UNL     1       1.007  -0.727   1.270  0.00  0.00    -0.334 OA
ATOM     12  O   UNL     1      -0.722  -0.384   2.770  0.00  0.00    -0.446 OA
ATOM     13  C   UNL     1       0.957  -2.140   3.262  0.00  0.00    +0.090 C 
ENDROOT
BRANCH   9  14
ATOM     14  C   UNL     1      -1.667  -3.082   2.305  0.00  0.00    -0.036 A 
ATOM     15  C   UNL     1      -2.332  -4.224   1.897  0.00  0.00    +0.004 A 
ATOM     16  C   UNL     1      -3.222  -4.848   2.751  0.00  0.00    +0.000 A 
ATOM     17  C   UNL     1      -3.447  -4.330   4.013  0.00  0.00    +0.000 A 
ATOM     18  C   UNL     1      -2.782  -3.189   4.421  0.00  0.00    +0.000 A 
ATOM     19  C   UNL     1      -1.889  -2.567   3.568  0.00  0.00    +0.004 A 
ENDBRANCH   9  14
BRANCH   8  20
ATOM     20  C   UNL     1      -1.317  -2.319  -1.123  0.00  0.00    +0.080 C 
ATOM     21  N   UNL     1      -1.180  -2.762  -2.160  0.00  0.00    -0.195 NA
ENDBRANCH   8  20
BRANCH   3  22
ATOM     22  C   UNL     1      -1.997   0.666  -0.497  0.00  0.00    +0.083 C 
ATOM     23  N   UNL     1      -2.609   1.342  -1.173  0.00  0.00    -0.195 NA
ENDBRANCH   3  22
TORSDOF 3
