REMARK  Name = ZINC03446457
REMARK  3 active torsions:
REMARK  status: ('A' for Active; 'I' for Inactive)
REMARK    1  A    between atoms: C_3  and  C_7
REMARK    2  A    between atoms: C_21  and  O_29
REMARK    3  A    between atoms: C_24  and  C_26
REMARK                            x       y       z     vdW  Elec       q    Type
REMARK                         _______ _______ _______ _____ _____    ______ ____
ROOT
ATOM      1  C   UNL     1       2.037   1.506   3.350  0.00  0.00    +0.164 A 
ATOM      2  N   UNL     1       1.244   1.512   2.283  0.00  0.00    -0.212 NA
ATOM      3  C   UNL     1       0.024   2.018   2.318  0.00  0.00    +0.134 A 
ATOM      4  C   UNL     1      -0.464   2.567   3.537  0.00  0.00    +0.051 A 
ATOM      5  C   UNL     1      -1.777   3.174   3.804  0.00  0.00    -0.025 A 
ATOM      6  C   UNL     1      -1.998   3.620   5.052  0.00  0.00    -0.004 A 
ATOM      7  S   UNL     1      -0.497   3.274   5.940  0.00  0.00    -0.073 S 
ATOM      8  C   UNL     1       0.426   2.523   4.627  0.00  0.00    +0.114 A 
ATOM      9  N   UNL     1       1.633   2.005   4.512  0.00  0.00    -0.220 NA
ATOM     10  C   UNL     1      -3.372   4.215   5.207  0.00  0.00    +0.043 C 
ATOM     11  C   UNL     1      -4.161   3.695   3.986  0.00  0.00    +0.010 C 
ATOM     12  C   UNL     1      -3.031   3.445   2.967  0.00  0.00    +0.037 C 
ATOM     13  N   UNL     1      -0.771   2.010   1.186  0.00  0.00    -0.300 N 
ATOM     14  C   UNL     1      -0.428   3.133   0.284  0.00  0.00    +0.138 C 
ATOM     15  C   UNL     1      -0.624   2.632  -1.159  0.00  0.00    +0.134 C 
ATOM     16  C   UNL     1      -1.069   1.159  -1.018  0.00  0.00    +0.064 C 
ATOM     17  C   UNL     1      -0.554   0.774   0.391  0.00  0.00    +0.163 C 
ENDROOT
BRANCH   1  20
ATOM     18  C   UNL     1       5.511   0.355   4.196  0.00  0.00    +0.020 A 
ATOM     19  C   UNL     1       4.250   0.906   4.349  0.00  0.00    +0.014 A 
ATOM     20  C   UNL     1       3.397   0.928   3.242  0.00  0.00    +0.037 A 
ATOM     21  C   UNL     1       3.845   0.393   2.035  0.00  0.00    +0.122 A 
ATOM     22  N   UNL     1       5.056  -0.116   1.936  0.00  0.00    -0.263 NA
ATOM     23  C   UNL     1       5.883  -0.151   2.964  0.00  0.00    +0.111 A 
ENDBRANCH   1  20
BRANCH  17  24
ATOM     24  C   UNL     1      -1.355  -0.370   0.957  0.00  0.00    +0.231 C 
ATOM     25  O   UNL     1      -2.019  -0.207   1.959  0.00  0.00    -0.274 OA
ATOM     26  N   UNL     1      -1.332  -1.573   0.351  0.00  0.00    -0.328 N 
ATOM     27  H   UNL     1      -0.801  -1.703  -0.450  0.00  0.00    +0.145 HD
ATOM     28  H   UNL     1      -1.848  -2.309   0.715  0.00  0.00    +0.145 HD
ENDBRANCH  17  24
BRANCH  15  29
ATOM     29  O   UNL     1      -1.638   3.396  -1.816  0.00  0.00    -0.390 OA
ATOM     30  H   UNL     1      -1.414   4.330  -1.932  0.00  0.00    +0.210 HD
ENDBRANCH  15  29
TORSDOF 3
