REMARK  Name = ZINC36724069
REMARK  5 active torsions:
REMARK  status: ('A' for Active; 'I' for Inactive)
REMARK    1  A    between atoms: C_1  and  C_2
REMARK    2  A    between atoms: C_7  and  N_8
REMARK    3  A    between atoms: N_8  and  S_9
REMARK    4  A    between atoms: S_9  and  C_12
REMARK    5  A    between atoms: C_15  and  O_18
REMARK                            x       y       z     vdW  Elec       q    Type
REMARK                         _______ _______ _______ _____ _____    ______ ____
ROOT
ATOM      1  S   UNL     1       0.764  -0.677   3.742  0.00  0.00    +0.072 S 
ATOM      2  O   UNL     1       0.520   0.208   4.826  0.00  0.00    -0.150 OA
ATOM      3  O   UNL     1       0.387  -2.047   3.776  0.00  0.00    -0.150 OA
ENDROOT
BRANCH   1   4
ATOM      4  C   UNL     1       2.501  -0.640   3.443  0.00  0.00    +0.109 A 
ATOM      5  C   UNL     1       3.116  -1.708   2.816  0.00  0.00    +0.032 A 
ATOM      6  C   UNL     1       4.477  -1.682   2.582  0.00  0.00    +0.047 A 
ATOM      7  C   UNL     1       5.226  -0.583   2.975  0.00  0.00    +0.117 A 
ATOM      8  C   UNL     1       4.607   0.487   3.604  0.00  0.00    +0.047 A 
ATOM      9  C   UNL     1       3.244   0.458   3.832  0.00  0.00    +0.032 A 
BRANCH   7  10
ATOM     10  O   UNL     1       6.566  -0.555   2.746  0.00  0.00    -0.507 OA
ATOM     11  H   UNL     1       6.811  -0.169   1.894  0.00  0.00    +0.292 HD
ENDBRANCH   7  10
ENDBRANCH   1   4
BRANCH   1  12
ATOM     12  N   UNL     1       0.026  -0.016   2.415  0.00  0.00    -0.216 N 
ATOM     13  H   UNL     1      -0.521   0.780   2.511  0.00  0.00    +0.174 HD
BRANCH  12  20
ATOM     14  C   UNL     1       0.153   1.691   0.143  0.00  0.00    +0.046 C 
ATOM     15  C   UNL     1       0.258   0.193   0.022  0.00  0.00    -0.027 A 
ATOM     16  C   UNL     1       0.427  -0.391  -1.219  0.00  0.00    +0.020 A 
ATOM     17  C   UNL     1       0.523  -1.766  -1.331  0.00  0.00    +0.018 A 
ATOM     18  C   UNL     1       0.450  -2.562  -0.201  0.00  0.00    +0.017 A 
ATOM     19  C   UNL     1       0.281  -1.984   1.042  0.00  0.00    +0.026 A 
ATOM     20  C   UNL     1       0.190  -0.603   1.158  0.00  0.00    +0.051 A 
ATOM     21 BR   UNL     1       0.753  -2.561  -3.031  0.00  0.00    -0.050 Br
ENDBRANCH  12  20
ENDBRANCH   1  12
TORSDOF 4
