REMARK  Name = ZINC56728570
REMARK  8 active torsions:
REMARK  status: ('A' for Active; 'I' for Inactive)
REMARK    1  A    between atoms: C_1  and  C_2
REMARK    2  A    between atoms: C_2  and  O_3
REMARK    3  A    between atoms: O_3  and  C_4
REMARK    4  A    between atoms: C_7  and  C_28
REMARK    5  A    between atoms: C_9  and  N_10
REMARK    6  A    between atoms: N_13  and  C_14
REMARK    7  A    between atoms: N_17  and  C_20
REMARK    8  A    between atoms: C_20  and  C_21
REMARK                            x       y       z     vdW  Elec       q    Type
REMARK                         _______ _______ _______ _____ _____    ______ ____
ROOT
ATOM      1  N   UNL     1       1.953  -1.458  -3.425  0.00  0.00    -0.266 N 
ATOM      2  C   UNL     1       2.659  -1.954  -4.460  0.00  0.00    +0.304 C 
ATOM      3  O   UNL     1       2.757  -3.156  -4.609  0.00  0.00    -0.252 OA
ATOM      4  N   UNL     1       3.258  -1.116  -5.329  0.00  0.00    -0.296 N 
ATOM      5  H   UNL     1       1.806  -0.502  -3.350  0.00  0.00    +0.156 HD
ATOM      6  H   UNL     1       3.181  -0.156  -5.210  0.00  0.00    +0.151 HD
ENDROOT
BRANCH   4   7
ATOM      7  C   UNL     1       4.027  -1.654  -6.454  0.00  0.00    +0.071 C 
ATOM      8  C   UNL     1       3.084  -1.945  -7.626  0.00  0.00    +0.004 C 
ATOM      9  C   UNL     1       3.902  -2.431  -8.823  0.00  0.00    -0.077 C 
ATOM     10  N   UNL     1       4.866  -1.396  -9.215  0.00  0.00    +0.383 N 
ATOM     11  C   UNL     1       5.818  -1.163  -8.122  0.00  0.00    -0.077 C 
ATOM     12  C   UNL     1       5.073  -0.628  -6.897  0.00  0.00    +0.004 C 
ATOM     13  H   UNL     1       4.374  -0.539  -9.419  0.00  0.00    -0.081 HD
BRANCH  10  14
ATOM     14  C   UNL     1       5.595  -1.835 -10.412  0.00  0.00    -0.040 C 
BRANCH  14  15
ATOM     15  C   UNL     1       6.497  -0.725 -10.887  0.00  0.00    -0.029 A 
ATOM     16  C   UNL     1       6.105   0.082 -11.938  0.00  0.00    +0.004 A 
ATOM     17  C   UNL     1       6.932   1.101 -12.374  0.00  0.00    +0.000 A 
ATOM     18  C   UNL     1       8.151   1.313 -11.759  0.00  0.00    +0.003 A 
ATOM     19  C   UNL     1       8.545   0.508 -10.707  0.00  0.00    +0.038 A 
ATOM     20  C   UNL     1       7.715  -0.509 -10.266  0.00  0.00    +0.125 A 
ATOM     21  F   UNL     1       8.097  -1.294  -9.235  0.00  0.00    -0.205 F 
ENDBRANCH  14  15
ENDBRANCH  10  14
ENDBRANCH   4   7
BRANCH   1  27
ATOM     22  C   UNL     1       0.318  -1.942  -1.703  0.00  0.00    +0.142 A 
ATOM     23  C   UNL     1      -0.205  -2.800  -0.747  0.00  0.00    +0.049 A 
ATOM     24  C   UNL     1       0.373  -4.032  -0.530  0.00  0.00    +0.022 A 
ATOM     25  C   UNL     1       1.490  -4.421  -1.275  0.00  0.00    +0.054 A 
ATOM     26  C   UNL     1       2.018  -3.558  -2.239  0.00  0.00    +0.046 A 
ATOM     27  C   UNL     1       1.429  -2.325  -2.455  0.00  0.00    +0.078 A 
BRANCH  25  28
ATOM     28  C   UNL     1       2.091  -5.701  -1.051  0.00  0.00    +0.099 C 
ATOM     29  N   UNL     1       2.569  -6.716  -0.873  0.00  0.00    -0.191 NA
ENDBRANCH  25  28
BRANCH  22  30
ATOM     30  O   UNL     1      -0.256  -0.729  -1.912  0.00  0.00    -0.490 OA
BRANCH  30  32
ATOM     31  C   UNL     1      -1.895   0.994  -1.484  0.00  0.00    +0.048 C 
ATOM     32  C   UNL     1      -1.390  -0.400  -1.108  0.00  0.00    +0.226 C 
ENDBRANCH  30  32
ENDBRANCH  22  30
ENDBRANCH   1  27
TORSDOF 7
