REMARK  Name = ZINC01980890
REMARK  6 active torsions:
REMARK  status: ('A' for Active; 'I' for Inactive)
REMARK    1  A    between atoms: C_1  and  C_2
REMARK    2  A    between atoms: C_5  and  N_9
REMARK    3  A    between atoms: C_6  and  C_8
REMARK    4  A    between atoms: C_10  and  C_12
REMARK    5  A    between atoms: C_12  and  C_14
REMARK    6  A    between atoms: C_12  and  N_15
REMARK                            x       y       z     vdW  Elec       q    Type
REMARK                         _______ _______ _______ _____ _____    ______ ____
ROOT
ATOM      1  C   UNL     1      -1.848   4.148  -5.933  0.00  0.00    +0.174 C 
ATOM      2  C   UNL     1      -3.245   4.569  -6.391  0.00  0.00    +0.041 C 
ENDROOT
BRANCH   1   3
ATOM      3  N   UNL     1      -1.664   4.516  -4.526  0.00  0.00    -0.287 N 
ATOM      4  C   UNL     1      -1.762   5.822  -4.183  0.00  0.00    +0.204 A 
ATOM      5  N   UNL     1      -1.613   6.251  -2.949  0.00  0.00    -0.230 NA
ATOM      6  C   UNL     1      -1.356   5.343  -2.013  0.00  0.00    +0.116 A 
ATOM      7  C   UNL     1      -1.234   3.959  -2.271  0.00  0.00    +0.076 A 
ATOM      8  C   UNL     1      -1.403   3.533  -3.631  0.00  0.00    +0.263 A 
ATOM      9  O   UNL     1      -1.318   2.362  -3.960  0.00  0.00    -0.267 OA
ATOM     10  C   UNL     1      -0.951   3.116  -1.124  0.00  0.00    -0.023 A 
ATOM     11  C   UNL     1      -0.833   3.738   0.073  0.00  0.00    -0.004 A 
ATOM     12  S   UNL     1      -1.090   5.461  -0.272  0.00  0.00    -0.073 S 
ATOM     13  C   UNL     1      -0.547   3.106   1.400  0.00  0.00    +0.043 C 
ATOM     14  C   UNL     1      -0.775   1.593   1.276  0.00  0.00    +0.005 C 
ATOM     15  C   UNL     1      -0.062   1.093   0.016  0.00  0.00    +0.005 C 
ATOM     16  C   UNL     1      -0.791   1.601  -1.228  0.00  0.00    +0.037 C 
ENDBRANCH   1   3
BRANCH   1  18
ATOM     17  N   UNL     1      -0.787   4.657  -8.108  0.00  0.00    -0.284 N 
ATOM     18  C   UNL     1      -0.811   4.847  -6.774  0.00  0.00    +0.240 C 
ATOM     19  O   UNL     1       0.001   5.580  -6.251  0.00  0.00    -0.273 OA
ATOM     20  H   UNL     1      -1.383   4.011  -8.517  0.00  0.00    +0.155 HD
BRANCH  17  25
ATOM     21  C   UNL     1       2.803   7.641 -11.333  0.00  0.00    +0.044 C 
ATOM     22  C   UNL     1       1.849   6.848 -10.476  0.00  0.00    -0.050 A 
ATOM     23  C   UNL     1       1.438   7.350  -9.255  0.00  0.00    +0.005 A 
ATOM     24  C   UNL     1       0.565   6.627  -8.468  0.00  0.00    +0.024 A 
ATOM     25  C   UNL     1       0.099   5.393  -8.904  0.00  0.00    +0.036 A 
ATOM     26  C   UNL     1       0.517   4.889 -10.128  0.00  0.00    -0.029 A 
ATOM     27  C   UNL     1       1.387   5.620 -10.913  0.00  0.00    +0.008 A 
ATOM     28  C   UNL     1       0.019   3.548 -10.602  0.00  0.00    +0.045 C 
ENDBRANCH  17  25
ENDBRANCH   1  18
TORSDOF 3
