REMARK  Name = ZINC13167822
REMARK  8 active torsions:
REMARK  status: ('A' for Active; 'I' for Inactive)
REMARK    1  A    between atoms: C_1  and  C_2
REMARK    2  A    between atoms: C_4  and  C_23
REMARK    3  A    between atoms: C_5  and  O_9
REMARK    4  A    between atoms: C_6  and  C_8
REMARK    5  A    between atoms: O_9  and  C_10
REMARK    6  A    between atoms: C_10  and  C_11
REMARK    7  A    between atoms: N_13  and  C_14
REMARK    8  A    between atoms: C_16  and  C_21
REMARK                            x       y       z     vdW  Elec       q    Type
REMARK                         _______ _______ _______ _____ _____    ______ ____
ROOT
ATOM      1  C   UNL     1      -4.298   4.862  -1.005  0.00  0.00    +0.255 C 
ATOM      2  O   UNL     1      -4.694   5.079   0.121  0.00  0.00    -0.272 OA
ATOM      3  N   UNL     1      -5.026   5.265  -2.065  0.00  0.00    -0.281 N 
ATOM      4  H   UNL     1      -4.680   5.151  -2.964  0.00  0.00    +0.155 HD
ENDROOT
BRANCH   3   5
ATOM      5  C   UNL     1      -6.284   5.850  -1.869  0.00  0.00    +0.053 A 
ATOM      6  C   UNL     1      -6.509   6.653  -0.763  0.00  0.00    +0.040 A 
ATOM      7  C   UNL     1      -7.763   7.237  -0.574  0.00  0.00    +0.065 A 
ATOM      8  C   UNL     1      -8.785   7.000  -1.496  0.00  0.00    +0.016 A 
ATOM      9  C   UNL     1      -8.552   6.195  -2.592  0.00  0.00    +0.022 A 
ATOM     10  C   UNL     1      -7.308   5.619  -2.781  0.00  0.00    +0.062 A 
ATOM     11 CL   UNL     1      -7.024   4.607  -4.163  0.00  0.00    -0.082 Cl
BRANCH   7  12
ATOM     12  C   UNL     1      -8.009   8.099   0.599  0.00  0.00    +0.387 C 
ATOM     13  O   UNL     1      -7.119   8.304   1.400  0.00  0.00    -0.241 OA
ATOM     14  O   UNL     1      -9.221   8.658   0.781  0.00  0.00    -0.241 OA
ENDBRANCH   7  12
ENDBRANCH   3   5
BRANCH   1  15
ATOM     15  C   UNL     1      -2.991   4.142  -1.219  0.00  0.00    +0.324 C 
BRANCH  15  16
ATOM     16  O   UNL     1      -2.412   3.821   0.047  0.00  0.00    -0.482 OA
BRANCH  16  21
ATOM     17  C   UNL     1       2.521   1.102  -0.013  0.00  0.00    +0.044 C 
ATOM     18  C   UNL     1       1.201   1.830   0.003  0.00  0.00    -0.050 A 
ATOM     19  C   UNL     1       0.018   1.114   0.010  0.00  0.00    +0.010 A 
ATOM     20  C   UNL     1      -1.193   1.778   0.019  0.00  0.00    -0.008 A 
ATOM     21  C   UNL     1      -1.222   3.165   0.032  0.00  0.00    +0.127 A 
ATOM     22  C   UNL     1      -0.033   3.881   0.026  0.00  0.00    -0.008 A 
ATOM     23  C   UNL     1       1.175   3.212   0.011  0.00  0.00    +0.010 A 
ATOM     24  C   UNL     1      -0.061   5.388   0.035  0.00  0.00    +0.047 C 
ATOM     25  C   UNL     1      -2.482   0.997   0.019  0.00  0.00    +0.047 C 
ENDBRANCH  16  21
ENDBRANCH  15  16
ENDBRANCH   1  15
TORSDOF 5
