REMARK  Name = ZINC20952779
REMARK  8 active torsions:
REMARK  status: ('A' for Active; 'I' for Inactive)
REMARK    1  A    between atoms: C_1  and  O_2
REMARK    2  A    between atoms: O_2  and  C_3
REMARK    3  A    between atoms: C_5  and  C_12
REMARK    4  A    between atoms: C_6  and  O_10
REMARK    5  A    between atoms: O_10  and  C_11
REMARK    6  A    between atoms: C_12  and  N_13
REMARK    7  A    between atoms: N_16  and  C_19
REMARK    8  A    between atoms: C_19  and  C_20
REMARK                            x       y       z     vdW  Elec       q    Type
REMARK                         _______ _______ _______ _____ _____    ______ ____
ROOT
ATOM      1  N   UNL     1       1.481   0.449  -5.374  0.00  0.00    +0.384 N 
ATOM      2  C   UNL     1       1.322  -0.893  -5.951  0.00  0.00    -0.063 C 
ATOM      3  C   UNL     1       0.350  -0.829  -7.130  0.00  0.00    +0.066 C 
ATOM      4  N   UNL     1       0.872   0.099  -8.143  0.00  0.00    -0.298 NA
ATOM      5  C   UNL     1       1.059   1.441  -7.573  0.00  0.00    +0.066 C 
ATOM      6  C   UNL     1       2.026   1.359  -6.390  0.00  0.00    -0.063 C 
ATOM      7  H   UNL     1       0.584   0.789  -5.064  0.00  0.00    -0.081 HD
ENDROOT
BRANCH   1   8
ATOM      8  C   UNL     1       2.401   0.384  -4.231  0.00  0.00    -0.039 C 
BRANCH   8  11
ATOM      9  C   UNL     1       0.606  -0.608  -1.056  0.00  0.00    +0.134 A 
ATOM     10  C   UNL     1       1.173   0.161  -2.062  0.00  0.00    +0.052 A 
ATOM     11  C   UNL     1       1.786  -0.452  -3.138  0.00  0.00    -0.019 A 
ATOM     12  C   UNL     1       1.835  -1.836  -3.212  0.00  0.00    +0.123 A 
ATOM     13  C   UNL     1       1.269  -2.605  -2.207  0.00  0.00    +0.064 A 
ATOM     14  C   UNL     1       0.661  -1.992  -1.127  0.00  0.00    +0.063 A 
ATOM     15 BR   UNL     1      -0.104  -3.041   0.248  0.00  0.00    -0.046 Br
BRANCH   9  17
ATOM     16  C   UNL     1      -0.017   1.425   0.010  0.00  0.00    +0.277 C 
ATOM     17  O   UNL     1       0.002  -0.004   0.002  0.00  0.00    -0.494 OA
ENDBRANCH   9  17
BRANCH  12  18
ATOM     18  O   UNL     1       2.439  -2.439  -4.271  0.00  0.00    -0.495 OA
ATOM     19  C   UNL     1       2.453  -3.868  -4.283  0.00  0.00    +0.277 C 
ENDBRANCH  12  18
ENDBRANCH   8  11
ENDBRANCH   1   8
BRANCH   4  20
ATOM     20  C   UNL     1      -0.008   0.145  -9.319  0.00  0.00    +0.180 C 
BRANCH  20  21
ATOM     21  C   UNL     1       0.673   0.907 -10.426  0.00  0.00    +0.230 C 
ATOM     22  O   UNL     1       1.782   1.367 -10.253  0.00  0.00    -0.274 OA
ATOM     23  N   UNL     1       0.050   1.078 -11.609  0.00  0.00    -0.300 N 
ATOM     24  C   UNL     1      -1.291   0.582 -11.950  0.00  0.00    +0.108 C 
ATOM     25  C   UNL     1      -1.573   0.991 -13.411  0.00  0.00    +0.020 C 
ATOM     26  C   UNL     1      -0.150   1.202 -13.994  0.00  0.00    +0.020 C 
ATOM     27  C   UNL     1       0.598   1.798 -12.773  0.00  0.00    +0.108 C 
ENDBRANCH  20  21
ENDBRANCH   4  20
TORSDOF 6
