REMARK  Name = ZINC03505778
REMARK  4 active torsions:
REMARK  status: ('A' for Active; 'I' for Inactive)
REMARK    1  A    between atoms: C_1  and  C_2
REMARK    2  A    between atoms: C_4  and  C_20
REMARK    3  A    between atoms: C_6  and  C_8
REMARK    4  A    between atoms: C_8  and  N_9
REMARK                            x       y       z     vdW  Elec       q    Type
REMARK                         _______ _______ _______ _____ _____    ______ ____
ROOT
ATOM      1  N   UNL     1      -0.089   5.844  -1.346  0.00  0.00    -0.220 N 
ATOM      2  C   UNL     1       1.018   6.121  -2.068  0.00  0.00    +0.247 C 
ATOM      3  O   UNL     1       2.172   6.012  -1.716  0.00  0.00    -0.273 OA
ATOM      4  C   UNL     1       0.511   6.593  -3.407  0.00  0.00    +0.113 C 
ATOM      5  C   UNL     1       0.988   8.022  -3.699  0.00  0.00    +0.035 C 
ATOM      6  C   UNL     1       2.213   7.826  -4.628  0.00  0.00    +0.003 C 
ATOM      7  C   UNL     1       1.789   6.623  -5.509  0.00  0.00    +0.003 C 
ATOM      8  C   UNL     1       1.015   5.699  -4.543  0.00  0.00    +0.035 C 
ATOM      9  N   UNL     1      -0.947   6.535  -3.288  0.00  0.00    -0.285 N 
ATOM     10  C   UNL     1      -1.206   6.084  -2.045  0.00  0.00    +0.310 C 
ATOM     11  O   UNL     1      -2.327   5.916  -1.606  0.00  0.00    -0.252 OA
ATOM     12  H   UNL     1      -1.597   6.774  -3.968  0.00  0.00    +0.151 HD
ENDROOT
BRANCH   1  13
ATOM     13  C   UNL     1      -0.070   5.347   0.032  0.00  0.00    +0.153 C 
BRANCH  13  19
ATOM     14  C   UNL     1       2.490   1.048  -0.016  0.00  0.00    +0.044 C 
ATOM     15  C   UNL     1       1.175   1.783   0.000  0.00  0.00    -0.050 A 
ATOM     16  C   UNL     1      -0.013   1.076   0.008  0.00  0.00    +0.006 A 
ATOM     17  C   UNL     1      -1.219   1.751   0.017  0.00  0.00    -0.050 A 
ATOM     18  C   UNL     1      -1.238   3.133   0.029  0.00  0.00    +0.008 A 
ATOM     19  C   UNL     1      -0.050   3.840   0.023  0.00  0.00    -0.029 A 
ATOM     20  C   UNL     1       1.156   3.165   0.008  0.00  0.00    +0.008 A 
ATOM     21  C   UNL     1      -2.514   0.980   0.019  0.00  0.00    +0.044 C 
ENDBRANCH  13  19
ENDBRANCH   1  13
TORSDOF 2
