REMARK  Name = ZINC30871644
REMARK  7 active torsions:
REMARK  status: ('A' for Active; 'I' for Inactive)
REMARK    1  A    between atoms: C_1  and  C_2
REMARK    2  A    between atoms: C_3  and  C_11
REMARK    3  A    between atoms: C_7  and  N_8
REMARK    4  A    between atoms: N_13  and  C_14
REMARK    5  A    between atoms: C_14  and  C_15
REMARK    6  A    between atoms: C_18  and  N_21
REMARK    7  A    between atoms: C_25  and  C_26
REMARK                            x       y       z     vdW  Elec       q    Type
REMARK                         _______ _______ _______ _____ _____    ______ ____
ROOT
ATOM      1  C   UNL     1       4.334   4.964  -1.544  0.00  0.00    +0.245 C 
ATOM      2  O   UNL     1       5.104   5.432  -0.728  0.00  0.00    -0.270 OA
ATOM      3  N   UNL     1       3.265   4.253  -1.132  0.00  0.00    -0.307 N 
ATOM      4  H   UNL     1       2.568   3.830  -1.870  0.00  0.00    +0.149 HD
ENDROOT
BRANCH   1   7
ATOM      5  C   UNL     1       6.462   6.726  -2.405  0.00  0.00    +0.047 C 
ATOM      6  C   UNL     1       5.593   6.021  -3.415  0.00  0.00    -0.008 A 
ATOM      7  C   UNL     1       4.570   5.173  -2.988  0.00  0.00    +0.042 A 
ATOM      8  C   UNL     1       3.767   4.529  -3.930  0.00  0.00    +0.013 A 
ATOM      9  C   UNL     1       3.992   4.730  -5.277  0.00  0.00    +0.003 A 
ATOM     10  C   UNL     1       5.011   5.567  -5.693  0.00  0.00    +0.033 A 
ATOM     11  C   UNL     1       5.811   6.209  -4.764  0.00  0.00    +0.130 A 
BRANCH  11  12
ATOM     12  N   UNL     1       6.899   7.104  -5.219  0.00  0.00    +0.057 N 
ATOM     13  O   UNL     1       7.013   7.372  -6.402  0.00  0.00    -0.126 OA
ATOM     14  O   UNL     1       7.682   7.571  -4.411  0.00  0.00    -0.126 OA
ENDBRANCH  11  12
ENDBRANCH   1   7
BRANCH   3  15
ATOM     15  C   UNL     1       3.031   4.045   0.299  0.00  0.00    +0.139 C 
BRANCH  15  16
ATOM     16  C   UNL     1       1.781   3.226   0.490  0.00  0.00    -0.030 A 
ATOM     17  C   UNL     1       1.861   1.846   0.538  0.00  0.00    +0.007 A 
ATOM     18  C   UNL     1       0.717   1.093   0.713  0.00  0.00    +0.026 A 
ATOM     19  C   UNL     1      -0.515   1.721   0.834  0.00  0.00    +0.048 A 
ATOM     20  C   UNL     1      -0.592   3.107   0.792  0.00  0.00    +0.026 A 
ATOM     21  C   UNL     1       0.556   3.855   0.616  0.00  0.00    +0.007 A 
BRANCH  19  22
ATOM     22  N   UNL     1      -1.679   0.958   1.006  0.00  0.00    -0.305 N 
ATOM     23  C   UNL     1      -2.070  -0.114   0.246  0.00  0.00    +0.110 A 
ATOM     24  C   UNL     1      -3.240  -0.546   0.753  0.00  0.00    +0.102 A 
ATOM     25  N   UNL     1      -3.560   0.238   1.794  0.00  0.00    -0.350 N 
ATOM     26  C   UNL     1      -2.630   1.139   1.959  0.00  0.00    +0.088 A 
ATOM     27  C   UNL     1      -2.615   2.203   3.026  0.00  0.00    +0.084 C 
ATOM     28  H   UNL     1      -4.490   0.057   2.353  0.00  0.00    +0.166 HD
ENDBRANCH  19  22
ENDBRANCH  15  16
ENDBRANCH   3  15
TORSDOF 5
