REMARK  Name = ZINC07449741
REMARK  7 active torsions:
REMARK  status: ('A' for Active; 'I' for Inactive)
REMARK    1  A    between atoms: C_1  and  C_2
REMARK    2  A    between atoms: C_2  and  C_4
REMARK    3  A    between atoms: C_2  and  S_15
REMARK    4  A    between atoms: N_6  and  C_7
REMARK    5  A    between atoms: S_15  and  C_16
REMARK    6  A    between atoms: C_19  and  C_22
REMARK    7  A    between atoms: N_20  and  N_21
REMARK                            x       y       z     vdW  Elec       q    Type
REMARK                         _______ _______ _______ _____ _____    ______ ____
ROOT
ATOM      1  C   UNL     1      -0.038   1.544   0.012  0.00  0.00    +0.029 C 
ATOM      2  C   UNL     1      -0.005   0.014   0.005  0.00  0.00    +0.137 C 
ENDROOT
BRANCH   2   3
ATOM      3  C   UNL     1      -1.415  -0.519   0.014  0.00  0.00    +0.230 C 
ATOM      4  O   UNL     1      -1.941  -0.824   1.063  0.00  0.00    -0.274 OA
ATOM      5  N   UNL     1      -2.090  -0.657  -1.144  0.00  0.00    -0.282 N 
ATOM      6  H   UNL     1      -1.694  -0.354  -1.976  0.00  0.00    +0.155 HD
BRANCH   5   7
ATOM      7  C   UNL     1      -3.365  -1.239  -1.147  0.00  0.00    +0.069 A 
ATOM      8  C   UNL     1      -4.225  -1.033  -0.078  0.00  0.00    +0.027 A 
ATOM      9  C   UNL     1      -5.482  -1.607  -0.083  0.00  0.00    +0.022 A 
ATOM     10  C   UNL     1      -5.883  -2.389  -1.151  0.00  0.00    +0.044 A 
ATOM     11  C   UNL     1      -5.028  -2.598  -2.219  0.00  0.00    +0.060 A 
ATOM     12  C   UNL     1      -3.772  -2.020  -2.223  0.00  0.00    +0.146 A 
ATOM     13  F   UNL     1      -2.939  -2.219  -3.268  0.00  0.00    -0.203 F 
ATOM     14 CL   UNL     1      -7.462  -3.110  -1.153  0.00  0.00    -0.083 Cl
ENDBRANCH   5   7
ENDBRANCH   2   3
BRANCH   2  15
ATOM     15  S   UNL     1       0.875  -0.578   1.476  0.00  0.00    -0.072 S 
BRANCH  15  16
ATOM     16  C   UNL     1       2.524  -0.002   1.248  0.00  0.00    +0.209 A 
ATOM     17  N   UNL     1       2.970   0.700   0.231  0.00  0.00    -0.120 NA
ATOM     18  N   UNL     1       4.221   0.952   0.381  0.00  0.00    -0.123 NA
ATOM     19  C   UNL     1       4.652   0.425   1.506  0.00  0.00    +0.217 A 
ATOM     20  N   UNL     1       3.576  -0.197   2.099  0.00  0.00    -0.221 N 
BRANCH  19  21
ATOM     21  C   UNL     1       6.024   0.493   2.035  0.00  0.00    +0.173 A 
ATOM     22  C   UNL     1       7.002   1.343   1.614  0.00  0.00    +0.053 A 
ATOM     23  C   UNL     1       8.143   1.063   2.390  0.00  0.00    +0.042 A 
ATOM     24  C   UNL     1       7.811   0.069   3.238  0.00  0.00    +0.196 A 
ATOM     25  O   UNL     1       6.529  -0.270   3.024  0.00  0.00    -0.460 OA
ENDBRANCH  19  21
BRANCH  20  26
ATOM     26  N   UNL     1       3.563  -0.872   3.287  0.00  0.00    -0.294 N 
ATOM     27  H   UNL     1       3.776  -1.848   3.150  0.00  0.00    +0.163 HD
ATOM     28  H   UNL     1       4.199  -0.451   3.948  0.00  0.00    +0.163 HD
ENDBRANCH  20  26
ENDBRANCH  15  16
ENDBRANCH   2  15
TORSDOF 6
