REMARK  Name = ZINC62089138
REMARK  4 active torsions:
REMARK  status: ('A' for Active; 'I' for Inactive)
REMARK    1  A    between atoms: C_1  and  N_2
REMARK    2  A    between atoms: C_5  and  N_12
REMARK    3  A    between atoms: N_12  and  S_13
REMARK    4  A    between atoms: S_13  and  C_16
REMARK                            x       y       z     vdW  Elec       q    Type
REMARK                         _______ _______ _______ _____ _____    ______ ____
ROOT
ATOM      1  S   UNL     1      -5.656  -2.410  -0.972  0.00  0.00    +0.072 S 
ATOM      2  O   UNL     1      -7.005  -2.000  -0.794  0.00  0.00    -0.150 OA
ATOM      3  O   UNL     1      -5.022  -2.410  -2.244  0.00  0.00    -0.150 OA
ENDROOT
BRANCH   1   4
ATOM      4  C   UNL     1      -5.544  -4.056  -0.354  0.00  0.00    +0.109 A 
ATOM      5  C   UNL     1      -4.484  -4.864  -0.722  0.00  0.00    +0.030 A 
ATOM      6  C   UNL     1      -4.390  -6.154  -0.241  0.00  0.00    +0.025 A 
ATOM      7  C   UNL     1      -5.366  -6.652   0.620  0.00  0.00    +0.037 A 
ATOM      8  C   UNL     1      -6.426  -5.831   0.982  0.00  0.00    -0.016 A 
ATOM      9  C   UNL     1      -6.514  -4.542   0.505  0.00  0.00    +0.034 A 
ATOM     10  C   UNL     1      -7.299  -6.646   1.908  0.00  0.00    +0.133 C 
ATOM     11  C   UNL     1      -6.592  -7.982   1.998  0.00  0.00    +0.222 C 
ATOM     12  O   UNL     1      -6.950  -8.944   2.643  0.00  0.00    -0.275 OA
ATOM     13  N   UNL     1      -5.493  -7.901   1.230  0.00  0.00    -0.285 N 
ATOM     14  H   UNL     1      -4.860  -8.626   1.113  0.00  0.00    +0.155 HD
ENDBRANCH   1   4
BRANCH   1  15
ATOM     15  N   UNL     1      -4.735  -1.452   0.016  0.00  0.00    -0.216 N 
ATOM     16  H   UNL     1      -3.972  -0.975  -0.345  0.00  0.00    +0.174 HD
BRANCH  15  21
ATOM     17  C   UNL     1      -2.193  -1.589   4.944  0.00  0.00    +0.156 C 
ATOM     18  N   UNL     1      -3.638  -1.369   4.849  0.00  0.00    -0.277 N 
ATOM     19  C   UNL     1      -4.389  -1.315   3.675  0.00  0.00    +0.092 A 
ATOM     20  C   UNL     1      -4.064  -1.435   2.333  0.00  0.00    +0.054 A 
ATOM     21  C   UNL     1      -5.058  -1.331   1.372  0.00  0.00    +0.050 A 
ATOM     22  C   UNL     1      -6.376  -1.107   1.755  0.00  0.00    +0.028 A 
ATOM     23  C   UNL     1      -6.700  -0.987   3.091  0.00  0.00    +0.050 A 
ATOM     24  C   UNL     1      -5.711  -1.090   4.057  0.00  0.00    +0.157 A 
ATOM     25  O   UNL     1      -5.731  -1.016   5.411  0.00  0.00    -0.407 OA
ATOM     26  C   UNL     1      -4.486  -1.189   5.881  0.00  0.00    +0.421 A 
ATOM     27  O   UNL     1      -4.171  -1.182   7.055  0.00  0.00    -0.223 OA
ENDBRANCH  15  21
ENDBRANCH   1  15
TORSDOF 3
