REMARK  Name = ZINC39777688
REMARK  7 active torsions:
REMARK  status: ('A' for Active; 'I' for Inactive)
REMARK    1  A    between atoms: C_4  and  C_7
REMARK    2  A    between atoms: C_11  and  C_13
REMARK    3  A    between atoms: C_14  and  C_15
REMARK    4  A    between atoms: C_14  and  C_17
REMARK    5  A    between atoms: C_18  and  C_30
REMARK    6  A    between atoms: C_19  and  N_29
REMARK    7  A    between atoms: N_21  and  C_23
REMARK                            x       y       z     vdW  Elec       q    Type
REMARK                         _______ _______ _______ _____ _____    ______ ____
ROOT
ATOM      1  C   UNL     1       1.740  -4.324  -2.385  0.00  0.00    +0.078 C 
ATOM      2  C   UNL     1       0.756  -5.263  -2.376  0.00  0.00    +0.089 C 
ATOM      3  C   UNL     1       0.454  -5.596  -3.820  0.00  0.00    +0.201 C 
ATOM      4  N   UNL     1       1.370  -4.745  -4.597  0.00  0.00    -0.231 N 
ATOM      5  N   UNL     1       2.108  -4.004  -3.667  0.00  0.00    -0.260 N 
ATOM      6  H   UNL     1       2.790  -3.353  -3.898  0.00  0.00    +0.170 HD
ENDROOT
BRANCH   4   7
ATOM      7  C   UNL     1       1.477  -4.686  -5.988  0.00  0.00    +0.050 A 
ATOM      8  C   UNL     1       0.662  -5.481  -6.784  0.00  0.00    +0.025 A 
ATOM      9  C   UNL     1       0.771  -5.419  -8.160  0.00  0.00    +0.002 A 
ATOM     10  C   UNL     1       1.690  -4.567  -8.745  0.00  0.00    +0.000 A 
ATOM     11  C   UNL     1       2.503  -3.775  -7.955  0.00  0.00    +0.002 A 
ATOM     12  C   UNL     1       2.396  -3.827  -6.580  0.00  0.00    +0.025 A 
ENDBRANCH   4   7
BRANCH   3  13
ATOM     13  N   UNL     1       0.720  -7.016  -4.085  0.00  0.00    -0.307 NA
ATOM     14  H   UNL     1       0.133  -7.606  -3.516  0.00  0.00    +0.120 HD
ATOM     15  H   UNL     1       0.606  -7.228  -5.065  0.00  0.00    +0.120 HD
ENDBRANCH   3  13
BRANCH   1  17
ATOM     16  C   UNL     1       3.300  -2.794  -1.286  0.00  0.00    +0.009 C 
ATOM     17  C   UNL     1       2.331  -3.723  -1.173  0.00  0.00    +0.072 C 
BRANCH  16  22
ATOM     18  C   UNL     1       3.691  -0.680  -0.038  0.00  0.00    +0.083 C 
ATOM     19  N   UNL     1       4.884  -0.152  -0.042  0.00  0.00    -0.153 NA
ATOM     20  N   UNL     1       5.886  -1.118  -0.059  0.00  0.00    -0.161 NA
ATOM     21  C   UNL     1       5.413  -2.321  -0.067  0.00  0.00    +0.121 C 
ATOM     22  C   UNL     1       3.904  -2.181  -0.048  0.00  0.00    +0.107 C 
BRANCH  18  26
ATOM     23  C   UNL     1      -0.017   1.380   0.010  0.00  0.00    +0.000 A 
ATOM     24  C   UNL     1       1.168   2.095   0.002  0.00  0.00    +0.001 A 
ATOM     25  C   UNL     1       2.377   1.433  -0.013  0.00  0.00    +0.010 A 
ATOM     26  C   UNL     1       2.405   0.035  -0.021  0.00  0.00    -0.001 A 
ATOM     27  C   UNL     1       1.203  -0.681  -0.013  0.00  0.00    +0.010 A 
ATOM     28  C   UNL     1       0.002  -0.004   0.002  0.00  0.00    +0.001 A 
ENDBRANCH  18  26
ENDBRANCH  16  22
BRANCH  17  29
ATOM     29  C   UNL     1       1.875  -4.128   0.123  0.00  0.00    +0.101 C 
ATOM     30  N   UNL     1       1.512  -4.449   1.150  0.00  0.00    -0.191 NA
ENDBRANCH  17  29
ENDBRANCH   1  17
BRANCH   2  31
ATOM     31  C   UNL     1       0.127  -5.828  -1.220  0.00  0.00    +0.100 C 
ATOM     32  N   UNL     1      -0.371  -6.277  -0.303  0.00  0.00    -0.191 NA
ENDBRANCH   2  31
TORSDOF 7
