REMARK  Name = ZINC19219249
REMARK  7 active torsions:
REMARK  status: ('A' for Active; 'I' for Inactive)
REMARK    1  A    between atoms: C_1  and  C_2
REMARK    2  A    between atoms: C_8  and  O_34
REMARK    3  A    between atoms: N_15  and  C_18
REMARK    4  A    between atoms: C_18  and  C_19
REMARK    5  A    between atoms: C_19  and  C_21
REMARK    6  A    between atoms: C_19  and  O_33
REMARK    7  A    between atoms: C_24  and  N_27
REMARK                            x       y       z     vdW  Elec       q    Type
REMARK                         _______ _______ _______ _____ _____    ______ ____
ROOT
ATOM      1  C   UNL     1      14.698   2.750   7.322  0.00  0.00    +0.044 C 
ATOM      2  C   UNL     1      13.977   2.763   5.999  0.00  0.00    -0.050 A 
ATOM      3  C   UNL     1      12.719   3.329   5.903  0.00  0.00    +0.007 A 
ATOM      4  C   UNL     1      12.061   3.344   4.691  0.00  0.00    +0.046 A 
ATOM      5  C   UNL     1      12.659   2.791   3.563  0.00  0.00    +0.127 A 
ATOM      6  C   UNL     1      13.914   2.219   3.663  0.00  0.00    +0.023 A 
ATOM      7  C   UNL     1      14.572   2.210   4.882  0.00  0.00    +0.013 A 
ATOM      8  C   UNL     1      14.590   1.590   2.471  0.00  0.00    +0.152 C 
ATOM      9  C   UNL     1      13.924   2.079   1.183  0.00  0.00    +0.084 C 
ATOM     10  C   UNL     1      12.406   1.952   1.344  0.00  0.00    +0.110 C 
ATOM     11  O   UNL     1      11.982   2.830   2.385  0.00  0.00    -0.485 OA
ATOM     12  C   UNL     1      12.048   0.509   1.705  0.00  0.00    +0.029 C 
ATOM     13  C   UNL     1      10.526   0.374   1.802  0.00  0.00    -0.075 C 
ATOM     14  N   UNL     1       9.919   0.744   0.517  0.00  0.00    +0.382 N 
ATOM     15  C   UNL     1      10.207   2.143   0.177  0.00  0.00    -0.075 C 
ATOM     16  C   UNL     1      11.719   2.333   0.032  0.00  0.00    +0.029 C 
ATOM     17  H   UNL     1      10.369   0.110  -0.261  0.00  0.00    -0.082 HD
ENDROOT
BRANCH   8  18
ATOM     18  O   UNL     1      15.971   1.955   2.460  0.00  0.00    -0.387 OA
ATOM     19  H   UNL     1      16.631   1.589   1.660  0.00  0.00    +0.210 HD
ENDBRANCH   8  18
BRANCH  14  20
ATOM     20  C   UNL     1       8.472   0.492   0.527  0.00  0.00    -0.042 C 
BRANCH  20  21
ATOM     21  C   UNL     1       7.860   0.977  -0.788  0.00  0.00    +0.128 C 
BRANCH  21  22
ATOM     22  C   UNL     1       6.378   0.705  -0.784  0.00  0.00    -0.021 A 
ATOM     23  C   UNL     1       5.490   1.723  -0.491  0.00  0.00    +0.008 A 
ATOM     24  C   UNL     1       4.131   1.476  -0.486  0.00  0.00    +0.024 A 
ATOM     25  C   UNL     1       3.657   0.204  -0.776  0.00  0.00    +0.036 A 
ATOM     26  C   UNL     1       4.552  -0.818  -1.065  0.00  0.00    +0.024 A 
ATOM     27  C   UNL     1       5.909  -0.564  -1.073  0.00  0.00    +0.008 A 
BRANCH  25  28
ATOM     28  N   UNL     1       2.281  -0.050  -0.771  0.00  0.00    -0.271 N 
ATOM     29  C   UNL     1       1.261   0.922  -0.358  0.00  0.00    +0.114 C 
ATOM     30  C   UNL     1      -0.073   0.383  -0.920  0.00  0.00    +0.029 C 
ATOM     31  C   UNL     1       0.217  -1.133  -1.022  0.00  0.00    +0.098 C 
ATOM     32  C   UNL     1       1.723  -1.215  -1.143  0.00  0.00    +0.220 C 
ATOM     33  O   UNL     1       2.337  -2.190  -1.521  0.00  0.00    -0.275 OA
ENDBRANCH  25  28
ENDBRANCH  21  22
BRANCH  21  34
ATOM     34  O   UNL     1       8.469   0.285  -1.880  0.00  0.00    -0.389 OA
ATOM     35  H   UNL     1       8.156   0.503  -2.912  0.00  0.00    +0.210 HD
ENDBRANCH  21  34
ENDBRANCH  20  21
ENDBRANCH  14  20
TORSDOF 6
