REMARK  Name = ZINC59300459
REMARK  7 active torsions:
REMARK  status: ('A' for Active; 'I' for Inactive)
REMARK    1  A    between atoms: C_1  and  C_2
REMARK    2  A    between atoms: C_2  and  O_3
REMARK    3  A    between atoms: O_3  and  C_4
REMARK    4  A    between atoms: C_6  and  C_23
REMARK    5  A    between atoms: C_8  and  C_9
REMARK    6  A    between atoms: N_11  and  C_12
REMARK    7  A    between atoms: C_14  and  N_20
REMARK                            x       y       z     vdW  Elec       q    Type
REMARK                         _______ _______ _______ _____ _____    ______ ____
ROOT
ATOM      1  C   UNL     1       2.082  -1.707   3.491  0.00  0.00    +0.259 C 
ATOM      2  O   UNL     1       2.093  -0.490   3.536  0.00  0.00    -0.269 OA
ATOM      3  N   UNL     1       2.677  -2.423   4.466  0.00  0.00    -0.279 N 
ATOM      4  H   UNL     1       2.613  -3.390   4.465  0.00  0.00    +0.155 HD
ENDROOT
BRANCH   3   5
ATOM      5  C   UNL     1       3.388  -1.769   5.480  0.00  0.00    +0.072 A 
ATOM      6  C   UNL     1       2.957  -0.535   5.947  0.00  0.00    +0.061 A 
ATOM      7  C   UNL     1       3.660   0.108   6.948  0.00  0.00    +0.163 A 
ATOM      8  C   UNL     1       4.794  -0.477   7.486  0.00  0.00    +0.156 A 
ATOM      9  C   UNL     1       5.227  -1.707   7.023  0.00  0.00    +0.081 A 
ATOM     10  C   UNL     1       4.524  -2.358   6.025  0.00  0.00    +0.147 A 
ATOM     11  F   UNL     1       4.943  -3.562   5.577  0.00  0.00    -0.203 F 
ATOM     12  F   UNL     1       5.479   0.155   8.464  0.00  0.00    -0.203 F 
BRANCH   7  13
ATOM     13  N   UNL     1       3.200   1.424   7.445  0.00  0.00    +0.059 N 
ATOM     14  O   UNL     1       2.210   1.936   6.976  0.00  0.00    -0.126 OA
ATOM     15  O   UNL     1       3.814   1.988   8.321  0.00  0.00    -0.126 OA
ENDBRANCH   7  13
ENDBRANCH   3   5
BRANCH   1  20
ATOM     16  C   UNL     1       0.779  -1.822   1.319  0.00  0.00    +0.140 A 
ATOM     17  C   UNL     1       0.239  -2.675   0.390  0.00  0.00    +0.062 A 
ATOM     18  C   UNL     1       0.372  -4.038   0.581  0.00  0.00    +0.024 A 
ATOM     19  S   UNL     1       1.284  -4.122   2.113  0.00  0.00    -0.080 S 
ATOM     20  C   UNL     1       1.444  -2.370   2.414  0.00  0.00    +0.116 A 
BRANCH  18  21
ATOM     21  C   UNL     1      -0.116  -5.145  -0.269  0.00  0.00    -0.011 A 
ATOM     22  C   UNL     1      -0.813  -4.869  -1.447  0.00  0.00    +0.009 A 
ATOM     23  C   UNL     1      -1.266  -5.907  -2.235  0.00  0.00    +0.001 A 
ATOM     24  C   UNL     1      -1.031  -7.218  -1.861  0.00  0.00    +0.000 A 
ATOM     25  C   UNL     1      -0.341  -7.498  -0.694  0.00  0.00    +0.001 A 
ATOM     26  C   UNL     1       0.122  -6.470   0.100  0.00  0.00    +0.009 A 
ENDBRANCH  18  21
BRANCH  16  27
ATOM     27  O   UNL     1       0.673  -0.476   1.173  0.00  0.00    -0.491 OA
BRANCH  27  29
ATOM     28  C   UNL     1      -0.043   1.528   0.027  0.00  0.00    +0.048 C 
ATOM     29  C   UNL     1      -0.026  -0.002   0.020  0.00  0.00    +0.226 C 
ENDBRANCH  27  29
ENDBRANCH  16  27
ENDBRANCH   1  20
TORSDOF 6
