REMARK  Name = ZINC10650137
REMARK  7 active torsions:
REMARK  status: ('A' for Active; 'I' for Inactive)
REMARK    1  A    between atoms: C_6  and  N_7
REMARK    2  A    between atoms: C_10  and  C_12
REMARK    3  A    between atoms: C_12  and  O_14
REMARK    4  A    between atoms: O_14  and  C_15
REMARK    5  A    between atoms: C_15  and  C_16
REMARK    6  A    between atoms: N_18  and  C_19
REMARK    7  A    between atoms: C_20  and  C_24
REMARK                            x       y       z     vdW  Elec       q    Type
REMARK                         _______ _______ _______ _____ _____    ______ ____
ROOT
ATOM      1  N   UNL     1      -1.164   5.040  -0.162  0.00  0.00    -0.236 N 
ATOM      2  C   UNL     1      -1.021   3.726   0.116  0.00  0.00    +0.049 A 
ATOM      3  C   UNL     1      -1.070   3.060  -1.064  0.00  0.00    +0.008 A 
ATOM      4  C   UNL     1      -1.251   4.041  -2.054  0.00  0.00    +0.173 A 
ATOM      5  N   UNL     1      -1.298   5.208  -1.433  0.00  0.00    -0.159 NA
ATOM      6  C   UNL     1      -0.947   1.568  -1.208  0.00  0.00    +0.039 C 
ATOM      7  C   UNL     1      -0.364   1.005   0.095  0.00  0.00    +0.005 C 
ATOM      8  C   UNL     1      -1.147   1.560   1.288  0.00  0.00    +0.006 C 
ATOM      9  C   UNL     1      -0.842   3.055   1.453  0.00  0.00    +0.056 C 
ENDROOT
BRANCH   1  15
ATOM     10  C   UNL     1      -2.076   7.112   0.683  0.00  0.00    +0.030 A 
ATOM     11  C   UNL     1      -2.080   8.123   1.625  0.00  0.00    +0.040 A 
ATOM     12  C   UNL     1      -1.172   8.100   2.670  0.00  0.00    +0.124 A 
ATOM     13  C   UNL     1      -0.261   7.062   2.775  0.00  0.00    +0.040 A 
ATOM     14  C   UNL     1      -0.257   6.048   1.838  0.00  0.00    +0.030 A 
ATOM     15  C   UNL     1      -1.167   6.069   0.790  0.00  0.00    +0.066 A 
ATOM     16  F   UNL     1      -1.174   9.092   3.588  0.00  0.00    -0.205 F 
ENDBRANCH   1  15
BRANCH   4  17
ATOM     17  C   UNL     1      -1.366   3.813  -3.507  0.00  0.00    +0.360 C 
ATOM     18  O   UNL     1      -1.305   2.684  -3.952  0.00  0.00    -0.243 OA
BRANCH  17  19
ATOM     19  O   UNL     1      -1.538   4.857  -4.342  0.00  0.00    -0.451 OA
BRANCH  19  20
ATOM     20  C   UNL     1      -1.643   4.559  -5.759  0.00  0.00    +0.328 C 
BRANCH  20  21
ATOM     21  C   UNL     1      -1.831   5.840  -6.530  0.00  0.00    +0.255 C 
ATOM     22  O   UNL     1      -1.872   6.900  -5.942  0.00  0.00    -0.272 OA
ATOM     23  N   UNL     1      -1.953   5.807  -7.871  0.00  0.00    -0.276 N 
ATOM     24  H   UNL     1      -1.920   4.959  -8.341  0.00  0.00    +0.155 HD
BRANCH  23  25
ATOM     25  C   UNL     1      -2.126   6.987  -8.581  0.00  0.00    +0.089 A 
ATOM     26  C   UNL     1      -2.263   7.157  -9.953  0.00  0.00    +0.080 A 
ATOM     27  C   UNL     1      -2.434   8.509 -10.427  0.00  0.00    +0.028 A 
ATOM     28  C   UNL     1      -2.437   9.488  -9.503  0.00  0.00    +0.048 A 
ATOM     29  S   UNL     1      -2.215   8.606  -7.972  0.00  0.00    -0.081 S 
BRANCH  26  30
ATOM     30  C   UNL     1      -2.240   6.043 -10.853  0.00  0.00    +0.102 C 
ATOM     31  N   UNL     1      -2.221   5.159 -11.567  0.00  0.00    -0.191 NA
ENDBRANCH  26  30
ENDBRANCH  23  25
ENDBRANCH  20  21
ENDBRANCH  19  20
ENDBRANCH  17  19
ENDBRANCH   4  17
TORSDOF 7
