REMARK  Name = ZINC28721834
REMARK  7 active torsions:
REMARK  status: ('A' for Active; 'I' for Inactive)
REMARK    1  A    between atoms: C_1  and  C_2
REMARK    2  A    between atoms: C_10  and  C_12
REMARK    3  A    between atoms: C_12  and  N_13
REMARK    4  A    between atoms: C_19  and  C_21
REMARK    5  A    between atoms: C_22  and  C_33
REMARK    6  A    between atoms: N_24  and  C_27
REMARK    7  A    between atoms: C_25  and  C_26
REMARK                            x       y       z     vdW  Elec       q    Type
REMARK                         _______ _______ _______ _____ _____    ______ ____
ROOT
ATOM      1  N   UNL     1      -1.166  -3.931   4.711  0.00  0.00    -0.281 NA
ATOM      2  C   UNL     1      -1.274  -4.952   3.657  0.00  0.00    +0.104 C 
ATOM      3  C   UNL     1      -2.707  -5.488   3.637  0.00  0.00    +0.119 C 
ATOM      4  N   UNL     1      -3.117  -5.871   4.985  0.00  0.00    -0.313 N 
ATOM      5  C   UNL     1      -2.488  -5.444   6.085  0.00  0.00    +0.235 C 
ATOM      6  O   UNL     1      -2.913  -5.786   7.168  0.00  0.00    -0.274 OA
ATOM      7  C   UNL     1      -1.276  -4.556   6.035  0.00  0.00    +0.178 C 
ATOM      8  H   UNL     1      -3.879  -6.462   5.087  0.00  0.00    +0.149 HD
ENDROOT
BRANCH   7   9
ATOM      9  C   UNL     1      -1.399  -3.483   7.087  0.00  0.00    +0.022 A 
ATOM     10  C   UNL     1      -2.226  -2.357   7.020  0.00  0.00    +0.066 A 
ATOM     11  N   UNL     1      -2.059  -1.660   8.115  0.00  0.00    -0.171 NA
ATOM     12  N   UNL     1      -1.119  -2.322   8.916  0.00  0.00    -0.236 N 
ATOM     13  C   UNL     1      -0.733  -3.442   8.264  0.00  0.00    +0.047 A 
ATOM     14  C   UNL     1       0.262  -4.460   8.758  0.00  0.00    +0.066 C 
ATOM     15  C   UNL     1      -3.150  -2.005   5.882  0.00  0.00    +0.068 C 
BRANCH  12  16
ATOM     16  C   UNL     1      -0.663  -1.900  10.172  0.00  0.00    +0.066 A 
ATOM     17  C   UNL     1       0.686  -1.989  10.488  0.00  0.00    +0.028 A 
ATOM     18  C   UNL     1       1.133  -1.572  11.727  0.00  0.00    +0.002 A 
ATOM     19  C   UNL     1       0.238  -1.067  12.652  0.00  0.00    +0.000 A 
ATOM     20  C   UNL     1      -1.106  -0.978  12.341  0.00  0.00    +0.002 A 
ATOM     21  C   UNL     1      -1.558  -1.388  11.102  0.00  0.00    +0.028 A 
ENDBRANCH  12  16
ENDBRANCH   7   9
BRANCH   1  22
ATOM     22  C   UNL     1       0.089  -3.178   4.587  0.00  0.00    +0.139 C 
BRANCH  22  32
ATOM     23  C   UNL     1      -0.400   1.665   0.109  0.00  0.00    +0.064 C 
ATOM     24  C   UNL     1      -0.231   0.168   0.066  0.00  0.00    +0.033 A 
ATOM     25  C   UNL     1      -0.141  -0.447  -1.113  0.00  0.00    +0.070 A 
ATOM     26  S   UNL     1       0.043  -2.154  -0.621  0.00  0.00    -0.059 S 
ATOM     27  C   UNL     1      -0.016  -1.896   1.139  0.00  0.00    +0.158 A 
ATOM     28  N   UNL     1      -0.166  -0.539   1.242  0.00  0.00    -0.261 N 
ATOM     29  C   UNL     1      -0.240  -0.029   2.508  0.00  0.00    +0.259 A 
ATOM     30  O   UNL     1      -0.378   1.172   2.675  0.00  0.00    -0.267 OA
ATOM     31  C   UNL     1      -0.158  -0.883   3.608  0.00  0.00    +0.093 A 
ATOM     32  C   UNL     1      -0.002  -2.239   3.412  0.00  0.00    +0.037 A 
ATOM     33  N   UNL     1       0.057  -2.704   2.167  0.00  0.00    -0.337 N 
ATOM     34  H   UNL     1       0.167  -3.656   2.019  0.00  0.00    +0.168 HD
ENDBRANCH  22  32
ENDBRANCH   1  22
TORSDOF 4
