REMARK  Name = ZINC46852983
REMARK  9 active torsions:
REMARK  status: ('A' for Active; 'I' for Inactive)
REMARK    1  A    between atoms: C_1  and  C_2
REMARK    2  A    between atoms: C_2  and  C_4
REMARK    3  A    between atoms: C_2  and  N_18
REMARK    4  A    between atoms: C_4  and  N_5
REMARK    5  A    between atoms: N_8  and  C_9
REMARK    6  A    between atoms: N_8  and  C_10
REMARK    7  A    between atoms: C_10  and  C_11
REMARK    8  A    between atoms: C_16  and  O_17
REMARK    9  A    between atoms: N_21  and  C_24
REMARK                            x       y       z     vdW  Elec       q    Type
REMARK                         _______ _______ _______ _____ _____    ______ ____
ROOT
ATOM      1  C   UNL     1       0.765  -0.539   1.165  0.00  0.00    +0.090 C 
ENDROOT
BRANCH   1   2
ATOM      2  N   UNL     1       0.677  -1.987   1.373  0.00  0.00    -0.301 N 
ATOM      3  C   UNL     1       1.321  -2.559   2.411  0.00  0.00    +0.302 C 
ATOM      4  O   UNL     1       1.974  -1.873   3.174  0.00  0.00    -0.253 OA
ATOM      5  N   UNL     1       1.240  -3.890   2.602  0.00  0.00    -0.284 N 
ATOM      6  C   UNL     1       0.453  -4.716   1.683  0.00  0.00    +0.134 C 
ATOM      7  H   UNL     1       0.157  -2.534   0.765  0.00  0.00    +0.150 HD
BRANCH   5   8
ATOM      8  C   UNL     1       1.939  -4.512   3.730  0.00  0.00    +0.147 C 
BRANCH   8   9
ATOM      9  C   UNL     1       1.030  -4.538   4.932  0.00  0.00    +0.011 A 
ATOM     10  C   UNL     1       1.165  -3.583   5.921  0.00  0.00    +0.009 A 
ATOM     11  C   UNL     1       0.332  -3.607   7.024  0.00  0.00    +0.001 A 
ATOM     12  C   UNL     1      -0.639  -4.585   7.140  0.00  0.00    +0.004 A 
ATOM     13  C   UNL     1      -0.778  -5.542   6.153  0.00  0.00    +0.046 A 
ATOM     14  C   UNL     1       0.053  -5.517   5.043  0.00  0.00    +0.122 A 
BRANCH  14  15
ATOM     15  O   UNL     1      -0.085  -6.454   4.067  0.00  0.00    -0.506 OA
ATOM     16  H   UNL     1       0.448  -7.248   4.207  0.00  0.00    +0.292 HD
ENDBRANCH  14  15
ENDBRANCH   8   9
ENDBRANCH   5   8
ENDBRANCH   1   2
BRANCH   1  18
ATOM     17  C   UNL     1      -0.152   1.390  -0.131  0.00  0.00    -0.012 C 
ATOM     18  C   UNL     1      -0.151  -0.134   0.009  0.00  0.00    -0.054 C 
BRANCH  18  19
ATOM     19  N   UNL     1      -1.517  -0.602   0.279  0.00  0.00    +0.384 N 
ATOM     20  C   UNL     1      -2.363  -0.340  -0.892  0.00  0.00    -0.059 C 
ATOM     21  C   UNL     1      -3.757  -0.930  -0.656  0.00  0.00    +0.086 C 
ATOM     22  N   UNL     1      -4.284  -0.391   0.607  0.00  0.00    -0.333 N 
ATOM     23  C   UNL     1      -3.430  -0.465   1.803  0.00  0.00    +0.086 C 
ATOM     24  C   UNL     1      -2.051   0.103   1.451  0.00  0.00    -0.059 C 
ATOM     25  H   UNL     1      -1.500  -1.594   0.464  0.00  0.00    -0.081 HD
BRANCH  22  26
ATOM     26  C   UNL     1      -5.559   0.175   0.670  0.00  0.00    +0.030 A 
ATOM     27  C   UNL     1      -6.306   0.340  -0.490  0.00  0.00    +0.023 A 
ATOM     28  C   UNL     1      -7.567   0.899  -0.424  0.00  0.00    +0.002 A 
ATOM     29  C   UNL     1      -8.086   1.296   0.794  0.00  0.00    +0.000 A 
ATOM     30  C   UNL     1      -7.346   1.134   1.951  0.00  0.00    +0.002 A 
ATOM     31  C   UNL     1      -6.087   0.570   1.893  0.00  0.00    +0.023 A 
ENDBRANCH  22  26
ENDBRANCH  18  19
ENDBRANCH   1  18
TORSDOF 7
