REMARK  Name = ZINC45950020
REMARK  2 active torsions:
REMARK  status: ('A' for Active; 'I' for Inactive)
REMARK    1  A    between atoms: C_1  and  C_2
REMARK    2  A    between atoms: C_8  and  N_10
REMARK                            x       y       z     vdW  Elec       q    Type
REMARK                         _______ _______ _______ _____ _____    ______ ____
ROOT
ATOM      1  N   UNL     1       0.056  -0.038   2.447  0.00  0.00    -0.257 N 
ATOM      2  C   UNL     1      -1.258  -0.304   2.623  0.00  0.00    +0.271 A 
ATOM      3  O   UNL     1      -1.879  -0.935   1.786  0.00  0.00    -0.266 OA
ATOM      4  C   UNL     1      -1.893   0.156   3.781  0.00  0.00    +0.100 A 
ATOM      5  C   UNL     1      -1.198   0.881   4.753  0.00  0.00    +0.063 A 
ATOM      6  C   UNL     1      -1.984   1.260   5.837  0.00  0.00    +0.034 A 
ATOM      7  C   UNL     1      -3.291   0.917   5.869  0.00  0.00    +0.048 A 
ATOM      8  S   UNL     1      -3.535   0.066   4.440  0.00  0.00    -0.090 S 
ATOM      9  N   UNL     1       0.161   1.116   4.497  0.00  0.00    -0.307 N 
ATOM     10  H   UNL     1       0.691   1.615   5.139  0.00  0.00    +0.170 HD
ATOM     11  C   UNL     1       0.736   0.653   3.377  0.00  0.00    +0.330 A 
ATOM     12  O   UNL     1       1.918   0.873   3.194  0.00  0.00    -0.246 OA
ENDROOT
BRANCH   1  19
ATOM     13  C   UNL     1       0.154   1.618   0.073  0.00  0.00    +0.009 C 
ATOM     14  C   UNL     1       0.073   0.091   0.005  0.00  0.00    +0.009 C 
ATOM     15  C   UNL     1      -1.395  -0.339  -0.042  0.00  0.00    +0.005 C 
ATOM     16  C   UNL     1      -1.477  -1.865  -0.110  0.00  0.00    +0.000 C 
ATOM     17  C   UNL     1      -0.807  -2.468   1.127  0.00  0.00    +0.002 C 
ATOM     18  C   UNL     1       0.660  -2.037   1.173  0.00  0.00    +0.025 C 
ATOM     19  C   UNL     1       0.742  -0.511   1.242  0.00  0.00    +0.098 C 
ENDBRANCH   1  19
TORSDOF 1
