REMARK  Name = ZINC41258830
REMARK  8 active torsions:
REMARK  status: ('A' for Active; 'I' for Inactive)
REMARK    1  A    between atoms: C_1  and  C_2
REMARK    2  A    between atoms: C_5  and  C_8
REMARK    3  A    between atoms: C_8  and  C_10
REMARK    4  A    between atoms: C_8  and  N_12
REMARK    5  A    between atoms: N_15  and  S_18
REMARK    6  A    between atoms: S_18  and  C_21
REMARK    7  A    between atoms: C_24  and  C_28
REMARK    8  A    between atoms: C_25  and  C_27
REMARK                            x       y       z     vdW  Elec       q    Type
REMARK                         _______ _______ _______ _____ _____    ______ ____
ROOT
ATOM      1  N   UNL     1       0.903  -4.865   1.027  0.00  0.00    -0.281 NA
ATOM      2  C   UNL     1       0.329  -4.630   2.358  0.00  0.00    +0.103 C 
ATOM      3  C   UNL     1       1.322  -5.097   3.429  0.00  0.00    +0.125 C 
ATOM      4  N   UNL     1       1.690  -6.493   3.147  0.00  0.00    -0.174 NA
ATOM      5  C   UNL     1       2.144  -6.833   1.790  0.00  0.00    +0.125 C 
ATOM      6  C   UNL     1       1.119  -6.297   0.785  0.00  0.00    +0.103 C 
ENDROOT
BRANCH   4   7
ATOM      7  S   UNL     1       1.594  -7.651   4.327  0.00  0.00    +0.061 S 
ATOM      8  O   UNL     1       2.497  -8.684   3.955  0.00  0.00    -0.153 OA
ATOM      9  O   UNL     1       1.685  -6.971   5.572  0.00  0.00    -0.153 OA
BRANCH   7  10
ATOM     10  C   UNL     1      -0.024  -8.343   4.248  0.00  0.00    +0.106 A 
ATOM     11  C   UNL     1      -1.050  -7.788   4.990  0.00  0.00    +0.029 A 
ATOM     12  C   UNL     1      -2.320  -8.331   4.928  0.00  0.00    +0.005 A 
ATOM     13  C   UNL     1      -2.563  -9.429   4.124  0.00  0.00    -0.047 A 
ATOM     14  C   UNL     1      -1.538  -9.983   3.382  0.00  0.00    -0.046 A 
ATOM     15  C   UNL     1      -0.269  -9.438   3.441  0.00  0.00    +0.032 A 
ATOM     16  C   UNL     1      -1.804 -11.181   2.506  0.00  0.00    +0.044 C 
ATOM     17  C   UNL     1      -3.947 -10.022   4.058  0.00  0.00    +0.044 C 
ENDBRANCH   7  10
ENDBRANCH   4   7
BRANCH   1  18
ATOM     18  C   UNL     1       0.059  -4.275  -0.021  0.00  0.00    +0.191 C 
BRANCH  18  23
ATOM     19  C   UNL     1       2.649  -4.895  -5.150  0.00  0.00    +0.044 C 
ATOM     20  C   UNL     1       1.974  -4.733  -3.813  0.00  0.00    -0.050 A 
ATOM     21  C   UNL     1       2.698  -4.289  -2.722  0.00  0.00    +0.004 A 
ATOM     22  C   UNL     1       2.078  -4.140  -1.495  0.00  0.00    +0.006 A 
ATOM     23  C   UNL     1       0.735  -4.436  -1.359  0.00  0.00    -0.016 A 
ATOM     24  C   UNL     1       0.011  -4.880  -2.450  0.00  0.00    +0.006 A 
ATOM     25  C   UNL     1       0.629  -5.024  -3.678  0.00  0.00    +0.004 A 
ENDBRANCH  18  23
BRANCH  18  26
ATOM     26  C   UNL     1      -0.142  -2.844   0.258  0.00  0.00    +0.086 C 
ATOM     27  N   UNL     1      -0.297  -1.740   0.473  0.00  0.00    -0.195 NA
ENDBRANCH  18  26
ENDBRANCH   1  18
TORSDOF 5
