REMARK  Name = ZINC00201331
REMARK  5 active torsions:
REMARK  status: ('A' for Active; 'I' for Inactive)
REMARK    1  A    between atoms: C_1  and  C_2
REMARK    2  A    between atoms: C_2  and  C_3
REMARK    3  A    between atoms: C_3  and  C_5
REMARK    4  A    between atoms: C_3  and  N_6
REMARK    5  A    between atoms: C_7  and  C_9
REMARK                            x       y       z     vdW  Elec       q    Type
REMARK                         _______ _______ _______ _____ _____    ______ ____
ROOT
ATOM      1  C   UNL     1       4.721   5.227  -0.017  0.00  0.00    +0.075 A 
ATOM      2  C   UNL     1       3.594   5.996  -0.002  0.00  0.00    +0.036 A 
ATOM      3  C   UNL     1       2.348   5.358   0.007  0.00  0.00    +0.075 A 
ATOM      4  C   UNL     1       2.388   3.951   0.000  0.00  0.00    +0.038 A 
ATOM      5  S   UNL     1       4.066   3.568  -0.019  0.00  0.00    -0.083 S 
ATOM      6  C   UNL     1       1.154   3.175   0.008  0.00  0.00    +0.032 A 
ATOM      7  C   UNL     1       1.172   1.778   0.000  0.00  0.00    +0.013 A 
ATOM      8  C   UNL     1      -0.013   1.076   0.008  0.00  0.00    +0.001 A 
ATOM      9  C   UNL     1      -1.224   1.750   0.017  0.00  0.00    +0.004 A 
ATOM     10  C   UNL     1      -1.259   3.128   0.031  0.00  0.00    +0.047 A 
ATOM     11  C   UNL     1      -0.076   3.856   0.024  0.00  0.00    +0.140 A 
ATOM     12  O   UNL     1      -0.104   5.205   0.030  0.00  0.00    -0.422 OA
ATOM     13  C   UNL     1       0.997   5.964   0.024  0.00  0.00    +0.346 A 
ATOM     14  O   UNL     1       0.886   7.176   0.031  0.00  0.00    -0.244 OA
ENDROOT
BRANCH   1  16
ATOM     15  N   UNL     1       7.111   4.739  -0.043  0.00  0.00    -0.308 N 
ATOM     16  C   UNL     1       6.124   5.657  -0.028  0.00  0.00    +0.251 C 
ATOM     17  O   UNL     1       6.396   6.843  -0.025  0.00  0.00    -0.270 OA
ATOM     18  H   UNL     1       6.894   3.794  -0.045  0.00  0.00    +0.149 HD
BRANCH  15  19
ATOM     19  C   UNL     1       8.511   5.170  -0.054  0.00  0.00    +0.070 C 
ATOM     20  C   UNL     1       8.976   5.432   1.380  0.00  0.00    +0.028 C 
BRANCH  19  22
ATOM     21  C   UNL     1       8.995   3.897  -2.149  0.00  0.00    +0.005 C 
ATOM     22  C   UNL     1       9.377   4.073  -0.678  0.00  0.00    +0.018 C 
ENDBRANCH  19  22
ENDBRANCH  15  19
ENDBRANCH   1  16
TORSDOF 3
