REMARK  Name = ZINC11243987
REMARK  7 active torsions:
REMARK  status: ('A' for Active; 'I' for Inactive)
REMARK    1  A    between atoms: C_1  and  C_2
REMARK    2  A    between atoms: C_9  and  C_11
REMARK    3  A    between atoms: C_11  and  O_12
REMARK    4  A    between atoms: O_12  and  C_13
REMARK    5  A    between atoms: C_13  and  C_15
REMARK    6  A    between atoms: N_18  and  S_21
REMARK    7  A    between atoms: S_21  and  C_24
REMARK                            x       y       z     vdW  Elec       q    Type
REMARK                         _______ _______ _______ _____ _____    ______ ____
ROOT
ATOM      1  C   UNL     1       0.112   4.381   9.029  0.00  0.00    +0.100 C 
ATOM      2  C   UNL     1       1.287   3.513   9.485  0.00  0.00    +0.032 C 
ATOM      3  C   UNL     1       2.133   4.297  10.494  0.00  0.00    +0.110 C 
ATOM      4  N   UNL     1       1.263   4.756  11.585  0.00  0.00    -0.177 NA
ATOM      5  C   UNL     1       0.054   5.522  11.250  0.00  0.00    +0.110 C 
ATOM      6  C   UNL     1      -0.768   4.725  10.233  0.00  0.00    +0.032 C 
ENDROOT
BRANCH   4   7
ATOM      7  S   UNL     1       1.636   4.417  13.162  0.00  0.00    +0.061 S 
ATOM      8  O   UNL     1       3.040   4.199  13.209  0.00  0.00    -0.153 OA
ATOM      9  O   UNL     1       0.992   5.405  13.954  0.00  0.00    -0.153 OA
BRANCH   7  10
ATOM     10  C   UNL     1       0.874   2.879  13.559  0.00  0.00    +0.106 A 
ATOM     11  C   UNL     1      -0.407   2.856  14.078  0.00  0.00    +0.030 A 
ATOM     12  C   UNL     1      -1.008   1.649  14.384  0.00  0.00    +0.022 A 
ATOM     13  C   UNL     1      -0.322   0.464  14.181  0.00  0.00    +0.041 A 
ATOM     14  C   UNL     1       0.963   0.488  13.667  0.00  0.00    +0.022 A 
ATOM     15  C   UNL     1       1.560   1.695  13.356  0.00  0.00    +0.030 A 
ATOM     16 CL   UNL     1      -1.073  -1.051  14.572  0.00  0.00    -0.084 Cl
ENDBRANCH   7  10
ENDBRANCH   4   7
BRANCH   1  17
ATOM     17  C   UNL     1      -0.704   3.626   8.010  0.00  0.00    +0.311 C 
ATOM     18  O   UNL     1      -1.868   3.387   8.226  0.00  0.00    -0.251 OA
BRANCH  17  19
ATOM     19  O   UNL     1      -0.136   3.219   6.864  0.00  0.00    -0.455 OA
BRANCH  19  20
ATOM     20  C   UNL     1      -0.981   2.497   5.930  0.00  0.00    +0.327 C 
BRANCH  20  28
ATOM     21  C   UNL     1      -0.013   1.086   0.008  0.00  0.00    +0.009 C 
ATOM     22  C   UNL     1      -0.729   1.579   1.267  0.00  0.00    +0.003 C 
ATOM     23  C   UNL     1      -2.163   1.046   1.280  0.00  0.00    +0.006 C 
ATOM     24  C   UNL     1      -2.891   1.566   2.522  0.00  0.00    +0.019 C 
ATOM     25  C   UNL     1      -2.175   1.059   3.778  0.00  0.00    +0.108 C 
ATOM     26  N   UNL     1      -0.759   1.444   3.703  0.00  0.00    -0.298 N 
ATOM     27  C   UNL     1       0.012   1.072   2.508  0.00  0.00    +0.111 C 
ATOM     28  C   UNL     1      -0.177   2.123   4.711  0.00  0.00    +0.253 C 
ATOM     29  O   UNL     1       0.993   2.435   4.637  0.00  0.00    -0.272 OA
ENDBRANCH  20  28
ENDBRANCH  19  20
ENDBRANCH  17  19
ENDBRANCH   1  17
TORSDOF 6
