REMARK  Name = ZINC64103150
REMARK  6 active torsions:
REMARK  status: ('A' for Active; 'I' for Inactive)
REMARK    1  A    between atoms: C_6  and  C_11
REMARK    2  A    between atoms: C_11  and  N_12
REMARK    3  A    between atoms: C_13  and  C_15
REMARK    4  A    between atoms: C_18  and  C_21
REMARK    5  A    between atoms: C_21  and  O_22
REMARK    6  A    between atoms: O_22  and  C_23
REMARK                            x       y       z     vdW  Elec       q    Type
REMARK                         _______ _______ _______ _____ _____    ______ ____
ROOT
ATOM      1  C   UNL     1       7.250  -3.017  -2.548  0.00  0.00    +0.204 C 
ATOM      2  C   UNL     1       7.619  -1.679  -3.160  0.00  0.00    +0.051 C 
ATOM      3  C   UNL     1       7.947  -1.887  -4.417  0.00  0.00    +0.161 C 
ATOM      4  O   UNL     1       7.849  -3.192  -4.766  0.00  0.00    -0.407 OA
ATOM      5  N   UNL     1       7.809  -3.991  -3.522  0.00  0.00    -0.140 NA
ATOM      6  H   UNL     1       8.735  -4.283  -3.249  0.00  0.00    +0.168 HD
ENDROOT
BRANCH   1   8
ATOM      7  N   UNL     1       5.093  -2.617  -1.405  0.00  0.00    -0.311 N 
ATOM      8  C   UNL     1       5.754  -3.164  -2.445  0.00  0.00    +0.237 C 
ATOM      9  O   UNL     1       5.144  -3.774  -3.297  0.00  0.00    -0.274 OA
ATOM     10  H   UNL     1       5.581  -2.129  -0.723  0.00  0.00    +0.149 HD
BRANCH   7  11
ATOM     11  C   UNL     1       3.639  -2.760  -1.304  0.00  0.00    +0.133 C 
BRANCH  11  17
ATOM     12  C   UNL     1      -0.016   1.348   0.009  0.00  0.00    +0.001 A 
ATOM     13  C   UNL     1       1.166   2.101   0.002  0.00  0.00    +0.002 A 
ATOM     14  C   UNL     1       2.391   1.535  -0.013  0.00  0.00    +0.026 A 
ATOM     15  C   UNL     1       2.529   0.120  -0.022  0.00  0.00    +0.043 A 
ATOM     16  N   UNL     1       3.587  -0.654  -0.037  0.00  0.00    -0.376 N 
ATOM     17  C   UNL     1       3.143  -2.053  -0.041  0.00  0.00    +0.120 C 
ATOM     18  C   UNL     1       1.631  -2.008  -0.025  0.00  0.00    +0.009 C 
ATOM     19  C   UNL     1       1.295  -0.698  -0.014  0.00  0.00    -0.004 A 
ATOM     20  C   UNL     1       0.002  -0.004   0.002  0.00  0.00    +0.010 A 
ATOM     21  H   UNL     1       4.509  -0.353  -0.045  0.00  0.00    +0.160 HD
ENDBRANCH  11  17
ENDBRANCH   7  11
ENDBRANCH   1   8
BRANCH   3  22
ATOM     22  C   UNL     1       8.384  -0.796  -5.362  0.00  0.00    +0.305 C 
BRANCH  22  23
ATOM     23  O   UNL     1       9.744  -1.012  -5.743  0.00  0.00    -0.481 OA
BRANCH  23  24
ATOM     24  C   UNL     1      10.296  -0.110  -6.598  0.00  0.00    +0.156 A 
ATOM     25  C   UNL     1       9.545   0.962  -7.056  0.00  0.00    +0.051 A 
ATOM     26  C   UNL     1      10.107   1.877  -7.925  0.00  0.00    +0.042 A 
ATOM     27  C   UNL     1      11.419   1.725  -8.341  0.00  0.00    +0.126 A 
ATOM     28  C   UNL     1      12.171   0.656  -7.886  0.00  0.00    +0.080 A 
ATOM     29  C   UNL     1      11.614  -0.259  -7.010  0.00  0.00    +0.168 A 
ATOM     30  F   UNL     1      12.349  -1.300  -6.561  0.00  0.00    -0.202 F 
ATOM     31  F   UNL     1      11.966   2.621  -9.191  0.00  0.00    -0.205 F 
ENDBRANCH  23  24
ENDBRANCH  22  23
ENDBRANCH   3  22
TORSDOF 6
