REMARK  Name = ZINC66354696
REMARK  3 active torsions:
REMARK  status: ('A' for Active; 'I' for Inactive)
REMARK    1  A    between atoms: C_1  and  C_2
REMARK    2  A    between atoms: C_2  and  O_3
REMARK    3  A    between atoms: O_3  and  C_4
REMARK                            x       y       z     vdW  Elec       q    Type
REMARK                         _______ _______ _______ _____ _____    ______ ____
ROOT
ATOM      1  C   UNL     1      -1.497  -1.836   0.006  0.00  0.00    +0.403 C 
ATOM      2  O   UNL     1      -0.523  -2.563  -0.007  0.00  0.00    -0.226 OA
ATOM      3  N   UNL     1      -2.735  -2.368   0.015  0.00  0.00    -0.267 N 
ATOM      4  C   UNL     1      -3.901  -1.480   0.025  0.00  0.00    +0.113 C 
ATOM      5  C   UNL     1      -4.949  -1.935  -1.013  0.00  0.00    +0.042 C 
ATOM      6  C   UNL     1      -5.193  -3.406  -0.756  0.00  0.00    +0.081 C 
ATOM      7  C   UNL     1      -3.871  -4.149  -1.099  0.00  0.00    +0.058 C 
ATOM      8  C   UNL     1      -2.895  -3.839   0.009  0.00  0.00    +0.121 C 
ATOM      9  C   UNL     1      -4.343  -5.537  -1.306  0.00  0.00    -0.019 A 
ATOM     10  C   UNL     1      -3.689  -6.751  -1.270  0.00  0.00    +0.025 A 
ATOM     11  C   UNL     1      -4.446  -7.893  -1.506  0.00  0.00    +0.041 A 
ATOM     12  C   UNL     1      -5.800  -7.822  -1.766  0.00  0.00    +0.022 A 
ATOM     13  C   UNL     1      -6.471  -6.609  -1.809  0.00  0.00    +0.024 A 
ATOM     14  C   UNL     1      -5.725  -5.457  -1.578  0.00  0.00    +0.031 A 
ATOM     15  N   UNL     1      -6.147  -4.124  -1.589  0.00  0.00    -0.340 N 
ATOM     16 CL   UNL     1      -3.671  -9.446  -1.471  0.00  0.00    -0.084 Cl
ATOM     17  H   UNL     1      -6.917  -3.758  -2.052  0.00  0.00    +0.146 HD
ENDROOT
BRANCH   1  18
ATOM     18  O   UNL     1      -1.339  -0.499   0.012  0.00  0.00    -0.451 OA
BRANCH  18  20
ATOM     19  C   UNL     1      -0.019   1.526   0.010  0.00  0.00    +0.048 C 
ATOM     20  C   UNL     1       0.002  -0.004   0.002  0.00  0.00    +0.230 C 
ENDBRANCH  18  20
ENDBRANCH   1  18
TORSDOF 2
