REMARK  Name = ZINC23382529
REMARK  10 active torsions:
REMARK  status: ('A' for Active; 'I' for Inactive)
REMARK    1  A    between atoms: C_1  and  C_2
REMARK    2  A    between atoms: C_2  and  C_3
REMARK    3  A    between atoms: C_3  and  C_22
REMARK    4  A    between atoms: N_6  and  C_10
REMARK    5  A    between atoms: C_10  and  N_11
REMARK    6  A    between atoms: N_11  and  C_12
REMARK    7  A    between atoms: N_11  and  C_19
REMARK    8  A    between atoms: C_12  and  C_13
REMARK    9  A    between atoms: C_19  and  C_20
REMARK   10  A    between atoms: C_19  and  C_21
REMARK                            x       y       z     vdW  Elec       q    Type
REMARK                         _______ _______ _______ _____ _____    ______ ____
ROOT
ATOM      1  C   UNL     1      -1.510   1.701  -1.411  0.00  0.00    +0.138 C 
ATOM      2  C   UNL     1      -0.316   0.833  -1.067  0.00  0.00    +0.249 C 
ATOM      3  O   UNL     1      -0.298  -0.374  -0.950  0.00  0.00    -0.272 OA
ATOM      4  N   UNL     1       0.722   1.680  -0.925  0.00  0.00    -0.241 N 
ATOM      5  C   UNL     1       0.353   2.950  -1.125  0.00  0.00    +0.308 C 
ATOM      6  O   UNL     1       1.114   3.895  -1.052  0.00  0.00    -0.252 OA
ATOM      7  N   UNL     1      -0.956   3.066  -1.416  0.00  0.00    -0.281 N 
ATOM      8  H   UNL     1      -1.609   3.924  -1.633  0.00  0.00    +0.152 HD
ENDROOT
BRANCH   1   9
ATOM      9  C   UNL     1      -2.053   1.342  -2.770  0.00  0.00    -0.015 A 
ATOM     10  C   UNL     1      -3.038   0.379  -2.888  0.00  0.00    +0.006 A 
ATOM     11  C   UNL     1      -3.540   0.053  -4.135  0.00  0.00    +0.000 A 
ATOM     12  C   UNL     1      -3.049   0.682  -5.263  0.00  0.00    +0.000 A 
ATOM     13  C   UNL     1      -2.061   1.641  -5.145  0.00  0.00    +0.000 A 
ATOM     14  C   UNL     1      -1.562   1.971  -3.899  0.00  0.00    +0.006 A 
ENDBRANCH   1   9
BRANCH   1  16
ATOM     15  C   UNL     1      -2.073   2.108   0.989  0.00  0.00    +0.007 C 
ATOM     16  C   UNL     1      -2.598   1.568  -0.343  0.00  0.00    +0.037 C 
ENDBRANCH   1  16
BRANCH   4  17
ATOM     17  C   UNL     1       2.086   1.262  -0.593  0.00  0.00    +0.043 C 
BRANCH  17  18
ATOM     18  N   UNL     1       2.893   1.204  -1.820  0.00  0.00    +0.395 N 
ATOM     19  H   UNL     1       2.600   2.051  -2.457  0.00  0.00    -0.079 HD
BRANCH  18  20
ATOM     20  C   UNL     1       4.324   1.340  -1.516  0.00  0.00    -0.072 C 
ATOM     21  C   UNL     1       4.604   2.755  -1.004  0.00  0.00    -0.013 C 
ATOM     22  C   UNL     1       4.716   0.323  -0.443  0.00  0.00    -0.013 C 
ENDBRANCH  18  20
BRANCH  18  23
ATOM     23  C   UNL     1       2.628  -0.035  -2.565  0.00  0.00    -0.040 C 
BRANCH  23  24
ATOM     24  C   UNL     1       3.277   0.048  -3.923  0.00  0.00    -0.064 A 
ATOM     25  C   UNL     1       2.573   0.564  -4.995  0.00  0.00    +0.002 A 
ATOM     26  C   UNL     1       3.170   0.645  -6.239  0.00  0.00    +0.000 A 
ATOM     27  C   UNL     1       4.467   0.200  -6.414  0.00  0.00    +0.000 A 
ATOM     28  C   UNL     1       5.169  -0.321  -5.343  0.00  0.00    +0.000 A 
ATOM     29  C   UNL     1       4.574  -0.397  -4.097  0.00  0.00    +0.002 A 
ENDBRANCH  23  24
ENDBRANCH  18  23
ENDBRANCH  17  18
ENDBRANCH   4  17
TORSDOF 7
