REMARK  Name = ZINC57139627
REMARK  3 active torsions:
REMARK  status: ('A' for Active; 'I' for Inactive)
REMARK    1  A    between atoms: C_3  and  N_11
REMARK    2  A    between atoms: C_4  and  N_8
REMARK    3  A    between atoms: C_15  and  C_18
REMARK                            x       y       z     vdW  Elec       q    Type
REMARK                         _______ _______ _______ _____ _____    ______ ____
ROOT
ATOM      1  N   UNL     1       3.582   2.126  -0.021  0.00  0.00    -0.323 N 
ATOM      2  C   UNL     1       4.217   2.525  -1.287  0.00  0.00    +0.133 C 
ATOM      3  C   UNL     1       4.537   4.022  -1.216  0.00  0.00    +0.179 C 
ATOM      4  O   UNL     1       5.277   4.289  -0.022  0.00  0.00    -0.369 OA
ATOM      5  C   UNL     1       4.566   4.001   1.184  0.00  0.00    +0.165 C 
ATOM      6  C   UNL     1       4.245   2.507   1.236  0.00  0.00    +0.141 C 
ENDROOT
BRANCH   1   9
ATOM      7  C   UNL     1      -0.017   1.378   0.010  0.00  0.00    +0.005 A 
ATOM      8  C   UNL     1       1.169   2.087   0.002  0.00  0.00    +0.025 A 
ATOM      9  C   UNL     1       2.382   1.411  -0.013  0.00  0.00    +0.063 A 
ATOM     10  C   UNL     1       2.400   0.022  -0.021  0.00  0.00    +0.182 A 
ATOM     11  C   UNL     1       1.210  -0.683  -0.013  0.00  0.00    +0.155 A 
ATOM     12  C   UNL     1       0.002  -0.004   0.002  0.00  0.00    +0.041 A 
ATOM     13  F   UNL     1       1.225  -2.034  -0.021  0.00  0.00    -0.203 F 
BRANCH  10  14
ATOM     14  N   UNL     1       3.690  -0.703  -0.037  0.00  0.00    +0.061 N 
ATOM     15  O   UNL     1       4.228  -1.005   1.003  0.00  0.00    -0.126 OA
ATOM     16  O   UNL     1       4.207  -0.993  -1.091  0.00  0.00    -0.126 OA
ENDBRANCH  10  14
ENDBRANCH   1   9
BRANCH   5  17
ATOM     17  C   UNL     1       5.415   4.377   2.371  0.00  0.00    -0.017 A 
ATOM     18  C   UNL     1       6.787   4.220   2.317  0.00  0.00    +0.007 A 
ATOM     19  C   UNL     1       7.567   4.565   3.405  0.00  0.00    +0.020 A 
ATOM     20  C   UNL     1       6.973   5.068   4.549  0.00  0.00    +0.041 A 
ATOM     21  C   UNL     1       5.599   5.225   4.603  0.00  0.00    +0.020 A 
ATOM     22  C   UNL     1       4.822   4.885   3.512  0.00  0.00    +0.007 A 
ATOM     23 CL   UNL     1       7.950   5.501   5.916  0.00  0.00    -0.084 Cl
ENDBRANCH   5  17
TORSDOF 3
