REMARK  Name = ZINC11614655
REMARK  10 active torsions:
REMARK  status: ('A' for Active; 'I' for Inactive)
REMARK    1  A    between atoms: C_1  and  C_2
REMARK    2  A    between atoms: C_2  and  C_3
REMARK    3  A    between atoms: C_2  and  O_4
REMARK    4  A    between atoms: O_4  and  C_5
REMARK    5  A    between atoms: C_8  and  C_11
REMARK    6  A    between atoms: N_26  and  C_27
REMARK    7  A    between atoms: C_27  and  C_28
REMARK    8  A    between atoms: C_28  and  N_56
REMARK    9  A    between atoms: C_29  and  N_56
REMARK   10  A    between atoms: C_30  and  N_56
REMARK                            x       y       z     vdW  Elec       q    Type
REMARK                         _______ _______ _______ _____ _____    ______ ____
ROOT
ATOM      1  C   UNL     1       2.668   1.612  -0.013  0.00  0.00    +0.144 C 
ATOM      2  C   UNL     1       1.294   2.214   0.125  0.00  0.00    +0.072 A 
ATOM      3  C   UNL     1      -0.037   1.623   0.289  0.00  0.00    +0.199 A 
ATOM      4  O   UNL     1      -0.199   0.417   0.340  0.00  0.00    -0.287 OA
ATOM      5  C   UNL     1      -1.171   2.563   0.384  0.00  0.00    +0.066 A 
ATOM      6  C   UNL     1      -2.481   2.108   0.536  0.00  0.00    +0.035 A 
ATOM      7  C   UNL     1      -3.511   3.020   0.620  0.00  0.00    +0.042 A 
ATOM      8  C   UNL     1      -3.244   4.382   0.554  0.00  0.00    +0.023 A 
ATOM      9  C   UNL     1      -1.953   4.843   0.418  0.00  0.00    +0.048 A 
ATOM     10  C   UNL     1      -0.898   3.940   0.325  0.00  0.00    +0.140 A 
ATOM     11  O   UNL     1       0.365   4.378   0.171  0.00  0.00    -0.450 OA
ATOM     12  C   UNL     1       1.433   3.562   0.073  0.00  0.00    +0.199 A 
ATOM     13  C   UNL     1       2.873   3.877  -0.096  0.00  0.00    +0.283 C 
ATOM     14  O   UNL     1       3.334   4.998  -0.178  0.00  0.00    -0.267 OA
ATOM     15  N   UNL     1       3.594   2.744  -0.146  0.00  0.00    -0.285 N 
ATOM     16 CL   UNL     1      -5.145   2.465   0.808  0.00  0.00    -0.084 Cl
ENDROOT
BRANCH   1  20
ATOM     17  C   UNL     1       3.630  -0.672   3.468  0.00  0.00    +0.121 A 
ATOM     18  C   UNL     1       3.216  -1.313   2.309  0.00  0.00    +0.046 A 
ATOM     19  C   UNL     1       2.906  -0.572   1.185  0.00  0.00    +0.009 A 
ATOM     20  C   UNL     1       3.007   0.807   1.215  0.00  0.00    -0.022 A 
ATOM     21  C   UNL     1       3.425   1.447   2.367  0.00  0.00    +0.009 A 
ATOM     22  C   UNL     1       3.730   0.711   3.496  0.00  0.00    +0.046 A 
BRANCH  17  23
ATOM     23  O   UNL     1       3.936  -1.399   4.575  0.00  0.00    -0.489 OA
BRANCH  23  25
ATOM     24  C   UNL     1       4.846  -3.440   5.496  0.00  0.00    +0.051 C 
ATOM     25  C   UNL     1       3.927  -2.821   4.440  0.00  0.00    +0.167 C 
ATOM     26  C   UNL     1       2.502  -3.343   4.636  0.00  0.00    +0.051 C 
ENDBRANCH  23  25
ENDBRANCH  17  23
ENDBRANCH   1  20
BRANCH  15  27
ATOM     27  C   UNL     1       5.048   2.654  -0.306  0.00  0.00    +0.090 C 
BRANCH  27  28
ATOM     28  C   UNL     1       5.714   2.661   1.071  0.00  0.00    -0.060 C 
BRANCH  28  31
ATOM     29  C   UNL     1       7.705   3.774   0.258  0.00  0.00    -0.097 C 
ATOM     30  C   UNL     1       7.830   2.337   2.203  0.00  0.00    -0.097 C 
ATOM     31  N   UNL     1       7.177   2.548   0.893  0.00  0.00    +0.377 N 
ATOM     32  H   UNL     1       7.378   1.745   0.287  0.00  0.00    -0.083 HD
ENDBRANCH  28  31
ENDBRANCH  27  28
ENDBRANCH  15  27
TORSDOF 6
