REMARK  Name = ZINC00135363
REMARK  1 active torsions:
REMARK  status: ('A' for Active; 'I' for Inactive)
REMARK    1  A    between atoms: C_4  and  N_7
REMARK                            x       y       z     vdW  Elec       q    Type
REMARK                         _______ _______ _______ _____ _____    ______ ____
ROOT
ATOM      1  N   UNL     1       3.585   2.124  -0.021  0.00  0.00    -0.237 N 
ATOM      2  C   UNL     1       3.538   3.508  -0.120  0.00  0.00    +0.052 A 
ATOM      3  C   UNL     1       2.333   4.188  -0.018  0.00  0.00    +0.024 A 
ATOM      4  C   UNL     1       2.308   5.565  -0.109  0.00  0.00    +0.002 A 
ATOM      5  C   UNL     1       3.478   6.284  -0.301  0.00  0.00    +0.001 A 
ATOM      6  C   UNL     1       4.687   5.629  -0.409  0.00  0.00    +0.013 A 
ATOM      7  C   UNL     1       4.723   4.238  -0.324  0.00  0.00    +0.043 A 
ATOM      8  C   UNL     1       5.989   3.495  -0.449  0.00  0.00    +0.210 C 
ATOM      9  O   UNL     1       6.928   3.942  -1.072  0.00  0.00    -0.288 OA
ATOM     10  C   UNL     1       6.062   2.146   0.238  0.00  0.00    +0.256 C 
ATOM     11  C   UNL     1       4.738   1.446   0.072  0.00  0.00    +0.268 C 
ATOM     12  O   UNL     1       4.715   0.235   0.017  0.00  0.00    -0.271 OA
ATOM     13 CL   UNL     1       7.371   1.156  -0.510  0.00  0.00    -0.082 Cl
ATOM     14 CL   UNL     1       6.402   2.378   1.993  0.00  0.00    -0.082 Cl
ENDROOT
BRANCH   1  18
ATOM     15  C   UNL     1       0.002  -0.003   0.003  0.00  0.00    +0.000 A 
ATOM     16  C   UNL     1       0.590   0.371   1.197  0.00  0.00    +0.002 A 
ATOM     17  C   UNL     1       1.778   1.076   1.192  0.00  0.00    +0.024 A 
ATOM     18  C   UNL     1       2.381   1.409  -0.013  0.00  0.00    +0.041 A 
ATOM     19  C   UNL     1       1.788   1.031  -1.211  0.00  0.00    +0.024 A 
ATOM     20  C   UNL     1       0.600   0.326  -1.199  0.00  0.00    +0.002 A 
ENDBRANCH   1  18
TORSDOF 1
