REMARK  Name = ZINC50016265
REMARK  4 active torsions:
REMARK  status: ('A' for Active; 'I' for Inactive)
REMARK    1  A    between atoms: C_1  and  C_2
REMARK    2  A    between atoms: C_2  and  C_4
REMARK    3  A    between atoms: C_7  and  C_9
REMARK    4  A    between atoms: C_14  and  N_15
REMARK                            x       y       z     vdW  Elec       q    Type
REMARK                         _______ _______ _______ _____ _____    ______ ____
ROOT
ATOM      1  C   UNL     1       1.072  -1.762   4.612  0.00  0.00    +0.071 A 
ATOM      2  C   UNL     1      -0.190  -2.010   5.155  0.00  0.00    +0.056 A 
ATOM      3  C   UNL     1      -0.312  -2.804   6.278  0.00  0.00    +0.159 A 
ATOM      4  C   UNL     1       0.819  -3.354   6.866  0.00  0.00    +0.161 A 
ATOM      5  C   UNL     1       2.072  -3.111   6.330  0.00  0.00    +0.074 A 
ATOM      6  C   UNL     1       2.203  -2.324   5.204  0.00  0.00    +0.141 A 
ATOM      7  F   UNL     1       0.696  -4.130   7.965  0.00  0.00    -0.202 F 
ATOM      8  F   UNL     1      -1.532  -3.045   6.805  0.00  0.00    -0.202 F 
ENDROOT
BRANCH   1  12
ATOM      9  C   UNL     1       1.012  -0.107   1.420  0.00  0.00    +0.235 A 
ATOM     10  N   UNL     1       1.814   0.650   2.114  0.00  0.00    -0.111 NA
ATOM     11  N   UNL     1       1.935   0.174   3.303  0.00  0.00    -0.107 NA
ATOM     12  C   UNL     1       1.208  -0.913   3.410  0.00  0.00    +0.251 A 
ATOM     13  O   UNL     1       0.605  -1.109   2.220  0.00  0.00    -0.419 OA
BRANCH   9  15
ATOM     14  C   UNL     1      -0.396   1.255  -0.099  0.00  0.00    +0.034 C 
ATOM     15  C   UNL     1       0.608   0.104  -0.016  0.00  0.00    +0.165 C 
ATOM     16 CL   UNL     1       2.066   0.507  -0.997  0.00  0.00    -0.112 Cl
ENDBRANCH   9  15
ENDBRANCH   1  12
BRANCH   6  17
ATOM     17  N   UNL     1       3.544  -2.070   4.630  0.00  0.00    +0.057 N 
ATOM     18  O   UNL     1       4.533  -2.454   5.210  0.00  0.00    -0.126 OA
ATOM     19  O   UNL     1       3.650  -1.479   3.580  0.00  0.00    -0.126 OA
ENDBRANCH   6  17
TORSDOF 3
