REMARK  Name = ZINC12374327
REMARK  5 active torsions:
REMARK  status: ('A' for Active; 'I' for Inactive)
REMARK    1  A    between atoms: C_4  and  O_25
REMARK    2  A    between atoms: C_5  and  C_7
REMARK    3  A    between atoms: N_8  and  C_9
REMARK    4  A    between atoms: C_10  and  C_18
REMARK    5  A    between atoms: C_23  and  O_24
REMARK                            x       y       z     vdW  Elec       q    Type
REMARK                         _______ _______ _______ _____ _____    ______ ____
ROOT
ATOM      1  C   UNL     1       2.424  -4.134  -0.047  0.00  0.00    +0.165 A 
ATOM      2  C   UNL     1       2.445  -4.976   1.065  0.00  0.00    +0.119 A 
ATOM      3  N   UNL     1       2.467  -6.239   0.624  0.00  0.00    -0.225 NA
ATOM      4  C   UNL     1       2.462  -6.248  -0.703  0.00  0.00    +0.140 A 
ATOM      5  N   UNL     1       2.429  -4.952  -1.155  0.00  0.00    -0.284 N 
ATOM      6  C   UNL     1       2.411  -4.685  -2.493  0.00  0.00    +0.095 A 
ATOM      7  C   UNL     1       2.421  -5.689  -3.395  0.00  0.00    +0.018 A 
ATOM      8  C   UNL     1       2.451  -7.026  -2.965  0.00  0.00    +0.005 A 
ATOM      9  C   UNL     1       2.478  -7.306  -1.634  0.00  0.00    +0.047 A 
ENDROOT
BRANCH   2  10
ATOM     10  C   UNL     1       2.444  -4.548   2.482  0.00  0.00    +0.045 A 
ATOM     11  C   UNL     1       2.414  -3.191   2.804  0.00  0.00    +0.014 A 
ATOM     12  C   UNL     1       2.413  -2.798   4.126  0.00  0.00    +0.001 A 
ATOM     13  C   UNL     1       2.442  -3.745   5.135  0.00  0.00    +0.004 A 
ATOM     14  C   UNL     1       2.472  -5.092   4.828  0.00  0.00    +0.046 A 
ATOM     15  C   UNL     1       2.467  -5.502   3.505  0.00  0.00    +0.126 A 
BRANCH  15  16
ATOM     16  O   UNL     1       2.490  -6.826   3.201  0.00  0.00    -0.506 OA
ATOM     17  H   UNL     1       3.380  -7.193   3.109  0.00  0.00    +0.292 HD
ENDBRANCH  15  16
ENDBRANCH   2  10
BRANCH   1  19
ATOM     18  C   UNL     1       1.253  -2.153  -0.023  0.00  0.00    +0.124 C 
ATOM     19  N   UNL     1       2.398  -2.785  -0.038  0.00  0.00    -0.235 NA
BRANCH  18  24
ATOM     20  C   UNL     1      -0.017   1.374   0.010  0.00  0.00    +0.001 A 
ATOM     21  C   UNL     1       1.170   2.089   0.002  0.00  0.00    +0.004 A 
ATOM     22  C   UNL     1       2.384   1.430  -0.013  0.00  0.00    +0.046 A 
ATOM     23  C   UNL     1       2.424   0.045  -0.021  0.00  0.00    +0.125 A 
ATOM     24  C   UNL     1       1.225  -0.684  -0.014  0.00  0.00    +0.035 A 
ATOM     25  C   UNL     1       0.002  -0.004   0.002  0.00  0.00    +0.013 A 
BRANCH  23  26
ATOM     26  O   UNL     1       3.617  -0.603  -0.037  0.00  0.00    -0.506 OA
ATOM     27  H   UNL     1       3.971  -0.796   0.842  0.00  0.00    +0.292 HD
ENDBRANCH  23  26
ENDBRANCH  18  24
ENDBRANCH   1  19
TORSDOF 5
