REMARK  Name = ZINC35385921
REMARK  7 active torsions:
REMARK  status: ('A' for Active; 'I' for Inactive)
REMARK    1  A    between atoms: C_1  and  C_2
REMARK    2  A    between atoms: C_5  and  N_8
REMARK    3  A    between atoms: C_10  and  C_15
REMARK    4  A    between atoms: C_15  and  O_17
REMARK    5  A    between atoms: O_17  and  C_18
REMARK    6  A    between atoms: C_21  and  N_24
REMARK    7  A    between atoms: C_31  and  C_38
REMARK                            x       y       z     vdW  Elec       q    Type
REMARK                         _______ _______ _______ _____ _____    ______ ____
ROOT
ATOM      1  C   UNL     1       0.930  -9.771   1.871  0.00  0.00    +0.132 A 
ATOM      2  C   UNL     1       1.771  -9.351   2.892  0.00  0.00    +0.048 A 
ATOM      3  C   UNL     1       2.486 -10.279   3.624  0.00  0.00    +0.027 A 
ATOM      4  C   UNL     1       2.362 -11.632   3.339  0.00  0.00    +0.044 A 
ATOM      5  C   UNL     1       1.520 -12.051   2.318  0.00  0.00    +0.027 A 
ATOM      6  C   UNL     1       0.802 -11.123   1.590  0.00  0.00    +0.048 A 
ENDROOT
BRANCH   4   7
ATOM      7  N   UNL     1       3.088 -12.575   4.082  0.00  0.00    -0.210 N 
ATOM      8  C   UNL     1       3.927 -12.238   5.099  0.00  0.00    +0.230 C 
ATOM      9  O   UNL     1       4.014 -11.160   5.647  0.00  0.00    -0.275 OA
ATOM     10  C   UNL     1       4.720 -13.469   5.403  0.00  0.00    +0.088 C 
ATOM     11  C   UNL     1       5.159 -13.745   6.821  0.00  0.00    +0.014 C 
ATOM     12  C   UNL     1       5.894 -15.098   6.801  0.00  0.00    +0.004 C 
ATOM     13  C   UNL     1       5.027 -16.215   6.230  0.00  0.00    -0.013 C 
ATOM     14  C   UNL     1       4.453 -15.845   4.847  0.00  0.00    +0.016 C 
ATOM     15  C   UNL     1       3.675 -14.564   5.035  0.00  0.00    +0.088 C 
ATOM     16  C   UNL     1       3.017 -13.915   3.860  0.00  0.00    +0.230 C 
ATOM     17  O   UNL     1       2.523 -14.471   2.903  0.00  0.00    -0.275 OA
ATOM     18  C   UNL     1       5.873 -17.483   6.094  0.00  0.00    +0.007 C 
ENDBRANCH   4   7
BRANCH   1  19
ATOM     19  O   UNL     1       0.227  -8.857   1.151  0.00  0.00    -0.426 OA
BRANCH  19  20
ATOM     20  C   UNL     1       0.888  -8.136   0.231  0.00  0.00    +0.317 C 
ATOM     21  O   UNL     1       2.050  -8.372  -0.001  0.00  0.00    -0.250 OA
BRANCH  20  24
ATOM     22  N   UNL     1       0.302  -6.017  -2.680  0.00  0.00    -0.271 N 
ATOM     23  C   UNL     1       1.132  -6.343  -1.514  0.00  0.00    +0.128 C 
ATOM     24  C   UNL     1       0.180  -7.032  -0.511  0.00  0.00    +0.125 C 
ATOM     25  C   UNL     1      -0.907  -7.604  -1.450  0.00  0.00    +0.112 C 
ATOM     26  C   UNL     1      -0.849  -6.711  -2.670  0.00  0.00    +0.221 C 
ATOM     27  O   UNL     1      -1.714  -6.634  -3.516  0.00  0.00    -0.275 OA
BRANCH  22  32
ATOM     28  C   UNL     1       1.754  -2.288  -6.702  0.00  0.00    +0.044 C 
ATOM     29  C   UNL     1       1.369  -3.279  -5.633  0.00  0.00    -0.050 A 
ATOM     30  C   UNL     1       0.217  -4.031  -5.774  0.00  0.00    +0.005 A 
ATOM     31  C   UNL     1      -0.140  -4.939  -4.796  0.00  0.00    +0.024 A 
ATOM     32  C   UNL     1       0.660  -5.097  -3.672  0.00  0.00    +0.036 A 
ATOM     33  C   UNL     1       1.817  -4.341  -3.535  0.00  0.00    +0.024 A 
ATOM     34  C   UNL     1       2.170  -3.438  -4.518  0.00  0.00    +0.005 A 
ENDBRANCH  22  32
ENDBRANCH  20  24
ENDBRANCH  19  20
ENDBRANCH   1  19
TORSDOF 5
