REMARK  Name = ZINC38818384
REMARK  3 active torsions:
REMARK  status: ('A' for Active; 'I' for Inactive)
REMARK    1  A    between atoms: C_4  and  C_8
REMARK    2  A    between atoms: N_9  and  N_10
REMARK    3  A    between atoms: N_10  and  C_11
REMARK                            x       y       z     vdW  Elec       q    Type
REMARK                         _______ _______ _______ _____ _____    ______ ____
ROOT
ATOM      1  C   UNL     1       3.693  -0.683  -0.032  0.00  0.00    +0.142 C 
ATOM      2  N   UNL     1       3.718  -1.980   0.053  0.00  0.00    -0.190 NA
ENDROOT
BRANCH   1   6
ATOM      3  C   UNL     1      -0.010   1.387   0.128  0.00  0.00    +0.004 A 
ATOM      4  C   UNL     1       0.344   0.531   1.155  0.00  0.00    +0.039 A 
ATOM      5  C   UNL     1       1.547  -0.146   1.112  0.00  0.00    +0.133 A 
ATOM      6  C   UNL     1       2.408   0.035   0.023  0.00  0.00    +0.048 A 
ATOM      7  C   UNL     1       2.042   0.902  -1.011  0.00  0.00    +0.052 A 
ATOM      8  C   UNL     1       0.836   1.571  -0.952  0.00  0.00    +0.021 A 
ATOM      9 CL   UNL     1       3.101   1.136  -2.367  0.00  0.00    -0.083 Cl
ATOM     10  F   UNL     1       1.892  -0.981   2.117  0.00  0.00    -0.205 F 
ENDBRANCH   1   6
BRANCH   2  11
ATOM     11  N   UNL     1       2.518  -2.704   0.061  0.00  0.00    -0.238 N 
ATOM     12  H   UNL     1       1.674  -2.245  -0.073  0.00  0.00    +0.174 HD
BRANCH  11  13
ATOM     13  C   UNL     1       2.537  -4.040   0.257  0.00  0.00    +0.072 C 
ATOM     14  C   UNL     1       3.718  -4.730   0.459  0.00  0.00    +0.154 C 
ATOM     15  N   UNL     1       3.727  -6.034   0.649  0.00  0.00    -0.164 NA
ATOM     16  N   UNL     1       2.705  -6.798   0.673  0.00  0.00    -0.079 NA
ATOM     17  C   UNL     1       1.452  -6.355   0.502  0.00  0.00    +0.277 C 
ATOM     18  O   UNL     1       0.505  -7.115   0.532  0.00  0.00    -0.270 OA
ATOM     19  C   UNL     1       1.261  -4.866   0.275  0.00  0.00    +0.216 C 
ATOM     20 CL   UNL     1       0.421  -4.643  -1.305  0.00  0.00    -0.105 Cl
ENDBRANCH  11  13
ENDBRANCH   2  11
TORSDOF 3
