REMARK  Name = ZINC07005311
REMARK  2 active torsions:
REMARK  status: ('A' for Active; 'I' for Inactive)
REMARK    1  A    between atoms: N_9  and  C_12
REMARK    2  A    between atoms: C_12  and  C_13
REMARK                            x       y       z     vdW  Elec       q    Type
REMARK                         _______ _______ _______ _____ _____    ______ ____
ROOT
ATOM      1  C   UNL     1       3.671   2.189  -0.023  0.00  0.00    +0.165 C 
ENDROOT
BRANCH   1  10
ATOM      2  C   UNL     1       6.841   0.576  -5.042  0.00  0.00    +0.001 A 
ATOM      3  C   UNL     1       6.426   1.656  -5.810  0.00  0.00    +0.002 A 
ATOM      4  C   UNL     1       5.571   2.602  -5.292  0.00  0.00    +0.028 A 
ATOM      5  C   UNL     1       5.112   2.475  -3.979  0.00  0.00    +0.078 A 
ATOM      6  C   UNL     1       5.536   1.375  -3.201  0.00  0.00    +0.065 A 
ATOM      7  C   UNL     1       6.403   0.429  -3.744  0.00  0.00    +0.015 A 
ATOM      8  C   UNL     1       5.041   1.275  -1.820  0.00  0.00    +0.262 A 
ATOM      9  O   UNL     1       5.372   0.355  -1.095  0.00  0.00    -0.267 OA
ATOM     10  N   UNL     1       4.199   2.243  -1.388  0.00  0.00    -0.294 N 
ATOM     11  C   UNL     1       3.843   3.266  -2.208  0.00  0.00    +0.203 A 
ATOM     12  N   UNL     1       4.269   3.384  -3.429  0.00  0.00    -0.237 NA
ENDBRANCH   1  10
BRANCH   1  13
ATOM     13  C   UNL     1       2.377   1.416  -0.014  0.00  0.00    +0.016 A 
ATOM     14  C   UNL     1       1.171   2.089   0.002  0.00  0.00    +0.029 A 
ATOM     15  C   UNL     1      -0.017   1.379   0.010  0.00  0.00    +0.042 A 
ATOM     16  C   UNL     1       0.002  -0.004   0.002  0.00  0.00    +0.029 A 
ATOM     17  C   UNL     1       1.207  -0.681  -0.013  0.00  0.00    +0.022 A 
ATOM     18  C   UNL     1       2.398   0.028  -0.024  0.00  0.00    +0.134 A 
ATOM     19  O   UNL     1       3.591  -0.625  -0.047  0.00  0.00    -0.465 OA
ATOM     20  C   UNL     1       3.576  -2.010   0.310  0.00  0.00    +0.394 C 
ATOM     21  O   UNL     1       2.512  -2.654  -0.402  0.00  0.00    -0.339 OA
ATOM     22  C   UNL     1       1.216  -2.188  -0.014  0.00  0.00    +0.202 C 
ATOM     23 CL   UNL     1      -1.532   2.226   0.021  0.00  0.00    -0.084 Cl
ENDBRANCH   1  13
TORSDOF 2
