REMARK  Name = ZINC62104994
REMARK  3 active torsions:
REMARK  status: ('A' for Active; 'I' for Inactive)
REMARK    1  A    between atoms: C_1  and  C_2
REMARK    2  A    between atoms: C_2  and  C_3
REMARK    3  A    between atoms: C_10  and  C_12
REMARK                            x       y       z     vdW  Elec       q    Type
REMARK                         _______ _______ _______ _____ _____    ______ ____
ROOT
ATOM      1  C   UNL     1       0.778  -0.753  -1.105  0.00  0.00    +0.076 C 
ATOM      2  C   UNL     1       0.529  -2.240  -0.836  0.00  0.00    +0.022 C 
ATOM      3  C   UNL     1       1.432  -3.077  -1.745  0.00  0.00    +0.003 C 
ATOM      4  C   UNL     1       2.898  -2.769  -1.434  0.00  0.00    +0.019 C 
ATOM      5  C   UNL     1       3.174  -1.288  -1.710  0.00  0.00    +0.108 C 
ATOM      6  N   UNL     1       2.213  -0.475  -0.951  0.00  0.00    -0.293 N 
ATOM      7  C   UNL     1       2.638   0.503  -0.128  0.00  0.00    +0.267 C 
ATOM      8  O   UNL     1       1.847   1.077   0.595  0.00  0.00    -0.268 OA
ENDROOT
BRANCH   7   9
ATOM      9  C   UNL     1       4.067   0.878  -0.103  0.00  0.00    +0.150 A 
ATOM     10  C   UNL     1       4.682   1.784   0.777  0.00  0.00    +0.005 A 
ATOM     11  C   UNL     1       5.991   1.812   0.428  0.00  0.00    +0.040 A 
ATOM     12  N   UNL     1       6.146   0.966  -0.604  0.00  0.00    -0.281 N 
ATOM     13  H   UNL     1       6.986   0.786  -1.054  0.00  0.00    +0.189 HD
ATOM     14  N   UNL     1       5.017   0.422  -0.902  0.00  0.00    -0.169 NA
ATOM     15  C   UNL     1       7.026   2.665   1.116  0.00  0.00    +0.055 C 
ATOM     16  C   UNL     1       6.299   3.743   1.930  0.00  0.00    +0.006 C 
ATOM     17  C   UNL     1       5.216   3.092   2.794  0.00  0.00    +0.005 C 
ATOM     18  C   UNL     1       4.078   2.588   1.896  0.00  0.00    +0.039 C 
ENDBRANCH   7   9
BRANCH   1  20
ATOM     19  C   UNL     1      -1.514  -0.142  -0.321  0.00  0.00    +0.006 C 
ATOM     20  C   UNL     1      -0.017   0.089  -0.105  0.00  0.00    +0.019 C 
ENDBRANCH   1  20
TORSDOF 2
