REMARK  Name = ZINC12871315
REMARK  7 active torsions:
REMARK  status: ('A' for Active; 'I' for Inactive)
REMARK    1  A    between atoms: C_1  and  C_2
REMARK    2  A    between atoms: C_2  and  C_3
REMARK    3  A    between atoms: C_3  and  N_4
REMARK    4  A    between atoms: N_11  and  C_14
REMARK    5  A    between atoms: C_14  and  C_15
REMARK    6  A    between atoms: N_20  and  S_23
REMARK    7  A    between atoms: S_23  and  C_26
REMARK                            x       y       z     vdW  Elec       q    Type
REMARK                         _______ _______ _______ _____ _____    ______ ____
ROOT
ATOM      1  C   UNL     1       3.166  -5.559  -1.573  0.00  0.00    +0.236 C 
ATOM      2  O   UNL     1       3.188  -4.932  -2.611  0.00  0.00    -0.274 OA
ATOM      3  N   UNL     1       4.012  -6.592  -1.392  0.00  0.00    -0.297 N 
ATOM      4  C   UNL     1       4.001  -7.357  -0.137  0.00  0.00    +0.125 C 
ATOM      5  C   UNL     1       3.793  -8.842  -0.475  0.00  0.00    +0.128 C 
ATOM      6  N   UNL     1       4.748  -9.221  -1.527  0.00  0.00    -0.174 NA
ATOM      7  C   UNL     1       4.763  -8.453  -2.779  0.00  0.00    +0.128 C 
ATOM      8  C   UNL     1       4.967  -6.970  -2.443  0.00  0.00    +0.125 C 
ENDROOT
BRANCH   6   9
ATOM      9  S   UNL     1       5.788 -10.490  -1.303  0.00  0.00    +0.061 S 
ATOM     10  O   UNL     1       5.193 -11.337  -0.330  0.00  0.00    -0.153 OA
ATOM     11  O   UNL     1       6.148 -10.953  -2.598  0.00  0.00    -0.153 OA
BRANCH   9  12
ATOM     12  C   UNL     1       7.255  -9.839  -0.576  0.00  0.00    +0.106 A 
ATOM     13  C   UNL     1       8.292  -9.404  -1.381  0.00  0.00    +0.030 A 
ATOM     14  C   UNL     1       9.440  -8.889  -0.810  0.00  0.00    +0.022 A 
ATOM     15  C   UNL     1       9.557  -8.818   0.566  0.00  0.00    +0.041 A 
ATOM     16  C   UNL     1       8.522  -9.258   1.371  0.00  0.00    +0.022 A 
ATOM     17  C   UNL     1       7.371  -9.768   0.800  0.00  0.00    +0.030 A 
ATOM     18 CL   UNL     1      11.002  -8.176   1.283  0.00  0.00    -0.084 Cl
ENDBRANCH   9  12
ENDBRANCH   6   9
BRANCH   1  19
ATOM     19  C   UNL     1       2.193  -5.182  -0.486  0.00  0.00    +0.222 C 
BRANCH  19  27
ATOM     20  N   UNL     1       0.738  -1.962  -1.265  0.00  0.00    -0.292 N 
ATOM     21  C   UNL     1      -0.234  -2.788  -1.825  0.00  0.00    +0.070 A 
ATOM     22  C   UNL     1      -1.423  -2.539  -2.493  0.00  0.00    +0.028 A 
ATOM     23  C   UNL     1      -2.193  -3.594  -2.942  0.00  0.00    +0.002 A 
ATOM     24  C   UNL     1      -1.782  -4.899  -2.728  0.00  0.00    +0.002 A 
ATOM     25  C   UNL     1      -0.600  -5.156  -2.063  0.00  0.00    +0.028 A 
ATOM     26  C   UNL     1       0.180  -4.103  -1.608  0.00  0.00    +0.070 A 
ATOM     27  N   UNL     1       1.391  -4.037  -0.923  0.00  0.00    -0.283 N 
ATOM     28  C   UNL     1       1.702  -2.740  -0.737  0.00  0.00    +0.331 A 
ATOM     29  O   UNL     1       2.701  -2.333  -0.175  0.00  0.00    -0.246 OA
BRANCH  20  30
ATOM     30  C   UNL     1       0.718  -0.497  -1.257  0.00  0.00    +0.127 C 
BRANCH  30  32
ATOM     31  C   UNL     1      -0.019   1.526   0.010  0.00  0.00    +0.005 C 
ATOM     32  C   UNL     1       0.002  -0.004   0.002  0.00  0.00    +0.018 C 
ENDBRANCH  30  32
ENDBRANCH  20  30
ENDBRANCH  19  27
ENDBRANCH   1  19
TORSDOF 6
