REMARK  Name = ZINC39029924
REMARK  3 active torsions:
REMARK  status: ('A' for Active; 'I' for Inactive)
REMARK    1  A    between atoms: C_3  and  N_9
REMARK    2  A    between atoms: C_10  and  N_12
REMARK    3  A    between atoms: C_16  and  C_19
REMARK                            x       y       z     vdW  Elec       q    Type
REMARK                         _______ _______ _______ _____ _____    ______ ____
ROOT
ATOM      1  N   UNL     1       3.584   2.127  -0.021  0.00  0.00    -0.266 N 
ATOM      2  C   UNL     1       3.568   3.471  -0.116  0.00  0.00    +0.330 C 
ATOM      3  O   UNL     1       2.507   4.069  -0.103  0.00  0.00    -0.250 OA
ATOM      4  H   UNL     1       4.429   1.656   0.051  0.00  0.00    +0.156 HD
ENDROOT
BRANCH   1   7
ATOM      5  C   UNL     1       0.066   1.243  -0.626  0.00  0.00    +0.022 A 
ATOM      6  C   UNL     1       1.251   1.953  -0.622  0.00  0.00    +0.026 A 
ATOM      7  C   UNL     1       2.382   1.410  -0.026  0.00  0.00    +0.053 A 
ATOM      8  C   UNL     1       2.317   0.154   0.565  0.00  0.00    +0.064 A 
ATOM      9  C   UNL     1       1.129  -0.551   0.558  0.00  0.00    +0.041 A 
ATOM     10  C   UNL     1       0.004  -0.007  -0.037  0.00  0.00    +0.042 A 
ATOM     11 CL   UNL     1      -1.488  -0.895  -0.045  0.00  0.00    -0.083 Cl
ATOM     12 CL   UNL     1       3.728  -0.529   1.311  0.00  0.00    -0.082 Cl
ENDBRANCH   1   7
BRANCH   2  13
ATOM     13  N   UNL     1       4.722   4.151  -0.225  0.00  0.00    -0.136 NA
ATOM     14  C   UNL     1       4.706   5.468  -0.318  0.00  0.00    +0.205 C 
ATOM     15  N   UNL     1       5.762   6.344  -0.442  0.00  0.00    -0.129 NA
ATOM     16  N   UNL     1       5.651   7.547  -0.521  0.00  0.00    -0.170 NA
ATOM     17  C   UNL     1       4.292   8.135  -0.484  0.00  0.00    +0.196 C 
ATOM     18  S   UNL     1       3.304   6.585  -0.324  0.00  0.00    -0.058 S 
BRANCH  17  19
ATOM     19  C   UNL     1       4.110   9.049   0.729  0.00  0.00    +0.026 C 
ATOM     20  C   UNL     1       2.617   9.416   0.913  0.00  0.00    +0.006 C 
ATOM     21  C   UNL     1       2.537   9.779   2.417  0.00  0.00    +0.000 C 
ATOM     22  C   UNL     1       3.479   8.766   3.101  0.00  0.00    +0.000 C 
ATOM     23  C   UNL     1       4.479   8.302   2.028  0.00  0.00    +0.006 C 
ENDBRANCH  17  19
ENDBRANCH   2  13
TORSDOF 3
