REMARK  Name = ZINC39676425
REMARK  6 active torsions:
REMARK  status: ('A' for Active; 'I' for Inactive)
REMARK    1  A    between atoms: C_1  and  C_2
REMARK    2  A    between atoms: C_2  and  C_3
REMARK    3  A    between atoms: C_7  and  C_16
REMARK    4  A    between atoms: N_18  and  C_19
REMARK    5  A    between atoms: C_19  and  C_20
REMARK    6  A    between atoms: C_20  and  C_21
REMARK                            x       y       z     vdW  Elec       q    Type
REMARK                         _______ _______ _______ _____ _____    ______ ____
ROOT
ATOM      1  C   UNL     1      -1.624  -3.852  -1.815  0.00  0.00    +0.218 C 
ATOM      2  O   UNL     1      -2.165  -2.784  -1.621  0.00  0.00    -0.275 OA
ATOM      3  N   UNL     1      -2.353  -4.914  -2.211  0.00  0.00    -0.315 N 
ATOM      4  H   UNL     1      -1.920  -5.769  -2.366  0.00  0.00    +0.149 HD
ENDROOT
BRANCH   1   9
ATOM      5  C   UNL     1       0.662  -0.526  -0.928  0.00  0.00    +0.215 C 
ATOM      6  O   UNL     1       1.101   0.344  -1.650  0.00  0.00    -0.276 OA
ATOM      7  N   UNL     1       0.819  -1.823  -1.262  0.00  0.00    -0.300 N 
ATOM      8  C   UNL     1       0.351  -3.016  -0.518  0.00  0.00    +0.121 C 
ATOM      9  C   UNL     1      -0.137  -3.992  -1.612  0.00  0.00    +0.100 C 
ATOM     10  C   UNL     1       0.621  -3.568  -2.882  0.00  0.00    -0.004 C 
ATOM     11  C   UNL     1       1.493  -2.377  -2.461  0.00  0.00    +0.115 C 
ATOM     12  C   UNL     1      -0.363  -3.138  -3.966  0.00  0.00    -0.010 C 
ATOM     13  C   UNL     1       0.411  -2.776  -5.237  0.00  0.00    -0.082 C 
ATOM     14  N   UNL     1       1.188  -3.938  -5.686  0.00  0.00    +0.379 N 
ATOM     15  C   UNL     1       2.194  -4.288  -4.677  0.00  0.00    -0.082 C 
ATOM     16  C   UNL     1       1.496  -4.714  -3.382  0.00  0.00    -0.010 C 
ATOM     17  H   UNL     1       0.567  -4.721  -5.826  0.00  0.00    -0.086 HD
ATOM     18  H   UNL     1       1.648  -3.717  -6.556  0.00  0.00    -0.086 HD
BRANCH   5  20
ATOM     19  C   UNL     1      -0.098   1.365   0.484  0.00  0.00    +0.013 C 
ATOM     20  C   UNL     1      -0.059  -0.158   0.343  0.00  0.00    +0.092 C 
ENDBRANCH   5  20
ENDBRANCH   1   9
BRANCH   3  21
ATOM     21  C   UNL     1      -3.798  -4.779  -2.408  0.00  0.00    +0.109 C 
BRANCH  21  22
ATOM     22  C   UNL     1      -4.380  -6.121  -2.855  0.00  0.00    +0.056 C 
BRANCH  22  23
ATOM     23  C   UNL     1      -5.867  -5.982  -3.057  0.00  0.00    -0.021 A 
ATOM     24  C   UNL     1      -6.541  -5.507  -4.269  0.00  0.00    +0.004 A 
ATOM     25  C   UNL     1      -6.096  -5.069  -5.517  0.00  0.00    +0.030 A 
ATOM     26  C   UNL     1      -7.012  -4.680  -6.469  0.00  0.00    +0.042 A 
ATOM     27  C   UNL     1      -8.373  -4.721  -6.192  0.00  0.00    +0.022 A 
ATOM     28  C   UNL     1      -8.827  -5.152  -4.965  0.00  0.00    +0.027 A 
ATOM     29  C   UNL     1      -7.919  -5.550  -3.989  0.00  0.00    +0.047 A 
ATOM     30  N   UNL     1      -8.057  -6.017  -2.701  0.00  0.00    -0.360 N 
ATOM     31  C   UNL     1      -6.825  -6.274  -2.164  0.00  0.00    +0.087 A 
ATOM     32 CL   UNL     1      -6.464  -4.133  -8.023  0.00  0.00    -0.084 Cl
ATOM     33  H   UNL     1      -8.903  -6.147  -2.243  0.00  0.00    +0.165 HD
ENDBRANCH  22  23
ENDBRANCH  21  22
ENDBRANCH   3  21
TORSDOF 5
