REMARK  Name = ZINC59336775
REMARK  3 active torsions:
REMARK  status: ('A' for Active; 'I' for Inactive)
REMARK    1  A    between atoms: C_4  and  C_7
REMARK    2  A    between atoms: C_12  and  C_13
REMARK    3  A    between atoms: C_16  and  N_19
REMARK                            x       y       z     vdW  Elec       q    Type
REMARK                         _______ _______ _______ _____ _____    ______ ____
ROOT
ATOM      1  C   UNL     1       3.982  -0.725  -0.395  0.00  0.00    +0.402 C 
ATOM      2  O   UNL     1       4.555  -0.363   0.867  0.00  0.00    -0.417 OA
ATOM      3  C   UNL     1       5.701  -1.021   1.199  0.00  0.00    +0.349 C 
ATOM      4  O   UNL     1       6.678  -0.450   1.643  0.00  0.00    -0.245 OA
ATOM      5  C   UNL     1       5.665  -2.494   0.979  0.00  0.00    +0.143 C 
ATOM      6  C   UNL     1       6.324  -3.390   1.792  0.00  0.00    +0.030 C 
ATOM      7  C   UNL     1       4.854  -2.912  -0.199  0.00  0.00    +0.349 C 
ATOM      8  O   UNL     1       5.146  -3.871  -0.886  0.00  0.00    -0.245 OA
ATOM      9  O   UNL     1       3.760  -2.139  -0.446  0.00  0.00    -0.417 OA
ENDROOT
BRANCH   1  13
ATOM     10  C   UNL     1       0.263   1.313  -0.901  0.00  0.00    +0.000 A 
ATOM     11  C   UNL     1       1.428   2.036  -0.724  0.00  0.00    +0.001 A 
ATOM     12  C   UNL     1       2.631   1.376  -0.560  0.00  0.00    +0.011 A 
ATOM     13  C   UNL     1       2.670  -0.006  -0.573  0.00  0.00    +0.033 A 
ATOM     14  C   UNL     1       1.505  -0.728  -0.749  0.00  0.00    +0.011 A 
ATOM     15  C   UNL     1       0.301  -0.068  -0.915  0.00  0.00    +0.001 A 
ENDBRANCH   1  13
BRANCH   6  16
ATOM     16  C   UNL     1       6.109  -4.831   1.621  0.00  0.00    -0.024 A 
ATOM     17  C   UNL     1       7.143  -5.735   1.894  0.00  0.00    +0.010 A 
ATOM     18  C   UNL     1       6.932  -7.087   1.731  0.00  0.00    +0.033 A 
ATOM     19  C   UNL     1       5.701  -7.553   1.299  0.00  0.00    +0.126 A 
ATOM     20  C   UNL     1       4.673  -6.666   1.027  0.00  0.00    +0.033 A 
ATOM     21  C   UNL     1       4.865  -5.311   1.190  0.00  0.00    +0.010 A 
BRANCH  19  22
ATOM     22  N   UNL     1       5.484  -9.007   1.127  0.00  0.00    +0.056 N 
ATOM     23  O   UNL     1       6.379  -9.784   1.363  0.00  0.00    -0.126 OA
ATOM     24  O   UNL     1       4.411  -9.417   0.749  0.00  0.00    -0.126 OA
ENDBRANCH  19  22
ENDBRANCH   6  16
TORSDOF 3
