REMARK  Name = ZINC06658895
REMARK  9 active torsions:
REMARK  status: ('A' for Active; 'I' for Inactive)
REMARK    1  A    between atoms: C_1  and  C_2
REMARK    2  A    between atoms: C_3  and  O_16
REMARK    3  A    between atoms: O_16  and  C_17
REMARK    4  A    between atoms: C_17  and  C_18
REMARK    5  A    between atoms: N_20  and  C_21
REMARK    6  A    between atoms: C_23  and  C_29
REMARK    7  A    between atoms: C_23  and  C_30
REMARK    8  A    between atoms: C_25  and  C_27
REMARK    9  A    between atoms: C_25  and  C_28
REMARK                            x       y       z     vdW  Elec       q    Type
REMARK                         _______ _______ _______ _____ _____    ______ ____
ROOT
ATOM      1  C   UNL     1      -0.099  -0.165  -3.880  0.00  0.00    +0.324 C 
ENDROOT
BRANCH   1   2
ATOM      2  C   UNL     1      -0.046   0.670  -5.134  0.00  0.00    +0.251 C 
ATOM      3  O   UNL     1      -0.013   1.879  -5.056  0.00  0.00    -0.272 OA
ATOM      4  N   UNL     1      -0.034   0.071  -6.342  0.00  0.00    -0.310 N 
ATOM      5  H   UNL     1      -0.060  -0.896  -6.404  0.00  0.00    +0.149 HD
BRANCH   4   6
ATOM      6  C   UNL     1       0.018   0.884  -7.563  0.00  0.00    +0.070 C 
ATOM      7  C   UNL     1       1.478   1.190  -7.902  0.00  0.00    +0.009 C 
ATOM      8  C   UNL     1       1.550   2.026  -9.179  0.00  0.00    -0.072 C 
ATOM      9  N   UNL     1       0.840   1.400 -10.284  0.00  0.00    +0.386 N 
ATOM     10  C   UNL     1      -0.493   0.881 -10.024  0.00  0.00    -0.072 C 
ATOM     11  C   UNL     1      -0.588   0.093  -8.722  0.00  0.00    +0.009 C 
ATOM     12  C   UNL     1      -1.546   1.992 -10.040  0.00  0.00    -0.010 C 
ATOM     13  C   UNL     1      -0.845  -0.091 -11.175  0.00  0.00    -0.010 C 
ATOM     14  C   UNL     1       3.041   2.127  -9.578  0.00  0.00    -0.010 C 
ATOM     15  C   UNL     1       1.056   3.447  -8.909  0.00  0.00    -0.010 C 
ATOM     16  H   UNL     1       0.779   2.075 -11.050  0.00  0.00    -0.084 HD
ATOM     17  H   UNL     1       1.418   0.637 -10.645  0.00  0.00    -0.084 HD
ENDBRANCH   4   6
ENDBRANCH   1   2
BRANCH   1  18
ATOM     18  O   UNL     1      -0.102   0.693  -2.737  0.00  0.00    -0.482 OA
BRANCH  18  21
ATOM     19  C   UNL     1      -0.106   2.376  -0.477  0.00  0.00    +0.051 C 
ATOM     20  C   UNL     1      -0.153   0.873  -0.372  0.00  0.00    +0.034 A 
ATOM     21  C   UNL     1      -0.148   0.095  -1.519  0.00  0.00    +0.128 A 
ATOM     22  C   UNL     1      -0.190  -1.295  -1.432  0.00  0.00    +0.047 A 
ATOM     23  C   UNL     1      -0.237  -1.910  -0.214  0.00  0.00    +0.015 A 
ATOM     24  C   UNL     1      -0.243  -1.140   0.954  0.00  0.00    +0.022 A 
ATOM     25  C   UNL     1      -0.195   0.264   0.872  0.00  0.00    +0.146 A 
ATOM     26  O   UNL     1      -0.197   1.001   2.003  0.00  0.00    -0.422 OA
ATOM     27  C   UNL     1      -0.244   0.426   3.214  0.00  0.00    +0.341 A 
ATOM     28  O   UNL     1      -0.253   1.134   4.206  0.00  0.00    -0.245 OA
ATOM     29  C   UNL     1      -0.286  -0.978   3.372  0.00  0.00    +0.041 A 
ATOM     30  C   UNL     1      -0.294  -1.774   2.274  0.00  0.00    -0.027 A 
ATOM     31  C   UNL     1      -0.342  -3.229   2.679  0.00  0.00    +0.036 C 
ATOM     32  C   UNL     1       0.052  -3.242   4.172  0.00  0.00    +0.010 C 
ATOM     33  C   UNL     1      -0.338  -1.825   4.626  0.00  0.00    +0.043 C 
ENDBRANCH  18  21
ENDBRANCH   1  18
TORSDOF 4
