REMARK  Name = ZINC06380905
REMARK  10 active torsions:
REMARK  status: ('A' for Active; 'I' for Inactive)
REMARK    1  A    between atoms: C_1  and  C_2
REMARK    2  A    between atoms: C_2  and  O_3
REMARK    3  A    between atoms: O_3  and  C_4
REMARK    4  A    between atoms: C_7  and  C_18
REMARK    5  A    between atoms: C_9  and  O_10
REMARK    6  A    between atoms: O_10  and  C_11
REMARK    7  A    between atoms: C_11  and  C_12
REMARK    8  A    between atoms: C_21  and  C_32
REMARK    9  A    between atoms: C_27  and  N_31
REMARK   10  A    between atoms: C_28  and  C_29
REMARK                            x       y       z     vdW  Elec       q    Type
REMARK                         _______ _______ _______ _____ _____    ______ ____
ROOT
ATOM      1  C   UNL     1      -1.599   6.058   3.897  0.00  0.00    +0.162 A 
ATOM      2  C   UNL     1      -1.958   4.726   3.771  0.00  0.00    +0.050 A 
ATOM      3  C   UNL     1      -1.974   4.129   2.524  0.00  0.00    +0.008 A 
ATOM      4  C   UNL     1      -1.633   4.859   1.401  0.00  0.00    -0.031 A 
ATOM      5  C   UNL     1      -1.269   6.188   1.520  0.00  0.00    +0.054 A 
ATOM      6  C   UNL     1      -1.255   6.793   2.767  0.00  0.00    +0.163 A 
ENDROOT
BRANCH   4   7
ATOM      7  C   UNL     1      -1.652   4.204   0.044  0.00  0.00    +0.101 C 
ATOM      8  C   UNL     1      -0.691   3.044   0.026  0.00  0.00    +0.049 A 
ATOM      9  C   UNL     1       0.697   3.052   0.012  0.00  0.00    +0.068 A 
ATOM     10  N   UNL     1       1.112   1.808   0.001  0.00  0.00    -0.176 NA
ATOM     11  N   UNL     1      -0.011   0.966   0.007  0.00  0.00    -0.246 N 
ATOM     12  H   UNL     1       0.120  -0.126   0.005  0.00  0.00    +0.192 HD
ATOM     13  C   UNL     1      -1.107   1.742   0.016  0.00  0.00    +0.222 A 
ATOM     14  O   UNL     1      -2.417   1.391   0.017  0.00  0.00    -0.423 OA
ATOM     15  C   UNL     1      -3.321   2.355  -0.252  0.00  0.00    +0.200 C 
ATOM     16  C   UNL     1      -3.033   3.675  -0.261  0.00  0.00    +0.098 C 
ATOM     17  C   UNL     1       1.575   4.278   0.012  0.00  0.00    +0.068 C 
BRANCH  15  18
ATOM     18  N   UNL     1      -4.610   1.972  -0.531  0.00  0.00    -0.328 N 
ATOM     19  H   UNL     1      -5.373   2.732  -0.754  0.00  0.00    +0.145 HD
ATOM     20  H   UNL     1      -4.879   0.906  -0.531  0.00  0.00    +0.145 HD
ENDBRANCH  15  18
BRANCH  16  21
ATOM     21  C   UNL     1      -4.078   4.607  -0.565  0.00  0.00    +0.101 C 
ATOM     22  N   UNL     1      -4.907   5.345  -0.806  0.00  0.00    -0.191 NA
ENDBRANCH  16  21
ENDBRANCH   4   7
BRANCH   1  23
ATOM     23  O   UNL     1      -1.582   6.646   5.123  0.00  0.00    -0.489 OA
BRANCH  23  25
ATOM     24  C   UNL     1      -1.868   6.660   7.523  0.00  0.00    +0.048 C 
ATOM     25  C   UNL     1      -1.946   5.831   6.239  0.00  0.00    +0.226 C 
ENDBRANCH  23  25
ENDBRANCH   1  23
BRANCH   6  26
ATOM     26  O   UNL     1      -0.902   8.101   2.885  0.00  0.00    -0.484 OA
BRANCH  26  27
ATOM     27  C   UNL     1      -0.562   8.793   1.682  0.00  0.00    +0.264 C 
BRANCH  27  28
ATOM     28  C   UNL     1      -0.200  10.219   2.008  0.00  0.00    -0.010 A 
ATOM     29  C   UNL     1      -1.179  11.196   2.013  0.00  0.00    +0.007 A 
ATOM     30  C   UNL     1      -0.848  12.504   2.316  0.00  0.00    +0.000 A 
ATOM     31  C   UNL     1       0.462  12.836   2.605  0.00  0.00    +0.000 A 
ATOM     32  C   UNL     1       1.441  11.860   2.595  0.00  0.00    +0.000 A 
ATOM     33  C   UNL     1       1.110  10.552   2.296  0.00  0.00    +0.007 A 
ENDBRANCH  27  28
ENDBRANCH  26  27
ENDBRANCH   6  26
TORSDOF 8
