REMARK  Name = ZINC35188758
REMARK  6 active torsions:
REMARK  status: ('A' for Active; 'I' for Inactive)
REMARK    1  A    between atoms: C_1  and  C_2
REMARK    2  A    between atoms: C_4  and  C_12
REMARK    3  A    between atoms: C_5  and  O_11
REMARK    4  A    between atoms: C_6  and  N_8
REMARK    5  A    between atoms: C_13  and  C_25
REMARK    6  A    between atoms: C_21  and  C_24
REMARK                            x       y       z     vdW  Elec       q    Type
REMARK                         _______ _______ _______ _____ _____    ______ ____
ROOT
ATOM      1  C   UNL     1       0.214  -2.802  -2.520  0.00  0.00    +0.087 A 
ATOM      2  C   UNL     1      -0.085  -2.140  -3.677  0.00  0.00    +0.016 A 
ATOM      3  S   UNL     1      -0.265  -3.512  -4.809  0.00  0.00    -0.057 S 
ATOM      4  C   UNL     1       0.073  -4.818  -3.637  0.00  0.00    +0.162 A 
ATOM      5  N   UNL     1       0.291  -4.130  -2.530  0.00  0.00    -0.224 NA
ATOM      6  N   UNL     1       0.104  -6.188  -3.837  0.00  0.00    -0.309 N 
ATOM      7  C   UNL     1       0.399  -7.101  -2.724  0.00  0.00    +0.107 C 
ATOM      8  C   UNL     1      -0.721  -8.142  -2.630  0.00  0.00    +0.019 C 
ATOM      9  C   UNL     1      -0.883  -8.835  -3.985  0.00  0.00    +0.006 C 
ATOM     10  C   UNL     1      -1.272  -7.802  -5.045  0.00  0.00    +0.003 C 
ATOM     11  C   UNL     1      -0.165  -6.757  -5.165  0.00  0.00    +0.110 C 
ATOM     12  C   UNL     1      -1.467  -8.501  -6.392  0.00  0.00    +0.009 C 
ATOM     13  C   UNL     1      -0.224  -0.661  -3.929  0.00  0.00    +0.054 C 
ENDROOT
BRANCH   1  17
ATOM     14  C   UNL     1       2.461   0.938  -0.094  0.00  0.00    +0.044 C 
ATOM     15  C   UNL     1       1.534  -0.250  -0.095  0.00  0.00    -0.047 A 
ATOM     16  C   UNL     1       1.312  -0.949  -1.264  0.00  0.00    +0.017 A 
ATOM     17  C   UNL     1       0.456  -2.047  -1.266  0.00  0.00    +0.045 A 
ATOM     18  C   UNL     1      -0.176  -2.435  -0.080  0.00  0.00    +0.156 A 
ATOM     19  C   UNL     1       0.055  -1.725   1.086  0.00  0.00    +0.168 A 
ATOM     20  C   UNL     1       0.912  -0.639   1.078  0.00  0.00    +0.040 A 
BRANCH  19  21
ATOM     21  N   UNL     1      -0.611  -2.132   2.344  0.00  0.00    +0.060 N 
ATOM     22  O   UNL     1      -0.409  -1.512   3.362  0.00  0.00    -0.126 OA
ATOM     23  O   UNL     1      -1.356  -3.083   2.353  0.00  0.00    -0.126 OA
ENDBRANCH  19  21
BRANCH  18  24
ATOM     24  O   UNL     1      -1.014  -3.505  -0.072  0.00  0.00    -0.504 OA
ATOM     25  H   UNL     1      -0.576  -4.346   0.119  0.00  0.00    +0.292 HD
ENDBRANCH  18  24
ENDBRANCH   1  17
TORSDOF 3
