REMARK  Name = ZINC66713627
REMARK  7 active torsions:
REMARK  status: ('A' for Active; 'I' for Inactive)
REMARK    1  A    between atoms: C_1  and  C_2
REMARK    2  A    between atoms: C_2  and  C_3
REMARK    3  A    between atoms: C_5  and  C_30
REMARK    4  A    between atoms: C_7  and  C_29
REMARK    5  A    between atoms: C_8  and  C_12
REMARK    6  A    between atoms: C_16  and  C_23
REMARK    7  A    between atoms: C_20  and  C_22
REMARK                            x       y       z     vdW  Elec       q    Type
REMARK                         _______ _______ _______ _____ _____    ______ ____
ROOT
ATOM      1  C   UNL     1       5.261  -1.824  -5.234  0.00  0.00    +0.254 C 
ATOM      2  O   UNL     1       4.996  -2.038  -6.402  0.00  0.00    -0.269 OA
ATOM      3  N   UNL     1       6.544  -1.833  -4.822  0.00  0.00    -0.289 N 
ATOM      4  C   UNL     1       6.893  -1.533  -3.424  0.00  0.00    +0.144 C 
ATOM      5  C   UNL     1       7.812  -2.645  -2.906  0.00  0.00    +0.166 C 
ATOM      6  O   UNL     1       8.906  -2.811  -3.811  0.00  0.00    -0.369 OA
ATOM      7  C   UNL     1       8.522  -3.224  -5.125  0.00  0.00    +0.183 C 
ATOM      8  C   UNL     1       7.638  -2.148  -5.755  0.00  0.00    +0.099 C 
ATOM      9  C   UNL     1       7.058  -2.666  -7.072  0.00  0.00    +0.030 C 
ENDROOT
BRANCH   1  15
ATOM     10  C   UNL     1       0.572  -0.746  -1.138  0.00  0.00    +0.130 A 
ATOM     11  N   UNL     1       0.130  -1.785  -1.826  0.00  0.00    -0.237 NA
ATOM     12  C   UNL     1       0.825  -2.333  -2.798  0.00  0.00    +0.050 A 
ATOM     13  C   UNL     1       2.095  -1.800  -3.131  0.00  0.00    +0.032 A 
ATOM     14  C   UNL     1       3.003  -2.215  -4.119  0.00  0.00    -0.020 A 
ATOM     15  C   UNL     1       4.182  -1.556  -4.273  0.00  0.00    +0.080 A 
ATOM     16  S   UNL     1       4.098  -0.285  -3.022  0.00  0.00    -0.064 S 
ATOM     17  C   UNL     1       2.505  -0.686  -2.352  0.00  0.00    +0.113 A 
ATOM     18  N   UNL     1       1.743  -0.197  -1.399  0.00  0.00    -0.225 NA
ATOM     19  C   UNL     1       2.672  -3.388  -5.004  0.00  0.00    +0.046 C 
ATOM     20  C   UNL     1       0.276  -3.518  -3.551  0.00  0.00    +0.066 C 
BRANCH  10  22
ATOM     21  C   UNL     1      -1.199   0.909  -0.614  0.00  0.00    +0.012 C 
ATOM     22  C   UNL     1      -0.282  -0.172  -0.037  0.00  0.00    +0.073 C 
ENDBRANCH  10  22
ENDBRANCH   1  15
BRANCH   5  23
ATOM     23  C   UNL     1       8.337  -2.270  -1.544  0.00  0.00    -0.017 A 
ATOM     24  C   UNL     1       9.392  -1.385  -1.429  0.00  0.00    +0.006 A 
ATOM     25  C   UNL     1       9.874  -1.041  -0.180  0.00  0.00    +0.000 A 
ATOM     26  C   UNL     1       9.300  -1.582   0.955  0.00  0.00    +0.000 A 
ATOM     27  C   UNL     1       8.244  -2.467   0.840  0.00  0.00    +0.000 A 
ATOM     28  C   UNL     1       7.760  -2.808  -0.409  0.00  0.00    +0.006 A 
ENDBRANCH   5  23
TORSDOF 3
