REMARK  Name = ZINC66632691
REMARK  7 active torsions:
REMARK  status: ('A' for Active; 'I' for Inactive)
REMARK    1  A    between atoms: C_1  and  C_2
REMARK    2  A    between atoms: C_2  and  C_3
REMARK    3  A    between atoms: C_2  and  C_4
REMARK    4  A    between atoms: C_4  and  N_5
REMARK    5  A    between atoms: N_8  and  N_9
REMARK    6  A    between atoms: C_10  and  C_12
REMARK    7  A    between atoms: C_24  and  C_26
REMARK                            x       y       z     vdW  Elec       q    Type
REMARK                         _______ _______ _______ _____ _____    ______ ____
ROOT
ATOM      1  C   UNL     1      -4.125   1.585  -5.507  0.00  0.00    +0.164 C 
ATOM      2  C   UNL     1      -4.626   2.995  -5.123  0.00  0.00    +0.037 C 
ATOM      3  C   UNL     1      -5.560   3.362  -6.316  0.00  0.00    +0.012 C 
ATOM      4  C   UNL     1      -6.887   2.640  -6.071  0.00  0.00    +0.005 C 
ATOM      5  C   UNL     1      -7.717   2.587  -7.351  0.00  0.00    +0.000 C 
ATOM      6  C   UNL     1      -6.942   1.789  -8.405  0.00  0.00    +0.002 C 
ATOM      7  C   UNL     1      -5.646   2.537  -8.721  0.00  0.00    +0.023 C 
ATOM      8  C   UNL     1      -4.787   2.725  -7.485  0.00  0.00    +0.080 C 
ATOM      9  N   UNL     1      -4.261   1.454  -6.969  0.00  0.00    -0.283 N 
ATOM     10  C   UNL     1      -3.958   0.362  -7.699  0.00  0.00    +0.247 C 
ATOM     11  O   UNL     1      -4.001   0.412  -8.913  0.00  0.00    -0.270 OA
ENDROOT
BRANCH  10  12
ATOM     12  C   UNL     1      -3.573  -0.895  -7.023  0.00  0.00    +0.037 A 
ATOM     13  C   UNL     1      -3.163  -0.877  -5.689  0.00  0.00    +0.013 A 
ATOM     14  C   UNL     1      -2.805  -2.054  -5.064  0.00  0.00    +0.001 A 
ATOM     15  C   UNL     1      -2.852  -3.250  -5.758  0.00  0.00    +0.000 A 
ATOM     16  C   UNL     1      -3.256  -3.275  -7.080  0.00  0.00    +0.001 A 
ATOM     17  C   UNL     1      -3.623  -2.106  -7.715  0.00  0.00    +0.013 A 
ENDBRANCH  10  12
BRANCH   1  19
ATOM     18  N   UNL     1      -4.826   0.331  -3.494  0.00  0.00    -0.232 N 
ATOM     19  C   UNL     1      -4.962   0.538  -4.818  0.00  0.00    +0.250 C 
ATOM     20  O   UNL     1      -5.759  -0.118  -5.456  0.00  0.00    -0.272 OA
ATOM     21  H   UNL     1      -4.190   0.855  -2.983  0.00  0.00    +0.173 HD
BRANCH  18  25
ATOM     22  N   UNL     1      -4.584  -0.121  -0.820  0.00  0.00    -0.298 N 
ATOM     23  C   UNL     1      -5.469  -0.850  -1.528  0.00  0.00    +0.316 C 
ATOM     24  O   UNL     1      -6.144  -1.694  -0.973  0.00  0.00    -0.251 OA
ATOM     25  N   UNL     1      -5.605  -0.643  -2.853  0.00  0.00    -0.218 N 
ATOM     26  H   UNL     1      -4.045   0.553  -1.263  0.00  0.00    +0.150 HD
ATOM     27  H   UNL     1      -6.242  -1.167  -3.363  0.00  0.00    +0.174 HD
BRANCH  22  28
ATOM     28  C   UNL     1      -4.436  -0.346   0.620  0.00  0.00    +0.108 C 
BRANCH  28  30
ATOM     29  C   UNL     1      -3.862   2.048   1.043  0.00  0.00    +0.009 C 
ATOM     30  C   UNL     1      -3.375   0.604   1.179  0.00  0.00    -0.000 C 
ATOM     31  C   UNL     1      -3.131   0.285   2.655  0.00  0.00    +0.009 C 
ENDBRANCH  28  30
ENDBRANCH  22  28
ENDBRANCH  18  25
ENDBRANCH   1  19
TORSDOF 5
