REMARK  Name = ZINC36341360
REMARK  8 active torsions:
REMARK  status: ('A' for Active; 'I' for Inactive)
REMARK    1  A    between atoms: C_1  and  C_2
REMARK    2  A    between atoms: C_2  and  N_3
REMARK    3  A    between atoms: N_6  and  C_9
REMARK    4  A    between atoms: C_9  and  C_10
REMARK    5  A    between atoms: C_13  and  C_25
REMARK    6  A    between atoms: C_16  and  C_18
REMARK    7  A    between atoms: C_30  and  O_31
REMARK    8  A    between atoms: O_31  and  C_32
REMARK                            x       y       z     vdW  Elec       q    Type
REMARK                         _______ _______ _______ _____ _____    ______ ____
ROOT
ATOM      1  C   UNL     1       3.518  -4.015  -3.630  0.00  0.00    +0.249 C 
ATOM      2  O   UNL     1       3.026  -4.609  -2.693  0.00  0.00    -0.272 OA
ATOM      3  N   UNL     1       4.141  -4.699  -4.610  0.00  0.00    -0.184 N 
ATOM      4  C   UNL     1       4.291  -6.162  -4.670  0.00  0.00    +0.140 C 
ATOM      5  C   UNL     1       5.070  -6.392  -5.980  0.00  0.00    +0.087 C 
ATOM      6  C   UNL     1       5.280  -4.998  -6.528  0.00  0.00    +0.069 C 
ATOM      7  N   UNL     1       4.744  -4.138  -5.734  0.00  0.00    -0.181 NA
ENDROOT
BRANCH   6   8
ATOM      8  C   UNL     1       5.985  -4.674  -7.783  0.00  0.00    -0.002 A 
ATOM      9  C   UNL     1       6.517  -5.697  -8.572  0.00  0.00    +0.012 A 
ATOM     10  C   UNL     1       7.175  -5.388  -9.744  0.00  0.00    +0.039 A 
ATOM     11  C   UNL     1       7.308  -4.066 -10.139  0.00  0.00    +0.123 A 
ATOM     12  C   UNL     1       6.782  -3.047  -9.360  0.00  0.00    +0.039 A 
ATOM     13  C   UNL     1       6.117  -3.344  -8.189  0.00  0.00    +0.012 A 
ATOM     14  F   UNL     1       7.954  -3.769 -11.288  0.00  0.00    -0.205 F 
ENDBRANCH   6   8
BRANCH   4  15
ATOM     15  C   UNL     1       2.942  -6.831  -4.728  0.00  0.00    +0.017 A 
ATOM     16  C   UNL     1       1.846  -6.138  -5.204  0.00  0.00    +0.009 A 
ATOM     17  C   UNL     1       0.608  -6.751  -5.257  0.00  0.00    +0.001 A 
ATOM     18  C   UNL     1       0.463  -8.059  -4.833  0.00  0.00    +0.004 A 
ATOM     19  C   UNL     1       1.556  -8.757  -4.357  0.00  0.00    +0.046 A 
ATOM     20  C   UNL     1       2.800  -8.146  -4.308  0.00  0.00    +0.125 A 
BRANCH  20  21
ATOM     21  O   UNL     1       3.878  -8.832  -3.845  0.00  0.00    -0.495 OA
ATOM     22  C   UNL     1       3.658 -10.181  -3.429  0.00  0.00    +0.277 C 
ENDBRANCH  20  21
ENDBRANCH   4  15
BRANCH   1  23
ATOM     23  C   UNL     1       3.433  -2.512  -3.697  0.00  0.00    +0.182 C 
BRANCH  23  27
ATOM     24  N   UNL     1       0.690  -0.478  -1.207  0.00  0.00    +0.381 N 
ATOM     25  C   UNL     1       2.100  -0.069  -1.160  0.00  0.00    -0.063 C 
ATOM     26  C   UNL     1       2.812  -0.546  -2.427  0.00  0.00    +0.066 C 
ATOM     27  N   UNL     1       2.711  -2.009  -2.521  0.00  0.00    -0.298 NA
ATOM     28  C   UNL     1       1.305  -2.435  -2.544  0.00  0.00    +0.066 C 
ATOM     29  C   UNL     1       0.605  -1.943  -1.275  0.00  0.00    -0.063 C 
ATOM     30  H   UNL     1       0.251  -0.077  -2.022  0.00  0.00    -0.082 HD
BRANCH  24  32
ATOM     31  C   UNL     1      -0.019   1.526   0.010  0.00  0.00    -0.017 C 
ATOM     32  C   UNL     1       0.002  -0.004   0.002  0.00  0.00    -0.082 C 
ENDBRANCH  24  32
ENDBRANCH  23  27
ENDBRANCH   1  23
TORSDOF 6
