REMARK  Name = ZINC52737074
REMARK  7 active torsions:
REMARK  status: ('A' for Active; 'I' for Inactive)
REMARK    1  A    between atoms: C_1  and  C_2
REMARK    2  A    between atoms: C_2  and  C_3
REMARK    3  A    between atoms: C_3  and  C_4
REMARK    4  A    between atoms: C_3  and  C_6
REMARK    5  A    between atoms: C_4  and  C_5
REMARK    6  A    between atoms: C_12  and  C_14
REMARK    7  A    between atoms: C_17  and  N_20
REMARK                            x       y       z     vdW  Elec       q    Type
REMARK                         _______ _______ _______ _____ _____    ______ ____
ROOT
ATOM      1  C   UNL     1       0.952  -2.074   1.088  0.00  0.00    +0.107 A 
ATOM      2  N   UNL     1       0.104  -3.073   0.942  0.00  0.00    -0.144 NA
ATOM      3  N   UNL     1       0.488  -4.270   0.837  0.00  0.00    -0.126 NA
ATOM      4  C   UNL     1       1.773  -4.598   0.867  0.00  0.00    +0.188 A 
ATOM      5  S   UNL     1       2.500  -2.974   1.065  0.00  0.00    -0.035 S 
ATOM      6  N   UNL     1       2.380  -5.844   0.769  0.00  0.00    -0.259 N 
ATOM      7  C   UNL     1       1.627  -6.951   0.616  0.00  0.00    +0.250 C 
ATOM      8  O   UNL     1       0.415  -6.859   0.564  0.00  0.00    -0.270 OA
ATOM      9  H   UNL     1       3.347  -5.917   0.810  0.00  0.00    +0.157 HD
ENDROOT
BRANCH   7  10
ATOM     10  C   UNL     1       2.272  -8.273   0.511  0.00  0.00    +0.037 A 
ATOM     11  C   UNL     1       3.664  -8.380   0.576  0.00  0.00    +0.015 A 
ATOM     12  C   UNL     1       4.263  -9.616   0.479  0.00  0.00    +0.025 A 
ATOM     13  C   UNL     1       3.483 -10.758   0.315  0.00  0.00    +0.051 A 
ATOM     14  C   UNL     1       2.096 -10.654   0.249  0.00  0.00    +0.025 A 
ATOM     15  C   UNL     1       1.491  -9.422   0.353  0.00  0.00    +0.015 A 
BRANCH  13  16
ATOM     16  N   UNL     1       4.091 -12.004   0.217  0.00  0.00    -0.207 N 
ATOM     17  C   UNL     1       5.466 -12.289  -0.233  0.00  0.00    +0.133 C 
ATOM     18  C   UNL     1       6.009 -13.564   0.439  0.00  0.00    +0.045 C 
ATOM     19  C   UNL     1       4.854 -14.604   0.327  0.00  0.00    +0.190 C 
ATOM     20  S   UNL     1       3.413 -13.491   0.591  0.00  0.00    +0.046 S 
ATOM     21  O   UNL     1       3.078 -13.418   1.970  0.00  0.00    -0.155 OA
ATOM     22  O   UNL     1       2.418 -13.715  -0.398  0.00  0.00    -0.155 OA
ENDBRANCH  13  16
ENDBRANCH   7  10
BRANCH   1  23
ATOM     23  C   UNL     1       0.692  -0.596   1.227  0.00  0.00    +0.046 C 
BRANCH  23  25
ATOM     24  C   UNL     1       0.860  -0.211  -1.236  0.00  0.00    +0.004 C 
ATOM     25  C   UNL     1      -0.050  -0.090  -0.011  0.00  0.00    +0.007 C 
ENDBRANCH  23  25
BRANCH  23  26
ATOM     26  C   UNL     1      -0.161  -0.344   2.472  0.00  0.00    +0.007 C 
ATOM     27  C   UNL     1       0.631  -0.736   3.721  0.00  0.00    +0.004 C 
ENDBRANCH  23  26
ENDBRANCH   1  23
TORSDOF 5
