REMARK  Name = ZINC39984223
REMARK  4 active torsions:
REMARK  status: ('A' for Active; 'I' for Inactive)
REMARK    1  A    between atoms: C_6  and  S_7
REMARK    2  A    between atoms: S_7  and  N_10
REMARK    3  A    between atoms: C_16  and  C_18
REMARK    4  A    between atoms: C_18  and  N_19
REMARK                            x       y       z     vdW  Elec       q    Type
REMARK                         _______ _______ _______ _____ _____    ______ ____
ROOT
ATOM      1  N   UNL     1      -1.947  -1.149  -1.567  0.00  0.00    -0.174 NA
ATOM      2  C   UNL     1      -2.787  -0.169  -2.270  0.00  0.00    +0.128 C 
ATOM      3  C   UNL     1      -2.062   0.272  -3.547  0.00  0.00    +0.125 C 
ATOM      4  N   UNL     1      -1.616  -0.927  -4.271  0.00  0.00    -0.297 N 
ATOM      5  C   UNL     1      -0.776  -1.907  -3.568  0.00  0.00    +0.125 C 
ATOM      6  C   UNL     1      -1.497  -2.345  -2.292  0.00  0.00    +0.128 C 
ATOM      7  C   UNL     1      -1.971  -1.124  -5.556  0.00  0.00    +0.236 C 
ATOM      8  O   UNL     1      -2.664  -0.308  -6.125  0.00  0.00    -0.274 OA
ENDROOT
BRANCH   1   9
ATOM      9  S   UNL     1      -1.511  -0.907   0.012  0.00  0.00    +0.061 S 
ATOM     10  O   UNL     1      -1.217  -2.187   0.553  0.00  0.00    -0.153 OA
ATOM     11  O   UNL     1      -2.492  -0.048   0.578  0.00  0.00    -0.153 OA
BRANCH   9  17
ATOM     12  C   UNL     1      -0.017   1.378   0.010  0.00  0.00    +0.029 A 
ATOM     13  C   UNL     1       1.171   2.083   0.002  0.00  0.00    +0.006 A 
ATOM     14  C   UNL     1       2.381   1.411  -0.014  0.00  0.00    -0.044 A 
ATOM     15  C   UNL     1       2.400   0.028  -0.021  0.00  0.00    -0.042 A 
ATOM     16  C   UNL     1       1.208  -0.677  -0.014  0.00  0.00    +0.032 A 
ATOM     17  C   UNL     1       0.002  -0.004   0.002  0.00  0.00    +0.106 A 
ATOM     18  C   UNL     1       3.831  -0.464  -0.038  0.00  0.00    +0.036 C 
ATOM     19  C   UNL     1       4.671   0.753  -0.480  0.00  0.00    +0.009 C 
ATOM     20  C   UNL     1       3.799   1.942  -0.025  0.00  0.00    +0.036 C 
ENDBRANCH   9  17
ENDBRANCH   1   9
BRANCH   7  21
ATOM     21  C   UNL     1      -1.506  -2.358  -6.285  0.00  0.00    +0.224 C 
BRANCH  21  22
ATOM     22  N   UNL     1      -2.021  -2.338  -7.657  0.00  0.00    -0.265 N 
ATOM     23  C   UNL     1      -3.236  -2.870  -8.089  0.00  0.00    +0.091 A 
ATOM     24  C   UNL     1      -4.269  -3.532  -7.443  0.00  0.00    +0.031 A 
ATOM     25  C   UNL     1      -5.373  -3.949  -8.160  0.00  0.00    +0.022 A 
ATOM     26  C   UNL     1      -5.450  -3.708  -9.522  0.00  0.00    +0.045 A 
ATOM     27  C   UNL     1      -4.424  -3.048 -10.172  0.00  0.00    +0.068 A 
ATOM     28  C   UNL     1      -3.313  -2.626  -9.460  0.00  0.00    +0.158 A 
ATOM     29  O   UNL     1      -2.179  -1.973  -9.816  0.00  0.00    -0.407 OA
ATOM     30  C   UNL     1      -1.411  -1.798  -8.730  0.00  0.00    +0.422 A 
ATOM     31  O   UNL     1      -0.330  -1.240  -8.716  0.00  0.00    -0.223 OA
ATOM     32 CL   UNL     1      -6.841  -4.236 -10.416  0.00  0.00    -0.083 Cl
ENDBRANCH  21  22
ENDBRANCH   7  21
TORSDOF 4
