REMARK  Name = ZINC01650867
REMARK  4 active torsions:
REMARK  status: ('A' for Active; 'I' for Inactive)
REMARK    1  A    between atoms: C_1  and  C_2
REMARK    2  A    between atoms: C_5  and  S_8
REMARK    3  A    between atoms: S_8  and  N_11
REMARK    4  A    between atoms: N_22  and  C_23
REMARK                            x       y       z     vdW  Elec       q    Type
REMARK                         _______ _______ _______ _____ _____    ______ ____
ROOT
ATOM      1  N   UNL     1      -1.008  -1.406  -2.131  0.00  0.00    -0.185 N 
ATOM      2  C   UNL     1      -1.846  -1.204  -1.063  0.00  0.00    +0.219 A 
ATOM      3  N   UNL     1      -3.055  -1.705  -1.115  0.00  0.00    -0.214 NA
ATOM      4  C   UNL     1      -3.934  -1.539  -0.099  0.00  0.00    +0.080 A 
ATOM      5  C   UNL     1      -5.227  -2.067  -0.154  0.00  0.00    +0.028 A 
ATOM      6  C   UNL     1      -6.081  -1.874   0.895  0.00  0.00    +0.002 A 
ATOM      7  C   UNL     1      -5.684  -1.161   2.018  0.00  0.00    +0.001 A 
ATOM      8  C   UNL     1      -4.425  -0.632   2.102  0.00  0.00    +0.015 A 
ATOM      9  C   UNL     1      -3.533  -0.813   1.046  0.00  0.00    +0.065 A 
ATOM     10  C   UNL     1      -2.169  -0.268   1.079  0.00  0.00    +0.263 A 
ATOM     11  O   UNL     1      -1.766   0.365   2.037  0.00  0.00    -0.267 OA
ATOM     12  N   UNL     1      -1.378  -0.497   0.005  0.00  0.00    -0.276 N 
ATOM     13  H   UNL     1      -0.083  -1.119  -2.083  0.00  0.00    +0.177 HD
ENDROOT
BRANCH  12  14
ATOM     14  C   UNL     1      -0.009   0.025  -0.012  0.00  0.00    +0.093 C 
ATOM     15  C   UNL     1      -0.046   1.554   0.025  0.00  0.00    +0.025 C 
ATOM     16  C   UNL     1       1.384   2.099   0.007  0.00  0.00    +0.002 C 
ATOM     17  C   UNL     1       2.144   1.577   1.228  0.00  0.00    +0.000 C 
ATOM     18  C   UNL     1       2.181   0.048   1.190  0.00  0.00    +0.002 C 
ATOM     19  C   UNL     1       0.752  -0.497   1.208  0.00  0.00    +0.025 C 
ENDBRANCH  12  14
BRANCH   1  20
ATOM     20  S   UNL     1      -1.578  -2.139  -3.503  0.00  0.00    +0.075 S 
ATOM     21  O   UNL     1      -0.494  -2.177  -4.422  0.00  0.00    -0.150 OA
ATOM     22  O   UNL     1      -2.262  -3.311  -3.083  0.00  0.00    -0.150 OA
BRANCH  20  27
ATOM     23  C   UNL     1      -5.735   1.526  -5.890  0.00  0.00    +0.044 C 
ATOM     24  C   UNL     1      -4.697   0.611  -5.294  0.00  0.00    -0.050 A 
ATOM     25  C   UNL     1      -3.370   0.736  -5.663  0.00  0.00    +0.005 A 
ATOM     26  C   UNL     1      -2.418  -0.103  -5.117  0.00  0.00    +0.029 A 
ATOM     27  C   UNL     1      -2.792  -1.068  -4.200  0.00  0.00    +0.109 A 
ATOM     28  C   UNL     1      -4.118  -1.197  -3.834  0.00  0.00    +0.029 A 
ATOM     29  C   UNL     1      -5.070  -0.354  -4.377  0.00  0.00    +0.005 A 
ENDBRANCH  20  27
ENDBRANCH   1  20
TORSDOF 3
