REMARK  Name = ZINC15673693
REMARK  6 active torsions:
REMARK  status: ('A' for Active; 'I' for Inactive)
REMARK    1  A    between atoms: C_2  and  C_13
REMARK    2  A    between atoms: C_5  and  C_6
REMARK    3  A    between atoms: C_6  and  C_7
REMARK    4  A    between atoms: C_13  and  C_14
REMARK    5  A    between atoms: C_19  and  C_21
REMARK    6  A    between atoms: C_21  and  C_22
REMARK                            x       y       z     vdW  Elec       q    Type
REMARK                         _______ _______ _______ _____ _____    ______ ____
ROOT
ATOM      1  C   UNL     1       5.554  -0.722   3.601  0.00  0.00    -0.019 C 
ATOM      2  C   UNL     1       5.191   0.151   4.805  0.00  0.00    -0.079 C 
ATOM      3  C   UNL     1       5.438  -1.728   6.315  0.00  0.00    -0.082 C 
ATOM      4  C   UNL     1       5.808  -2.657   5.156  0.00  0.00    -0.015 C 
ATOM      5  C   UNL     1       6.492  -1.843   4.054  0.00  0.00    -0.002 C 
ATOM      6  N   UNL     1       4.528  -0.672   5.834  0.00  0.00    +0.379 N 
ATOM      7  H   UNL     1       3.689  -1.105   5.431  0.00  0.00    -0.086 HD
ATOM      8  H   UNL     1       4.258  -0.073   6.624  0.00  0.00    -0.086 HD
ENDROOT
BRANCH   1   9
ATOM      9  C   UNL     1       4.280  -1.329   3.009  0.00  0.00    +0.061 C 
BRANCH   9  11
ATOM     10  C   UNL     1       2.900  -0.133   1.142  0.00  0.00    +0.071 A 
ATOM     11  C   UNL     1       3.409  -0.230   2.457  0.00  0.00    +0.084 A 
ATOM     12  N   UNL     1       2.976   0.818   3.097  0.00  0.00    -0.083 NA
ATOM     13  O   UNL     1       2.300   1.525   2.386  0.00  0.00    -0.359 OA
ATOM     14  C   UNL     1       2.187   1.018   1.151  0.00  0.00    +0.138 A 
BRANCH  14  15
ATOM     15  C   UNL     1       1.423   1.615  -0.003  0.00  0.00    +0.080 C 
BRANCH  15  16
ATOM     16  C   UNL     1      -0.013   1.086   0.008  0.00  0.00    -0.004 C 
ATOM     17  C   UNL     1      -0.729   1.579   1.267  0.00  0.00    +0.004 C 
ATOM     18  C   UNL     1      -2.164   1.050   1.278  0.00  0.00    +0.000 C 
ATOM     19  C   UNL     1      -2.904   1.556   0.038  0.00  0.00    +0.000 C 
ATOM     20  C   UNL     1      -2.188   1.063  -1.221  0.00  0.00    +0.000 C 
ATOM     21  C   UNL     1      -0.753   1.593  -1.232  0.00  0.00    +0.004 C 
ENDBRANCH  15  16
ENDBRANCH  14  15
ENDBRANCH   9  11
ENDBRANCH   1   9
BRANCH   5  22
ATOM     22  C   UNL     1       6.809  -2.755   2.867  0.00  0.00    +0.099 C 
BRANCH  22  23
ATOM     23  C   UNL     1       7.828  -3.785   3.283  0.00  0.00    +0.216 C 
ATOM     24  O   UNL     1       8.258  -3.789   4.417  0.00  0.00    -0.276 OA
ATOM     25  N   UNL     1       8.261  -4.701   2.394  0.00  0.00    -0.301 N 
ATOM     26  C   UNL     1       7.745  -4.712   1.019  0.00  0.00    +0.108 C 
ATOM     27  C   UNL     1       8.937  -4.669   0.050  0.00  0.00    +0.019 C 
ATOM     28  C   UNL     1       9.891  -5.821   0.372  0.00  0.00    +0.003 C 
ATOM     29  C   UNL     1      10.424  -5.660   1.798  0.00  0.00    +0.019 C 
ATOM     30  C   UNL     1       9.254  -5.712   2.785  0.00  0.00    +0.108 C 
ENDBRANCH  22  23
ENDBRANCH   5  22
TORSDOF 6
