REMARK  Name = ZINC62961236
REMARK  3 active torsions:
REMARK  status: ('A' for Active; 'I' for Inactive)
REMARK    1  A    between atoms: C_1  and  C_2
REMARK    2  A    between atoms: C_6  and  N_11
REMARK    3  A    between atoms: N_11  and  C_12
REMARK                            x       y       z     vdW  Elec       q    Type
REMARK                         _______ _______ _______ _____ _____    ______ ____
ROOT
ATOM      1  C   UNL     1      -0.018   1.503   0.010  0.00  0.00    +0.109 C 
ATOM      2  C   UNL     1       0.002  -0.004   0.002  0.00  0.00    +0.194 A 
ATOM      3  N   UNL     1      -1.054  -0.761   0.003  0.00  0.00    -0.213 NA
ATOM      4  C   UNL     1      -0.660  -2.063  -0.006  0.00  0.00    +0.111 A 
ATOM      5  C   UNL     1      -1.347  -3.279  -0.009  0.00  0.00    +0.054 A 
ATOM      6  C   UNL     1      -0.637  -4.466  -0.018  0.00  0.00    +0.030 A 
ATOM      7  C   UNL     1       0.756  -4.451  -0.024  0.00  0.00    +0.026 A 
ATOM      8  C   UNL     1       1.441  -3.255  -0.021  0.00  0.00    +0.050 A 
ATOM      9  C   UNL     1       0.743  -2.056  -0.013  0.00  0.00    +0.155 A 
ATOM     10  O   UNL     1       1.114  -0.756  -0.013  0.00  0.00    -0.440 OA
ENDROOT
BRANCH   6  11
ATOM     11  N   UNL     1      -1.320  -5.686  -0.021  0.00  0.00    -0.339 N 
ATOM     12  H   UNL     1      -2.290  -5.699  -0.017  0.00  0.00    +0.146 HD
BRANCH  11  13
ATOM     13  C   UNL     1      -0.571  -6.945  -0.031  0.00  0.00    +0.093 C 
ATOM     14  C   UNL     1      -0.206  -7.333   1.411  0.00  0.00    +0.046 C 
ATOM     15  C   UNL     1       0.301  -8.803   1.403  0.00  0.00    +0.168 C 
ATOM     16  S   UNL     1      -0.890  -9.565   0.222  0.00  0.00    -0.029 S 
ATOM     17  O   UNL     1      -0.177 -10.401  -0.679  0.00  0.00    -0.174 OA
ATOM     18  O   UNL     1      -1.988 -10.097   0.951  0.00  0.00    -0.174 OA
ATOM     19  C   UNL     1      -1.440  -8.055  -0.671  0.00  0.00    +0.188 C 
ENDBRANCH  11  13
ENDBRANCH   6  11
TORSDOF 2
