REMARK  Name = ZINC00172254
REMARK  2 active torsions:
REMARK  status: ('A' for Active; 'I' for Inactive)
REMARK    1  A    between atoms: C_6  and  N_7
REMARK    2  A    between atoms: N_10  and  C_11
REMARK                            x       y       z     vdW  Elec       q    Type
REMARK                         _______ _______ _______ _____ _____    ______ ____
ROOT
ATOM      1  N   UNL     1      -2.864   2.667  -6.968  0.00  0.00    -0.269 N 
ATOM      2  C   UNL     1      -2.990   2.654  -5.627  0.00  0.00    +0.308 C 
ATOM      3  O   UNL     1      -4.030   3.016  -5.110  0.00  0.00    -0.252 OA
ATOM      4  N   UNL     1      -1.964   2.240  -4.858  0.00  0.00    -0.269 N 
ATOM      5  H   UNL     1      -2.065   2.309  -7.384  0.00  0.00    +0.156 HD
ATOM      6  H   UNL     1      -1.110   2.023  -5.264  0.00  0.00    +0.156 HD
ENDROOT
BRANCH   4   7
ATOM      7  C   UNL     1      -2.130   2.123  -3.474  0.00  0.00    +0.037 A 
ATOM      8  C   UNL     1      -1.063   2.363  -2.615  0.00  0.00    +0.024 A 
ATOM      9  C   UNL     1      -1.213   2.251  -1.255  0.00  0.00    +0.011 A 
ATOM     10  C   UNL     1      -2.455   1.889  -0.694  0.00  0.00    +0.002 A 
ATOM     11  C   UNL     1      -3.511   1.654  -1.588  0.00  0.00    +0.102 A 
ATOM     12  C   UNL     1      -3.365   1.764  -2.939  0.00  0.00    +0.051 A 
ATOM     13  S   UNL     1      -4.868   1.236  -0.523  0.00  0.00    +0.019 S 
ATOM     14  O   UNL     1      -5.826   2.283  -0.607  0.00  0.00    -0.165 OA
ATOM     15  O   UNL     1      -5.181  -0.134  -0.734  0.00  0.00    -0.165 OA
ATOM     16  C   UNL     1      -4.042   1.374   1.050  0.00  0.00    +0.140 C 
ATOM     17  C   UNL     1      -2.807   1.721   0.722  0.00  0.00    +0.029 C 
ENDBRANCH   4   7
BRANCH   1  23
ATOM     18  C   UNL     1      -4.145   2.661  -9.017  0.00  0.00    +0.025 A 
ATOM     19  C   UNL     1      -5.159   3.184  -9.796  0.00  0.00    +0.022 A 
ATOM     20  C   UNL     1      -5.910   4.249  -9.332  0.00  0.00    +0.041 A 
ATOM     21  C   UNL     1      -5.653   4.790  -8.084  0.00  0.00    +0.022 A 
ATOM     22  C   UNL     1      -4.644   4.267  -7.299  0.00  0.00    +0.025 A 
ATOM     23  C   UNL     1      -3.888   3.199  -7.762  0.00  0.00    +0.035 A 
ATOM     24 CL   UNL     1      -7.180   4.907 -10.316  0.00  0.00    -0.084 Cl
ENDBRANCH   1  23
TORSDOF 2
