REMARK  Name = ZINC13734477
REMARK  3 active torsions:
REMARK  status: ('A' for Active; 'I' for Inactive)
REMARK    1  A    between atoms: C_4  and  C_7
REMARK    2  A    between atoms: C_8  and  C_9
REMARK    3  A    between atoms: N_18  and  C_21
REMARK                            x       y       z     vdW  Elec       q    Type
REMARK                         _______ _______ _______ _____ _____    ______ ____
ROOT
ATOM      1  C   UNL     1       4.993  -2.738  -0.061  0.00  0.00    +0.096 C 
ATOM      2  N   UNL     1       6.210  -2.206  -0.065  0.00  0.00    -0.088 NA
ATOM      3  O   UNL     1       7.220  -3.232  -0.043  0.00  0.00    -0.380 OA
ATOM      4  C   UNL     1       6.605  -4.323   0.618  0.00  0.00    +0.308 C 
ATOM      5  C   UNL     1       5.201  -4.160  -0.071  0.00  0.00    +0.180 C 
ATOM      6  C   UNL     1       4.571  -5.418   0.247  0.00  0.00    +0.239 C 
ATOM      7  O   UNL     1       3.392  -5.620   0.446  0.00  0.00    -0.274 OA
ATOM      8  N   UNL     1       5.591  -6.336   0.275  0.00  0.00    -0.207 N 
ATOM      9  C   UNL     1       6.840  -5.749   0.230  0.00  0.00    +0.271 C 
ATOM     10  O   UNL     1       7.898  -6.267  -0.054  0.00  0.00    -0.271 OA
ENDROOT
BRANCH   8  11
ATOM     11  C   UNL     1       5.391  -7.722   0.346  0.00  0.00    +0.044 A 
ATOM     12  C   UNL     1       4.102  -8.237   0.386  0.00  0.00    +0.024 A 
ATOM     13  C   UNL     1       3.908  -9.603   0.456  0.00  0.00    +0.002 A 
ATOM     14  C   UNL     1       4.995 -10.457   0.486  0.00  0.00    +0.000 A 
ATOM     15  C   UNL     1       6.279  -9.946   0.446  0.00  0.00    +0.002 A 
ATOM     16  C   UNL     1       6.480  -8.582   0.370  0.00  0.00    +0.024 A 
ENDBRANCH   8  11
BRANCH   1  18
ATOM     17  C   UNL     1       3.692  -0.680  -0.037  0.00  0.00    +0.010 C 
ATOM     18  C   UNL     1       3.714  -2.027  -0.045  0.00  0.00    +0.028 C 
BRANCH  17  22
ATOM     19  C   UNL     1      -0.017   1.380   0.010  0.00  0.00    +0.000 A 
ATOM     20  C   UNL     1       1.168   2.095   0.002  0.00  0.00    +0.001 A 
ATOM     21  C   UNL     1       2.377   1.433  -0.013  0.00  0.00    +0.008 A 
ATOM     22  C   UNL     1       2.405   0.035  -0.021  0.00  0.00    -0.025 A 
ATOM     23  C   UNL     1       1.204  -0.681  -0.013  0.00  0.00    +0.008 A 
ATOM     24  C   UNL     1       0.002  -0.004   0.002  0.00  0.00    +0.001 A 
ENDBRANCH  17  22
ENDBRANCH   1  18
TORSDOF 3
