REMARK  Name = ZINC08374540
REMARK  9 active torsions:
REMARK  status: ('A' for Active; 'I' for Inactive)
REMARK    1  A    between atoms: C_1  and  C_2
REMARK    2  A    between atoms: C_5  and  C_30
REMARK    3  A    between atoms: C_6  and  N_8
REMARK    4  A    between atoms: C_9  and  C_11
REMARK    5  A    between atoms: C_11  and  C_13
REMARK    6  A    between atoms: C_11  and  N_59
REMARK    7  A    between atoms: N_16  and  S_19
REMARK    8  A    between atoms: S_19  and  C_22
REMARK    9  A    between atoms: C_23  and  C_24
REMARK                            x       y       z     vdW  Elec       q    Type
REMARK                         _______ _______ _______ _____ _____    ______ ____
ROOT
ATOM      1  C   UNL     1      -0.151   1.605  -0.282  0.00  0.00    -0.060 C 
ATOM      2  C   UNL     1      -0.211   0.076  -0.361  0.00  0.00    +0.091 C 
ATOM      3  N   UNL     1       0.445  -0.480   0.832  0.00  0.00    -0.181 NA
ATOM      4  C   UNL     1       1.793  -0.001   1.172  0.00  0.00    +0.091 C 
ATOM      5  C   UNL     1       1.775   1.531   1.191  0.00  0.00    -0.060 C 
ATOM      6  N   UNL     1       1.259   2.016  -0.108  0.00  0.00    +0.389 N 
ATOM      7  H   UNL     1       1.821   1.606  -0.863  0.00  0.00    -0.081 HD
ENDROOT
BRANCH   3   8
ATOM      8  S   UNL     1      -0.315  -1.616   1.768  0.00  0.00    +0.054 S 
ATOM      9  O   UNL     1       0.268  -1.532   3.061  0.00  0.00    -0.153 OA
ATOM     10  O   UNL     1      -1.709  -1.456   1.549  0.00  0.00    -0.153 OA
BRANCH   8  11
ATOM     11  C   UNL     1       0.118  -3.197   1.122  0.00  0.00    +0.153 C 
ATOM     12  C   UNL     1       0.837  -4.037   1.853  0.00  0.00    +0.028 C 
BRANCH  12  13
ATOM     13  C   UNL     1       1.200  -5.364   1.311  0.00  0.00    -0.024 A 
ATOM     14  C   UNL     1       0.783  -5.737   0.033  0.00  0.00    +0.008 A 
ATOM     15  C   UNL     1       1.130  -6.974  -0.469  0.00  0.00    +0.001 A 
ATOM     16  C   UNL     1       1.880  -7.849   0.297  0.00  0.00    +0.000 A 
ATOM     17  C   UNL     1       2.293  -7.487   1.567  0.00  0.00    +0.001 A 
ATOM     18  C   UNL     1       1.957  -6.250   2.078  0.00  0.00    +0.008 A 
ENDBRANCH  12  13
ENDBRANCH   8  11
ENDBRANCH   3   8
BRANCH   6  19
ATOM     19  C   UNL     1       1.367   3.489  -0.175  0.00  0.00    +0.017 C 
ATOM     20  C   UNL     1       2.831   3.888   0.021  0.00  0.00    -0.004 C 
BRANCH  19  22
ATOM     21  N   UNL     1       0.332   5.466   0.891  0.00  0.00    -0.287 N 
ATOM     22  C   UNL     1       0.523   4.132   0.895  0.00  0.00    +0.203 C 
ATOM     23  O   UNL     1       0.016   3.449   1.759  0.00  0.00    -0.277 OA
ATOM     24  H   UNL     1       0.677   6.003   0.161  0.00  0.00    +0.155 HD
BRANCH  21  30
ATOM     25  C   UNL     1      -3.225   5.283   4.280  0.00  0.00    +0.044 C 
ATOM     26  C   UNL     1      -2.093   6.010   3.601  0.00  0.00    -0.049 A 
ATOM     27  C   UNL     1      -1.741   7.282   4.015  0.00  0.00    +0.004 A 
ATOM     28  C   UNL     1      -0.703   7.952   3.395  0.00  0.00    +0.005 A 
ATOM     29  C   UNL     1      -0.014   7.352   2.359  0.00  0.00    -0.029 A 
ATOM     30  C   UNL     1      -0.364   6.076   1.940  0.00  0.00    +0.036 A 
ATOM     31  C   UNL     1      -1.411   5.408   2.562  0.00  0.00    +0.027 A 
ATOM     32  C   UNL     1       1.117   8.084   1.683  0.00  0.00    +0.045 C 
ENDBRANCH  21  30
ENDBRANCH  19  22
ENDBRANCH   6  19
TORSDOF 6
