REMARK  Name = ZINC32639455
REMARK  8 active torsions:
REMARK  status: ('A' for Active; 'I' for Inactive)
REMARK    1  A    between atoms: C_1  and  C_2
REMARK    2  A    between atoms: C_2  and  C_3
REMARK    3  A    between atoms: C_3  and  C_4
REMARK    4  A    between atoms: C_3  and  C_6
REMARK    5  A    between atoms: C_4  and  C_5
REMARK    6  A    between atoms: C_6  and  N_8
REMARK    7  A    between atoms: N_10  and  C_21
REMARK    8  A    between atoms: C_25  and  C_27
REMARK                            x       y       z     vdW  Elec       q    Type
REMARK                         _______ _______ _______ _____ _____    ______ ____
ROOT
ATOM      1  N   UNL     1      -2.578  -2.622  -0.350  0.00  0.00    -0.159 NA
ATOM      2  C   UNL     1      -2.706  -3.906  -0.040  0.00  0.00    +0.154 C 
ATOM      3  N   UNL     1      -1.712  -4.811   0.224  0.00  0.00    -0.276 N 
ATOM      4  C   UNL     1      -2.018  -6.218   0.167  0.00  0.00    +0.116 C 
ATOM      5  C   UNL     1      -1.039  -7.030  -0.680  0.00  0.00    +0.190 C 
ATOM      6  S   UNL     1      -2.067  -7.607  -2.088  0.00  0.00    -0.028 S 
ATOM      7  O   UNL     1      -2.171  -9.024  -2.032  0.00  0.00    -0.174 OA
ATOM      8  O   UNL     1      -1.602  -6.989  -3.280  0.00  0.00    -0.174 OA
ATOM      9  C   UNL     1      -3.685  -6.873  -1.628  0.00  0.00    +0.182 C 
ATOM     10  C   UNL     1      -3.490  -6.531  -0.145  0.00  0.00    +0.097 C 
ATOM     11  S   UNL     1      -4.214  -4.849   0.137  0.00  0.00    -0.086 S 
ENDROOT
BRANCH   3  12
ATOM     12  C   UNL     1      -0.421  -4.377   0.544  0.00  0.00    +0.036 A 
ATOM     13  C   UNL     1       0.598  -4.475  -0.395  0.00  0.00    +0.025 A 
ATOM     14  C   UNL     1       1.871  -4.046  -0.077  0.00  0.00    +0.022 A 
ATOM     15  C   UNL     1       2.133  -3.518   1.175  0.00  0.00    +0.053 A 
ATOM     16  C   UNL     1       1.119  -3.419   2.112  0.00  0.00    +0.075 A 
ATOM     17  C   UNL     1      -0.158  -3.841   1.797  0.00  0.00    +0.037 A 
ATOM     18 CL   UNL     1       3.735  -2.980   1.572  0.00  0.00    -0.083 Cl
BRANCH  16  19
ATOM     19  C   UNL     1       1.407  -2.844   3.475  0.00  0.00    +0.419 C 
ATOM     20  F   UNL     1       0.259  -2.930   4.270  0.00  0.00    -0.166 F 
ATOM     21  F   UNL     1       2.446  -3.564   4.075  0.00  0.00    -0.166 F 
ATOM     22  F   UNL     1       1.784  -1.502   3.345  0.00  0.00    -0.166 F 
ENDBRANCH  16  19
ENDBRANCH   3  12
BRANCH   1  23
ATOM     23  C   UNL     1      -1.374  -2.115  -0.606  0.00  0.00    +0.241 C 
ATOM     24  O   UNL     1      -0.704  -2.569  -1.512  0.00  0.00    -0.273 OA
BRANCH  23  25
ATOM     25  C   UNL     1      -0.842  -0.979   0.229  0.00  0.00    +0.077 C 
BRANCH  25  27
ATOM     26  C   UNL     1       1.160   0.444   0.685  0.00  0.00    +0.004 C 
ATOM     27  C   UNL     1       0.560  -0.604  -0.255  0.00  0.00    +0.009 C 
ENDBRANCH  25  27
BRANCH  25  28
ATOM     28  C   UNL     1      -1.769   0.231   0.094  0.00  0.00    +0.009 C 
ATOM     29  C   UNL     1      -3.137  -0.105   0.692  0.00  0.00    +0.004 C 
ENDBRANCH  25  28
ENDBRANCH  23  25
ENDBRANCH   1  23
TORSDOF 6
