REMARK  Name = ZINC40498004
REMARK  4 active torsions:
REMARK  status: ('A' for Active; 'I' for Inactive)
REMARK    1  A    between atoms: C_1  and  C_2
REMARK    2  A    between atoms: C_5  and  C_21
REMARK    3  A    between atoms: N_13  and  C_14
REMARK    4  A    between atoms: C_14  and  C_15
REMARK                            x       y       z     vdW  Elec       q    Type
REMARK                         _______ _______ _______ _____ _____    ______ ____
ROOT
ATOM      1  C   UNL     1      -0.092   1.691   0.100  0.00  0.00    +0.028 C 
ATOM      2  C   UNL     1      -0.115   0.185  -0.172  0.00  0.00    +0.072 C 
ATOM      3  C   UNL     1      -1.558  -0.333  -0.105  0.00  0.00    +0.039 C 
ATOM      4  C   UNL     1      -2.149   0.027   1.258  0.00  0.00    +0.108 C 
ATOM      5  C   UNL     1      -1.232  -0.421   2.365  0.00  0.00    -0.014 A 
ATOM      6  C   UNL     1      -1.750  -0.587   3.639  0.00  0.00    +0.006 A 
ATOM      7  C   UNL     1      -0.933  -0.994   4.676  0.00  0.00    +0.000 A 
ATOM      8  C   UNL     1       0.410  -1.237   4.448  0.00  0.00    +0.002 A 
ATOM      9  C   UNL     1       0.934  -1.075   3.182  0.00  0.00    +0.023 A 
ATOM     10  C   UNL     1       0.113  -0.668   2.136  0.00  0.00    +0.034 A 
ATOM     11  N   UNL     1       0.663  -0.518   0.857  0.00  0.00    -0.321 N 
ENDROOT
BRANCH   4  12
ATOM     12  C   UNL     1      -3.484  -0.654   1.417  0.00  0.00    +0.218 C 
ATOM     13  O   UNL     1      -3.656  -1.766   0.963  0.00  0.00    -0.275 OA
ATOM     14  N   UNL     1      -4.487  -0.028   2.064  0.00  0.00    -0.329 N 
ATOM     15  H   UNL     1      -4.374   0.888   2.363  0.00  0.00    +0.145 HD
ATOM     16  H   UNL     1      -5.322  -0.493   2.230  0.00  0.00    +0.145 HD
ENDBRANCH   4  12
BRANCH  11  17
ATOM     17  C   UNL     1       1.992  -1.054   0.548  0.00  0.00    +0.164 C 
BRANCH  17  18
ATOM     18  C   UNL     1       3.035  -0.006   0.839  0.00  0.00    +0.108 A 
ATOM     19  C   UNL     1       3.446   0.895  -0.093  0.00  0.00    +0.123 A 
ATOM     20  S   UNL     1       4.584   1.786   0.761  0.00  0.00    +0.049 S 
ATOM     21  N   UNL     1       4.501   1.026   2.187  0.00  0.00    -0.109 NA
ATOM     22  N   UNL     1       3.614   0.108   2.015  0.00  0.00    -0.143 NA
ATOM     23 CL   UNL     1       2.927   1.076  -1.740  0.00  0.00    -0.072 Cl
ENDBRANCH  17  18
ENDBRANCH  11  17
TORSDOF 3
