REMARK  Name = ZINC63504812
REMARK  8 active torsions:
REMARK  status: ('A' for Active; 'I' for Inactive)
REMARK    1  A    between atoms: C_1  and  C_2
REMARK    2  A    between atoms: C_2  and  N_3
REMARK    3  A    between atoms: N_3  and  C_16
REMARK    4  A    between atoms: C_4  and  C_6
REMARK    5  A    between atoms: C_6  and  C_7
REMARK    6  A    between atoms: C_16  and  C_22
REMARK    7  A    between atoms: N_24  and  C_25
REMARK    8  A    between atoms: C_29  and  C_31
REMARK                            x       y       z     vdW  Elec       q    Type
REMARK                         _______ _______ _______ _____ _____    ______ ____
ROOT
ATOM      1  C   UNL     1       1.929  -0.296   1.746  0.00  0.00    +0.114 C 
ATOM      2  C   UNL     1       2.745  -1.529   1.353  0.00  0.00    +0.035 C 
ATOM      3  C   UNL     1       2.049  -2.788   1.871  0.00  0.00    +0.003 C 
ATOM      4  C   UNL     1       1.934  -2.717   3.395  0.00  0.00    +0.000 C 
ATOM      5  C   UNL     1       1.117  -1.485   3.788  0.00  0.00    +0.003 C 
ATOM      6  C   UNL     1       1.814  -0.225   3.270  0.00  0.00    +0.035 C 
ENDROOT
BRANCH   1   7
ATOM      7  C   UNL     1       2.615   0.945   1.235  0.00  0.00    +0.241 C 
ATOM      8  O   UNL     1       3.323   1.594   1.975  0.00  0.00    -0.273 OA
ATOM      9  N   UNL     1       2.442   1.333  -0.044  0.00  0.00    -0.284 N 
ATOM     10  H   UNL     1       1.821   0.855  -0.616  0.00  0.00    +0.155 HD
BRANCH   9  11
ATOM     11  C   UNL     1       3.157   2.425  -0.547  0.00  0.00    +0.034 A 
ATOM     12  C   UNL     1       4.468   2.643  -0.144  0.00  0.00    +0.023 A 
ATOM     13  C   UNL     1       5.172   3.722  -0.642  0.00  0.00    +0.002 A 
ATOM     14  C   UNL     1       4.572   4.585  -1.540  0.00  0.00    +0.003 A 
ATOM     15  C   UNL     1       3.266   4.372  -1.943  0.00  0.00    -0.049 A 
ATOM     16  C   UNL     1       2.559   3.290  -1.453  0.00  0.00    +0.026 A 
ATOM     17  C   UNL     1       2.616   5.315  -2.921  0.00  0.00    +0.044 C 
ENDBRANCH   9  11
ENDBRANCH   1   7
BRANCH   1  18
ATOM     18  N   UNL     1       0.590  -0.390   1.159  0.00  0.00    -0.287 N 
ATOM     19  C   UNL     1       0.333  -1.312   0.210  0.00  0.00    +0.220 C 
ATOM     20  O   UNL     1       1.202  -2.083  -0.137  0.00  0.00    -0.275 OA
BRANCH  18  22
ATOM     21  C   UNL     1      -1.300  -0.163   2.695  0.00  0.00    +0.024 C 
ATOM     22  C   UNL     1      -0.470   0.517   1.604  0.00  0.00    +0.105 C 
ENDBRANCH  18  22
BRANCH  19  23
ATOM     23  C   UNL     1      -1.034  -1.383  -0.421  0.00  0.00    +0.129 C 
BRANCH  23  24
ATOM     24  C   UNL     1      -1.057  -2.490  -1.444  0.00  0.00    -0.033 C 
ATOM     25  C   UNL     1      -1.480  -3.761  -1.256  0.00  0.00    -0.001 A 
ATOM     26  C   UNL     1      -2.021  -4.468  -0.089  0.00  0.00    +0.010 A 
ATOM     27  C   UNL     1      -2.362  -5.771  -0.211  0.00  0.00    +0.001 A 
ATOM     28  C   UNL     1      -2.212  -6.462  -1.421  0.00  0.00    +0.002 A 
ATOM     29  C   UNL     1      -1.721  -5.881  -2.536  0.00  0.00    +0.026 A 
ATOM     30  C   UNL     1      -1.331  -4.514  -2.522  0.00  0.00    +0.043 A 
ATOM     31  N   UNL     1      -0.836  -3.738  -3.456  0.00  0.00    -0.380 N 
ATOM     32  C   UNL     1      -0.620  -2.402  -2.889  0.00  0.00    +0.145 C 
ATOM     33  H   UNL     1      -0.648  -4.002  -4.370  0.00  0.00    +0.160 HD
ENDBRANCH  23  24
ENDBRANCH  19  23
ENDBRANCH   1  18
TORSDOF 6
