REMARK  Name = ZINC67029096
REMARK  8 active torsions:
REMARK  status: ('A' for Active; 'I' for Inactive)
REMARK    1  A    between atoms: C_1  and  C_2
REMARK    2  A    between atoms: C_8  and  C_10
REMARK    3  A    between atoms: C_11  and  C_27
REMARK    4  A    between atoms: C_16  and  C_18
REMARK    5  A    between atoms: C_21  and  C_23
REMARK    6  A    between atoms: C_23  and  C_24
REMARK    7  A    between atoms: C_23  and  C_25
REMARK    8  A    between atoms: C_23  and  C_26
REMARK                            x       y       z     vdW  Elec       q    Type
REMARK                         _______ _______ _______ _____ _____    ______ ____
ROOT
ATOM      1  C   UNL     1      -3.629  -4.311  -0.230  0.00  0.00    +0.056 C 
ATOM      2  C   UNL     1      -4.935  -4.218   0.099  0.00  0.00    +0.017 C 
ATOM      3  N   UNL     1      -5.686  -5.335   0.325  0.00  0.00    -0.300 N 
ATOM      4  C   UNL     1      -5.206  -6.582   0.244  0.00  0.00    +0.135 C 
ATOM      5  S   UNL     1      -6.258  -7.897   0.554  0.00  0.00    -0.019 S 
ATOM      6  N   UNL     1      -3.921  -6.837  -0.074  0.00  0.00    -0.315 N 
ATOM      7  C   UNL     1      -3.028  -5.698  -0.344  0.00  0.00    +0.147 C 
ATOM      8  C   UNL     1      -5.574  -2.858   0.218  0.00  0.00    +0.061 C 
ATOM      9  H   UNL     1      -6.621  -5.219   0.559  0.00  0.00    +0.154 HD
ATOM     10  H   UNL     1      -3.594  -7.748  -0.128  0.00  0.00    +0.149 HD
ENDROOT
BRANCH   1  18
ATOM     11  C   UNL     1      -0.218   1.517  -1.234  0.00  0.00    +0.089 C 
ATOM     12  C   UNL     1      -0.207   0.011  -1.283  0.00  0.00    +0.136 A 
ATOM     13  C   UNL     1      -1.231  -0.797  -0.954  0.00  0.00    +0.091 A 
ATOM     14  C   UNL     1      -0.812  -2.134  -1.138  0.00  0.00    +0.168 A 
ATOM     15  N   UNL     1       0.425  -2.112  -1.564  0.00  0.00    -0.063 NA
ATOM     16  O   UNL     1       0.824  -0.757  -1.667  0.00  0.00    -0.358 OA
ATOM     17  N   UNL     1      -1.581  -3.273  -0.906  0.00  0.00    -0.264 N 
ATOM     18  C   UNL     1      -2.848  -3.153  -0.465  0.00  0.00    +0.249 C 
ATOM     19  O   UNL     1      -3.323  -2.049  -0.269  0.00  0.00    -0.270 OA
ATOM     20  H   UNL     1      -1.203  -4.153  -1.062  0.00  0.00    +0.157 HD
ENDBRANCH   1  18
BRANCH   7  21
ATOM     21  C   UNL     1      -1.871  -5.783   0.617  0.00  0.00    +0.034 A 
ATOM     22  C   UNL     1      -1.871  -6.004   1.957  0.00  0.00    +0.124 A 
ATOM     23  N   UNL     1      -0.698  -6.029   2.558  0.00  0.00    -0.251 NA
ATOM     24  C   UNL     1       0.414  -5.849   1.891  0.00  0.00    +0.084 A 
ATOM     25  S   UNL     1      -0.118  -5.630   0.309  0.00  0.00    -0.074 S 
BRANCH  24  26
ATOM     26  C   UNL     1       1.828  -5.846   2.412  0.00  0.00    +0.011 C 
ATOM     27  C   UNL     1       2.139  -7.200   3.052  0.00  0.00    +0.017 C 
ATOM     28  C   UNL     1       2.797  -5.594   1.255  0.00  0.00    +0.017 C 
ATOM     29  C   UNL     1       1.984  -4.739   3.457  0.00  0.00    +0.017 C 
ENDBRANCH  24  26
ENDBRANCH   7  21
TORSDOF 3
