REMARK  Name = ZINC12599145
REMARK  7 active torsions:
REMARK  status: ('A' for Active; 'I' for Inactive)
REMARK    1  A    between atoms: C_1  and  C_2
REMARK    2  A    between atoms: C_9  and  N_14
REMARK    3  A    between atoms: C_15  and  C_17
REMARK    4  A    between atoms: C_17  and  C_19
REMARK    5  A    between atoms: C_17  and  N_26
REMARK    6  A    between atoms: C_19  and  C_20
REMARK    7  A    between atoms: C_27  and  C_29
REMARK                            x       y       z     vdW  Elec       q    Type
REMARK                         _______ _______ _______ _____ _____    ______ ____
ROOT
ATOM      1  N   UNL     1       5.338   0.833  -0.935  0.00  0.00    -0.284 N 
ATOM      2  C   UNL     1       4.292   0.180  -1.479  0.00  0.00    +0.238 C 
ATOM      3  O   UNL     1       4.454  -0.914  -1.978  0.00  0.00    -0.273 OA
ATOM      4  H   UNL     1       5.224   1.735  -0.596  0.00  0.00    +0.155 HD
ENDROOT
BRANCH   1  12
ATOM      5  C   UNL     1      12.503  -1.811   0.311  0.00  0.00    +0.062 C 
ATOM      6  C   UNL     1      11.325  -0.883   0.007  0.00  0.00    +0.256 C 
ATOM      7  C   UNL     1      10.808  -0.291   1.293  0.00  0.00    +0.258 C 
ATOM      8  O   UNL     1      11.556  -0.129   2.234  0.00  0.00    -0.271 OA
ATOM      9  N   UNL     1       9.507   0.060   1.393  0.00  0.00    -0.279 N 
ATOM     10  C   UNL     1       8.655  -0.168   0.303  0.00  0.00    +0.077 A 
ATOM     11  C   UNL     1       7.421   0.454   0.228  0.00  0.00    +0.050 A 
ATOM     12  C   UNL     1       6.590   0.209  -0.857  0.00  0.00    +0.035 A 
ATOM     13  C   UNL     1       7.002  -0.649  -1.868  0.00  0.00    +0.027 A 
ATOM     14  C   UNL     1       8.236  -1.266  -1.796  0.00  0.00    +0.049 A 
ATOM     15  C   UNL     1       9.066  -1.029  -0.714  0.00  0.00    +0.143 A 
ATOM     16  O   UNL     1      10.285  -1.628  -0.632  0.00  0.00    -0.478 OA
ATOM     17  H   UNL     1       9.168   0.465   2.207  0.00  0.00    +0.155 HD
ENDBRANCH   1  12
BRANCH   2  18
ATOM     18  C   UNL     1       2.923   0.809  -1.469  0.00  0.00    +0.164 C 
BRANCH  18  19
ATOM     19  N   UNL     1       1.966  -0.093  -2.116  0.00  0.00    -0.299 N 
ATOM     20  C   UNL     1       0.845   0.403  -2.676  0.00  0.00    +0.251 C 
ATOM     21  O   UNL     1       0.627   1.600  -2.644  0.00  0.00    -0.270 OA
ATOM     22  H   UNL     1       2.140  -1.047  -2.141  0.00  0.00    +0.150 HD
BRANCH  20  23
ATOM     23  C   UNL     1      -0.112  -0.499  -3.323  0.00  0.00    +0.074 A 
ATOM     24  C   UNL     1      -1.310  -0.197  -3.951  0.00  0.00    +0.021 A 
ATOM     25  C   UNL     1      -2.020  -1.246  -4.480  0.00  0.00    +0.008 A 
ATOM     26  C   UNL     1      -1.525  -2.506  -4.367  0.00  0.00    +0.046 A 
ATOM     27  S   UNL     1      -0.034  -2.271  -3.515  0.00  0.00    -0.092 S 
ENDBRANCH  20  23
ENDBRANCH  18  19
BRANCH  18  28
ATOM     28  C   UNL     1       2.489   1.062  -0.024  0.00  0.00    +0.067 C 
BRANCH  28  29
ATOM     29  C   UNL     1       1.175   1.801  -0.016  0.00  0.00    -0.045 A 
ATOM     30  C   UNL     1      -0.014   1.097  -0.006  0.00  0.00    +0.004 A 
ATOM     31  C   UNL     1      -1.219   1.775  -0.005  0.00  0.00    +0.000 A 
ATOM     32  C   UNL     1      -1.234   3.158  -0.002  0.00  0.00    +0.000 A 
ATOM     33  C   UNL     1      -0.044   3.861  -0.011  0.00  0.00    +0.000 A 
ATOM     34  C   UNL     1       1.161   3.183  -0.018  0.00  0.00    +0.004 A 
ENDBRANCH  28  29
ENDBRANCH  18  28
ENDBRANCH   2  18
TORSDOF 6
