REMARK  Name = ZINC36153061
REMARK  5 active torsions:
REMARK  status: ('A' for Active; 'I' for Inactive)
REMARK    1  A    between atoms: C_1  and  C_2
REMARK    2  A    between atoms: C_2  and  C_3
REMARK    3  A    between atoms: C_2  and  C_4
REMARK    4  A    between atoms: C_4  and  C_5
REMARK    5  A    between atoms: C_11  and  C_15
REMARK                            x       y       z     vdW  Elec       q    Type
REMARK                         _______ _______ _______ _____ _____    ______ ____
ROOT
ATOM      1  C   UNL     1      -0.030  -0.130   2.478  0.00  0.00    +0.152 A 
ATOM      2  N   UNL     1       0.103   0.975   3.162  0.00  0.00    -0.132 NA
ATOM      3  N   UNL     1      -0.718   0.983   4.158  0.00  0.00    -0.121 NA
ATOM      4  C   UNL     1      -1.411  -0.115   4.151  0.00  0.00    +0.209 A 
ATOM      5  N   UNL     1      -1.000  -0.872   3.086  0.00  0.00    -0.225 N 
ATOM      6  N   UNL     1      -1.458  -2.101   2.742  0.00  0.00    -0.273 N 
ATOM      7  C   UNL     1      -2.813  -2.402   3.201  0.00  0.00    +0.128 C 
ATOM      8  C   UNL     1      -2.892  -2.377   4.735  0.00  0.00    +0.106 C 
ATOM      9  S   UNL     1      -2.688  -0.640   5.256  0.00  0.00    -0.082 S 
ATOM     10  H   UNL     1      -1.370  -2.255   1.749  0.00  0.00    +0.167 HD
ENDROOT
BRANCH   7  11
ATOM     11  C   UNL     1      -3.210  -3.770   2.708  0.00  0.00    -0.025 A 
ATOM     12  C   UNL     1      -2.290  -4.803   2.720  0.00  0.00    +0.008 A 
ATOM     13  C   UNL     1      -2.653  -6.057   2.269  0.00  0.00    +0.038 A 
ATOM     14  C   UNL     1      -3.938  -6.281   1.805  0.00  0.00    +0.123 A 
ATOM     15  C   UNL     1      -4.858  -5.246   1.794  0.00  0.00    +0.038 A 
ATOM     16  C   UNL     1      -4.495  -3.994   2.250  0.00  0.00    +0.008 A 
ATOM     17  F   UNL     1      -4.294  -7.507   1.364  0.00  0.00    -0.205 F 
ENDBRANCH   7  11
BRANCH   1  18
ATOM     18  C   UNL     1       0.742  -0.511   1.242  0.00  0.00    +0.081 C 
BRANCH  18  20
ATOM     19  C   UNL     1      -0.019   1.526   0.010  0.00  0.00    +0.007 C 
ATOM     20  C   UNL     1       0.002  -0.004   0.002  0.00  0.00    -0.010 C 
ATOM     21  C   UNL     1       0.718  -0.497  -1.257  0.00  0.00    +0.007 C 
ENDBRANCH  18  20
ENDBRANCH   1  18
TORSDOF 3
