REMARK  Name = ZINC00079721
REMARK  2 active torsions:
REMARK  status: ('A' for Active; 'I' for Inactive)
REMARK    1  A    between atoms: C_4  and  C_7
REMARK    2  A    between atoms: N_18  and  N_19
REMARK                            x       y       z     vdW  Elec       q    Type
REMARK                         _______ _______ _______ _____ _____    ______ ____
ROOT
ATOM      1  C   UNL     1       3.537  -0.676  -0.029  0.00  0.00    +0.215 C 
ATOM      2  N   UNL     1       4.558   0.195   0.565  0.00  0.00    -0.320 N 
ATOM      3  C   UNL     1       4.679   0.230   1.950  0.00  0.00    +0.041 A 
ATOM      4  C   UNL     1       5.118   1.358   2.619  0.00  0.00    +0.024 A 
ATOM      5  C   UNL     1       5.215   1.341   3.998  0.00  0.00    +0.002 A 
ATOM      6  C   UNL     1       4.875   0.203   4.714  0.00  0.00    +0.001 A 
ATOM      7  C   UNL     1       4.438  -0.931   4.061  0.00  0.00    +0.015 A 
ATOM      8  C   UNL     1       4.338  -0.928   2.672  0.00  0.00    +0.059 A 
ATOM      9  C   UNL     1       3.887  -2.115   1.924  0.00  0.00    +0.270 C 
ATOM     10  O   UNL     1       3.823  -3.199   2.471  0.00  0.00    -0.268 OA
ATOM     11  N   UNL     1       3.546  -1.983   0.629  0.00  0.00    -0.164 N 
ATOM     12  H   UNL     1       5.136   0.735   0.003  0.00  0.00    +0.148 HD
ENDROOT
BRANCH  11  13
ATOM     13  N   UNL     1       3.191  -3.124  -0.103  0.00  0.00    -0.184 NA
ATOM     14  C   UNL     1       3.937  -3.527  -1.061  0.00  0.00    +0.037 C 
ATOM     15  C   UNL     1       5.283  -2.859  -1.324  0.00  0.00    +0.052 C 
ATOM     16  C   UNL     1       6.327  -3.874  -1.704  0.00  0.00    +0.006 C 
ATOM     17  C   UNL     1       6.327  -4.081  -3.225  0.00  0.00    +0.000 C 
ATOM     18  C   UNL     1       5.264  -4.985  -3.671  0.00  0.00    +0.000 C 
ATOM     19  C   UNL     1       3.860  -4.433  -3.389  0.00  0.00    +0.006 C 
ATOM     20  C   UNL     1       3.492  -4.686  -1.948  0.00  0.00    +0.052 C 
ENDBRANCH  11  13
BRANCH   1  24
ATOM     21  C   UNL     1      -0.308   1.122   0.445  0.00  0.00    +0.000 A 
ATOM     22  C   UNL     1       0.818   1.916   0.336  0.00  0.00    +0.000 A 
ATOM     23  C   UNL     1       2.062   1.334   0.183  0.00  0.00    +0.007 A 
ATOM     24  C   UNL     1       2.181  -0.042   0.139  0.00  0.00    -0.008 A 
ATOM     25  C   UNL     1       1.055  -0.837   0.249  0.00  0.00    +0.007 A 
ATOM     26  C   UNL     1      -0.190  -0.255   0.401  0.00  0.00    +0.000 A 
ENDBRANCH   1  24
TORSDOF 2
