REMARK  Name = ZINC62791510
REMARK  4 active torsions:
REMARK  status: ('A' for Active; 'I' for Inactive)
REMARK    1  A    between atoms: C_3  and  N_10
REMARK    2  A    between atoms: C_6  and  C_7
REMARK    3  A    between atoms: C_14  and  C_17
REMARK    4  A    between atoms: C_17  and  O_18
REMARK                            x       y       z     vdW  Elec       q    Type
REMARK                         _______ _______ _______ _____ _____    ______ ____
ROOT
ATOM      1  C   UNL     1      -0.017   1.393   0.010  0.00  0.00    +0.021 A 
ATOM      2  C   UNL     1       1.167   2.097   0.002  0.00  0.00    +0.026 A 
ATOM      3  C   UNL     1       2.381   1.419  -0.013  0.00  0.00    +0.048 A 
ATOM      4  C   UNL     1       2.404   0.026  -0.021  0.00  0.00    +0.063 A 
ATOM      5  C   UNL     1       1.224  -0.684  -0.013  0.00  0.00    +0.040 A 
ATOM      6  C   UNL     1       0.002  -0.004   0.002  0.00  0.00    +0.053 A 
ATOM      7 CL   UNL     1       3.922  -0.816  -0.040  0.00  0.00    -0.082 Cl
ENDROOT
BRANCH   3   8
ATOM      8  N   UNL     1       3.576   2.134  -0.021  0.00  0.00    -0.328 N 
ATOM      9  C   UNL     1       4.203   2.529  -1.290  0.00  0.00    +0.105 C 
ATOM     10  C   UNL     1       4.455   4.040  -1.264  0.00  0.00    +0.019 C 
ATOM     11  C   UNL     1       5.273   4.396  -0.021  0.00  0.00    +0.009 C 
ATOM     12  C   UNL     1       4.486   4.017   1.235  0.00  0.00    +0.032 C 
ATOM     13  C   UNL     1       4.231   2.511   1.239  0.00  0.00    +0.111 C 
BRANCH  12  14
ATOM     14  C   UNL     1       5.290   4.404   2.478  0.00  0.00    +0.160 C 
BRANCH  14  15
ATOM     15  O   UNL     1       5.427   5.826   2.533  0.00  0.00    -0.395 OA
ATOM     16  H   UNL     1       5.927   6.143   3.297  0.00  0.00    +0.209 HD
ENDBRANCH  14  15
ENDBRANCH  12  14
ENDBRANCH   3   8
BRANCH   6  17
ATOM     17  C   UNL     1      -1.227  -0.738   0.010  0.00  0.00    +0.099 C 
ATOM     18  N   UNL     1      -2.203  -1.321   0.017  0.00  0.00    -0.191 NA
ENDBRANCH   6  17
TORSDOF 4
