REMARK  Name = ZINC14266750
REMARK  4 active torsions:
REMARK  status: ('A' for Active; 'I' for Inactive)
REMARK    1  A    between atoms: C_1  and  C_2
REMARK    2  A    between atoms: C_9  and  C_12
REMARK    3  A    between atoms: N_14  and  C_15
REMARK    4  A    between atoms: C_19  and  N_21
REMARK                            x       y       z     vdW  Elec       q    Type
REMARK                         _______ _______ _______ _____ _____    ______ ____
ROOT
ATOM      1  C   UNL     1      -3.615   3.139  -0.050  0.00  0.00    +0.231 C 
ATOM      2  O   UNL     1      -3.604   1.926  -0.057  0.00  0.00    -0.274 OA
ATOM      3  N   UNL     1      -2.457   3.823   0.045  0.00  0.00    -0.285 N 
ATOM      4  H   UNL     1      -2.470   4.789   0.127  0.00  0.00    +0.155 HD
ENDROOT
BRANCH   1  13
ATOM      5  C   UNL     1      -8.658  -0.077  -3.655  0.00  0.00    +0.044 C 
ATOM      6  C   UNL     1      -7.992   0.714  -2.559  0.00  0.00    -0.049 A 
ATOM      7  C   UNL     1      -8.155   0.350  -1.234  0.00  0.00    +0.004 A 
ATOM      8  C   UNL     1      -7.557   1.072  -0.226  0.00  0.00    +0.005 A 
ATOM      9  C   UNL     1      -6.771   2.192  -0.507  0.00  0.00    -0.032 A 
ATOM     10  C   UNL     1      -6.608   2.532  -1.848  0.00  0.00    +0.012 A 
ATOM     11  C   UNL     1      -7.213   1.814  -2.862  0.00  0.00    +0.018 A 
ATOM     12  S   UNL     1      -5.528   3.949  -1.885  0.00  0.00    -0.112 S 
ATOM     13  C   UNL     1      -4.923   3.881  -0.148  0.00  0.00    +0.142 C 
ATOM     14  C   UNL     1      -6.075   3.079   0.497  0.00  0.00    +0.060 C 
ENDBRANCH   1  13
BRANCH   3  15
ATOM     15  C   UNL     1      -1.236   3.139   0.024  0.00  0.00    +0.036 A 
ATOM     16  C   UNL     1      -0.161   3.612   0.765  0.00  0.00    +0.026 A 
ATOM     17  C   UNL     1       1.044   2.938   0.739  0.00  0.00    +0.042 A 
ATOM     18  C   UNL     1       1.178   1.786  -0.017  0.00  0.00    +0.154 A 
ATOM     19  C   UNL     1       0.106   1.309  -0.752  0.00  0.00    +0.163 A 
ATOM     20  C   UNL     1      -1.099   1.983  -0.733  0.00  0.00    +0.059 A 
ATOM     21  F   UNL     1       2.357   1.125  -0.037  0.00  0.00    -0.203 F 
BRANCH  19  22
ATOM     22  N   UNL     1       0.252   0.077  -1.559  0.00  0.00    +0.059 N 
ATOM     23  O   UNL     1      -0.691  -0.342  -2.207  0.00  0.00    -0.126 OA
ATOM     24  O   UNL     1       1.315  -0.518  -1.576  0.00  0.00    -0.126 OA
ENDBRANCH  19  22
ENDBRANCH   3  15
TORSDOF 3
