REMARK  Name = ZINC06403870
REMARK  4 active torsions:
REMARK  status: ('A' for Active; 'I' for Inactive)
REMARK    1  A    between atoms: C_1  and  O_2
REMARK    2  A    between atoms: O_2  and  C_3
REMARK    3  A    between atoms: C_8  and  C_9
REMARK    4  A    between atoms: C_14  and  O_20
REMARK                            x       y       z     vdW  Elec       q    Type
REMARK                         _______ _______ _______ _____ _____    ______ ____
ROOT
ATOM      1  C   UNL     1      -0.003  -2.828  -0.013  0.00  0.00    +0.068 A 
ATOM      2  C   UNL     1       0.740  -2.936  -1.146  0.00  0.00    +0.208 A 
ATOM      3  O   UNL     1       1.881  -3.628  -1.197  0.00  0.00    -0.462 OA
ATOM      4  C   UNL     1       2.219  -4.510  -0.238  0.00  0.00    +0.142 A 
ATOM      5  C   UNL     1       3.229  -5.439  -0.454  0.00  0.00    +0.092 A 
ATOM      6  C   UNL     1       3.569  -6.332   0.547  0.00  0.00    +0.120 A 
ATOM      7  C   UNL     1       2.908  -6.310   1.774  0.00  0.00    +0.046 A 
ATOM      8  C   UNL     1       1.909  -5.407   2.002  0.00  0.00    +0.019 A 
ATOM      9  C   UNL     1       1.553  -4.503   1.001  0.00  0.00    +0.065 A 
ATOM     10  C   UNL     1       0.473  -3.517   1.201  0.00  0.00    +0.200 A 
ATOM     11  O   UNL     1       0.002  -3.287   2.302  0.00  0.00    -0.286 OA
ENDROOT
BRANCH   1  17
ATOM     12  C   UNL     1      -1.201  -0.638   0.010  0.00  0.00    +0.132 A 
ATOM     13  C   UNL     1      -2.373   0.100   0.019  0.00  0.00    +0.095 A 
ATOM     14  C   UNL     1      -3.600  -0.544   0.028  0.00  0.00    +0.170 A 
ATOM     15  C   UNL     1      -3.659  -1.937   0.027  0.00  0.00    +0.167 A 
ATOM     16  C   UNL     1      -2.492  -2.679   0.018  0.00  0.00    +0.062 A 
ATOM     17  C   UNL     1      -1.256  -2.034   0.003  0.00  0.00    +0.034 A 
ATOM     18  O   UNL     1      -4.971  -2.318   0.037  0.00  0.00    -0.453 OA
ATOM     19  C   UNL     1      -5.706  -1.154   0.456  0.00  0.00    +0.466 C 
ATOM     20  O   UNL     1      -4.875  -0.055   0.038  0.00  0.00    -0.452 OA
BRANCH  12  22
ATOM     21  C   UNL     1      -0.017   1.425   0.010  0.00  0.00    +0.277 C 
ATOM     22  O   UNL     1       0.002  -0.004   0.002  0.00  0.00    -0.494 OA
ENDBRANCH  12  22
ENDBRANCH   1  17
BRANCH   6  23
ATOM     23  O   UNL     1       4.557  -7.238   0.332  0.00  0.00    -0.507 OA
ATOM     24  H   UNL     1       5.438  -6.926   0.580  0.00  0.00    +0.292 HD
ENDBRANCH   6  23
TORSDOF 3
