REMARK  Name = ZINC65331099
REMARK  2 active torsions:
REMARK  status: ('A' for Active; 'I' for Inactive)
REMARK    1  A    between atoms: C_4  and  C_7
REMARK    2  A    between atoms: N_17  and  C_18
REMARK                            x       y       z     vdW  Elec       q    Type
REMARK                         _______ _______ _______ _____ _____    ______ ____
ROOT
ATOM      1  C   UNL     1       3.711  -0.707  -0.038  0.00  0.00    +0.063 C 
ATOM      2  C   UNL     1       3.817  -1.605   1.199  0.00  0.00    +0.109 C 
ATOM      3  C   UNL     1       2.973  -2.838   1.056  0.00  0.00    +0.219 C 
ATOM      4  O   UNL     1       2.409  -3.278   2.036  0.00  0.00    -0.275 OA
ATOM      5  N   UNL     1       2.820  -3.475  -0.125  0.00  0.00    -0.270 N 
ATOM      6  C   UNL     1       3.360  -2.881  -1.264  0.00  0.00    +0.132 A 
ATOM      7  C   UNL     1       3.789  -1.578  -1.265  0.00  0.00    +0.020 A 
ATOM      8  C   UNL     1       4.265  -1.284  -2.534  0.00  0.00    +0.141 A 
ATOM      9  N   UNL     1       4.136  -2.355  -3.281  0.00  0.00    -0.173 NA
ATOM     10  N   UNL     1       3.568  -3.378  -2.501  0.00  0.00    -0.218 N 
ATOM     11  H   UNL     1       2.348  -4.321  -0.179  0.00  0.00    +0.156 HD
ENDROOT
BRANCH   1  15
ATOM     12  C   UNL     1      -0.017   1.378   0.010  0.00  0.00    +0.000 A 
ATOM     13  C   UNL     1       1.171   2.086   0.002  0.00  0.00    +0.000 A 
ATOM     14  C   UNL     1       2.377   1.411  -0.013  0.00  0.00    +0.004 A 
ATOM     15  C   UNL     1       2.396   0.029  -0.020  0.00  0.00    -0.039 A 
ATOM     16  C   UNL     1       1.208  -0.679  -0.012  0.00  0.00    +0.004 A 
ATOM     17  C   UNL     1       0.002  -0.004   0.002  0.00  0.00    +0.000 A 
ENDBRANCH   1  15
BRANCH  10  18
ATOM     18  C   UNL     1       3.272  -4.680  -2.929  0.00  0.00    +0.067 A 
ATOM     19  C   UNL     1       3.410  -5.748  -2.054  0.00  0.00    +0.028 A 
ATOM     20  C   UNL     1       3.117  -7.030  -2.478  0.00  0.00    +0.002 A 
ATOM     21  C   UNL     1       2.688  -7.248  -3.775  0.00  0.00    +0.000 A 
ATOM     22  C   UNL     1       2.550  -6.186  -4.649  0.00  0.00    +0.002 A 
ATOM     23  C   UNL     1       2.835  -4.902  -4.228  0.00  0.00    +0.028 A 
ENDBRANCH  10  18
TORSDOF 2
