REMARK  Name = ZINC64155781
REMARK  8 active torsions:
REMARK  status: ('A' for Active; 'I' for Inactive)
REMARK    1  A    between atoms: C_1  and  C_2
REMARK    2  A    between atoms: C_4  and  C_32
REMARK    3  A    between atoms: C_8  and  C_12
REMARK    4  A    between atoms: C_12  and  C_14
REMARK    5  A    between atoms: C_12  and  N_15
REMARK    6  A    between atoms: C_18  and  C_21
REMARK    7  A    between atoms: N_23  and  C_24
REMARK    8  A    between atoms: C_29  and  O_30
REMARK                            x       y       z     vdW  Elec       q    Type
REMARK                         _______ _______ _______ _____ _____    ______ ____
ROOT
ATOM      1  N   UNL     1       6.069  -3.879  -0.953  0.00  0.00    -0.293 NA
ATOM      2  C   UNL     1       6.645  -2.704  -1.620  0.00  0.00    +0.086 C 
ATOM      3  C   UNL     1       7.309  -3.134  -2.931  0.00  0.00    +0.028 C 
ATOM      4  C   UNL     1       8.403  -4.162  -2.630  0.00  0.00    +0.078 C 
ATOM      5  C   UNL     1       7.785  -5.353  -1.893  0.00  0.00    +0.028 C 
ATOM      6  C   UNL     1       7.108  -4.859  -0.612  0.00  0.00    +0.086 C 
ENDROOT
BRANCH   4   7
ATOM      7  C   UNL     1       9.020  -4.634  -3.922  0.00  0.00    +0.220 C 
ATOM      8  O   UNL     1       8.623  -4.192  -4.980  0.00  0.00    -0.275 OA
ATOM      9  N   UNL     1      10.011  -5.546  -3.901  0.00  0.00    -0.282 N 
ATOM     10  H   UNL     1      10.373  -5.851  -3.054  0.00  0.00    +0.155 HD
BRANCH   9  11
ATOM     11  C   UNL     1      10.520  -6.055  -5.104  0.00  0.00    +0.075 A 
ATOM     12  C   UNL     1      10.603  -5.240  -6.223  0.00  0.00    +0.027 A 
ATOM     13  C   UNL     1      11.106  -5.743  -7.408  0.00  0.00    +0.002 A 
ATOM     14  C   UNL     1      11.527  -7.059  -7.481  0.00  0.00    +0.004 A 
ATOM     15  C   UNL     1      11.448  -7.876  -6.369  0.00  0.00    +0.047 A 
ATOM     16  C   UNL     1      10.950  -7.378  -5.176  0.00  0.00    +0.138 A 
BRANCH  16  17
ATOM     17  O   UNL     1      10.877  -8.179  -4.080  0.00  0.00    -0.505 OA
ATOM     18  H   UNL     1      10.043  -8.662  -4.001  0.00  0.00    +0.292 HD
ENDBRANCH  16  17
ENDBRANCH   9  11
ENDBRANCH   4   7
BRANCH   1  19
ATOM     19  C   UNL     1       5.305  -3.486   0.238  0.00  0.00    +0.119 C 
ATOM     20  C   UNL     1       6.191  -2.642   1.157  0.00  0.00    +0.032 C 
BRANCH  19  27
ATOM     21  C   UNL     1       0.037   1.600   0.018  0.00  0.00    +0.024 C 
ATOM     22  C   UNL     1       0.049   0.070   0.017  0.00  0.00    +0.076 C 
ATOM     23  C   UNL     1       0.809  -0.464  -1.177  0.00  0.00    -0.045 C 
ATOM     24  C   UNL     1       1.904  -1.201  -0.940  0.00  0.00    +0.071 C 
ATOM     25  C   UNL     1       2.284  -1.434   0.470  0.00  0.00    +0.112 C 
ATOM     26  N   UNL     1       3.344  -2.148   0.766  0.00  0.00    -0.226 NA
ATOM     27  C   UNL     1       4.103  -2.679  -0.180  0.00  0.00    +0.140 C 
ATOM     28  N   UNL     1       3.864  -2.539  -1.462  0.00  0.00    -0.160 NA
ATOM     29  C   UNL     1       2.825  -1.841  -1.933  0.00  0.00    +0.271 C 
ATOM     30  O   UNL     1       2.632  -1.731  -3.132  0.00  0.00    -0.268 OA
ATOM     31  S   UNL     1       1.047  -0.581   1.417  0.00  0.00    -0.098 S 
ATOM     32  C   UNL     1       0.351  -0.178  -2.583  0.00  0.00    +0.041 C 
ENDBRANCH  19  27
ENDBRANCH   1  19
TORSDOF 5
