REMARK  Name = ZINC35552441
REMARK  6 active torsions:
REMARK  status: ('A' for Active; 'I' for Inactive)
REMARK    1  A    between atoms: C_1  and  C_2
REMARK    2  A    between atoms: C_8  and  C_10
REMARK    3  A    between atoms: C_10  and  C_11
REMARK    4  A    between atoms: C_11  and  C_13
REMARK    5  A    between atoms: C_11  and  C_22
REMARK    6  A    between atoms: C_17  and  N_19
REMARK                            x       y       z     vdW  Elec       q    Type
REMARK                         _______ _______ _______ _____ _____    ______ ____
ROOT
ATOM      1  C   UNL     1       4.025  -4.885   0.961  0.00  0.00    +0.060 C 
ENDROOT
BRANCH   1   2
ATOM      2  C   UNL     1       4.527  -5.477   2.252  0.00  0.00    -0.015 A 
ATOM      3  C   UNL     1       5.047  -4.804   3.291  0.00  0.00    +0.087 A 
ATOM      4  N   UNL     1       5.393  -5.676   4.287  0.00  0.00    -0.360 N 
ATOM      5  H   UNL     1       5.787  -5.424   5.136  0.00  0.00    +0.165 HD
ATOM      6  C   UNL     1       5.096  -6.965   3.904  0.00  0.00    +0.047 A 
ATOM      7  C   UNL     1       4.535  -6.896   2.615  0.00  0.00    +0.003 A 
ATOM      8  C   UNL     1       4.129  -8.065   1.970  0.00  0.00    +0.010 A 
ATOM      9  C   UNL     1       4.274  -9.272   2.595  0.00  0.00    +0.001 A 
ATOM     10  C   UNL     1       4.823  -9.344   3.868  0.00  0.00    +0.002 A 
ATOM     11  C   UNL     1       5.240  -8.204   4.520  0.00  0.00    +0.026 A 
ENDBRANCH   1   2
BRANCH   1  12
ATOM     12  C   UNL     1       5.150  -4.158   0.271  0.00  0.00    -0.037 A 
ATOM     13  C   UNL     1       5.782  -3.103   0.903  0.00  0.00    +0.004 A 
ATOM     14  C   UNL     1       6.814  -2.436   0.271  0.00  0.00    +0.003 A 
ATOM     15  C   UNL     1       7.215  -2.823  -0.995  0.00  0.00    +0.033 A 
ATOM     16  C   UNL     1       6.583  -3.878  -1.627  0.00  0.00    +0.126 A 
ATOM     17  C   UNL     1       5.554  -4.548  -0.992  0.00  0.00    +0.037 A 
BRANCH  16  18
ATOM     18  N   UNL     1       7.011  -4.292  -2.982  0.00  0.00    +0.056 N 
ATOM     19  O   UNL     1       7.913  -3.708  -3.536  0.00  0.00    -0.126 OA
ATOM     20  O   UNL     1       6.459  -5.214  -3.535  0.00  0.00    -0.126 OA
ENDBRANCH  16  18
ENDBRANCH   1  12
BRANCH   1  21
ATOM     21  C   UNL     1       2.889  -3.904   1.257  0.00  0.00    +0.109 C 
BRANCH  21  29
ATOM     22  C   UNL     1      -0.019   1.526   0.010  0.00  0.00    +0.007 C 
ATOM     23  C   UNL     1       0.002  -0.004   0.002  0.00  0.00    -0.011 C 
ATOM     24  C   UNL     1       0.717  -0.497  -1.258  0.00  0.00    +0.022 C 
ATOM     25  C   UNL     1       0.705  -2.029  -1.280  0.00  0.00    +0.108 C 
ATOM     26  N   UNL     1       1.285  -2.525  -0.025  0.00  0.00    -0.301 N 
ATOM     27  C   UNL     1       0.731  -2.043   1.248  0.00  0.00    +0.108 C 
ATOM     28  C   UNL     1       0.742  -0.511   1.242  0.00  0.00    +0.022 C 
ATOM     29  C   UNL     1       2.305  -3.405  -0.040  0.00  0.00    +0.216 C 
ATOM     30  O   UNL     1       2.754  -3.796  -1.097  0.00  0.00    -0.276 OA
ENDBRANCH  21  29
ENDBRANCH   1  21
TORSDOF 5
