REMARK  Name = ZINC00075906
REMARK  3 active torsions:
REMARK  status: ('A' for Active; 'I' for Inactive)
REMARK    1  A    between atoms: C_4  and  C_7
REMARK    2  A    between atoms: C_21  and  N_25
REMARK    3  A    between atoms: C_22  and  C_23
REMARK                            x       y       z     vdW  Elec       q    Type
REMARK                         _______ _______ _______ _____ _____    ______ ____
ROOT
ATOM      1  C   UNL     1       1.296  -2.134  -0.023  0.00  0.00    +0.105 C 
ATOM      2  C   UNL     1       1.212  -0.632  -0.014  0.00  0.00    +0.092 A 
ATOM      3  C   UNL     1       0.002  -0.004   0.002  0.00  0.00    +0.152 A 
ATOM      4  C   UNL     1      -0.018   1.467   0.010  0.00  0.00    +0.060 A 
ATOM      5  C   UNL     1      -1.223   2.172   0.020  0.00  0.00    +0.015 A 
ATOM      6  C   UNL     1      -1.206   3.549   0.033  0.00  0.00    +0.001 A 
ATOM      7  C   UNL     1       0.001   4.235   0.026  0.00  0.00    +0.004 A 
ATOM      8  C   UNL     1       1.198   3.550   0.010  0.00  0.00    +0.047 A 
ATOM      9  C   UNL     1       1.202   2.162   0.002  0.00  0.00    +0.143 A 
ATOM     10  O   UNL     1       2.365   1.475  -0.013  0.00  0.00    -0.422 OA
ATOM     11  C   UNL     1       2.392   0.133  -0.022  0.00  0.00    +0.345 A 
ATOM     12  O   UNL     1       3.468  -0.438  -0.037  0.00  0.00    -0.245 OA
ATOM     13  O   UNL     1      -1.152  -0.698   0.010  0.00  0.00    -0.440 OA
ATOM     14  C   UNL     1      -1.164  -1.987  -0.374  0.00  0.00    +0.199 C 
ATOM     15  C   UNL     1      -0.030  -2.727  -0.412  0.00  0.00    +0.098 C 
ENDROOT
BRANCH   1  19
ATOM     16  C   UNL     1       2.372  -3.513   3.875  0.00  0.00    +0.000 A 
ATOM     17  C   UNL     1       3.191  -3.785   2.795  0.00  0.00    +0.000 A 
ATOM     18  C   UNL     1       2.843  -3.338   1.534  0.00  0.00    +0.004 A 
ATOM     19  C   UNL     1       1.676  -2.621   1.352  0.00  0.00    -0.034 A 
ATOM     20  C   UNL     1       0.859  -2.344   2.433  0.00  0.00    +0.004 A 
ATOM     21  C   UNL     1       1.205  -2.794   3.693  0.00  0.00    +0.000 A 
ENDBRANCH   1  19
BRANCH  14  22
ATOM     22  N   UNL     1      -2.354  -2.566  -0.737  0.00  0.00    -0.328 N 
ATOM     23  H   UNL     1      -3.173  -2.047  -0.714  0.00  0.00    +0.145 HD
ATOM     24  H   UNL     1      -2.376  -3.495  -1.016  0.00  0.00    +0.145 HD
ENDBRANCH  14  22
BRANCH  15  25
ATOM     25  C   UNL     1      -0.095  -4.095  -0.830  0.00  0.00    +0.101 C 
ATOM     26  N   UNL     1      -0.146  -5.180  -1.162  0.00  0.00    -0.191 NA
ENDBRANCH  15  25
TORSDOF 3
