REMARK  Name = ZINC58819500
REMARK  5 active torsions:
REMARK  status: ('A' for Active; 'I' for Inactive)
REMARK    1  A    between atoms: C_3  and  N_11
REMARK    2  A    between atoms: C_6  and  C_7
REMARK    3  A    between atoms: C_7  and  C_8
REMARK    4  A    between atoms: C_12  and  C_14
REMARK    5  A    between atoms: C_16  and  N_21
REMARK                            x       y       z     vdW  Elec       q    Type
REMARK                         _______ _______ _______ _____ _____    ______ ____
ROOT
ATOM      1  N   UNL     1       3.583   2.123  -0.021  0.00  0.00    -0.281 N 
ATOM      2  C   UNL     1       3.627   3.374   0.478  0.00  0.00    +0.249 C 
ATOM      3  O   UNL     1       2.647   3.848   1.017  0.00  0.00    -0.270 OA
ATOM      4  H   UNL     1       4.387   1.716  -0.382  0.00  0.00    +0.155 HD
ENDROOT
BRANCH   2   5
ATOM      5  C   UNL     1       4.868   4.170   0.370  0.00  0.00    +0.052 A 
ATOM      6  C   UNL     1       5.995   3.630  -0.254  0.00  0.00    +0.046 A 
ATOM      7  C   UNL     1       7.150   4.378  -0.351  0.00  0.00    +0.127 A 
ATOM      8  C   UNL     1       7.194   5.660   0.168  0.00  0.00    +0.034 A 
ATOM      9  C   UNL     1       6.082   6.201   0.787  0.00  0.00    +0.017 A 
ATOM     10  C   UNL     1       4.917   5.466   0.886  0.00  0.00    +0.026 A 
ATOM     11  I   UNL     1       3.231   6.291   1.817  0.00  0.00    -0.043 I 
BRANCH   7  12
ATOM     12  N   UNL     1       8.345   3.807  -1.012  0.00  0.00    +0.056 N 
ATOM     13  O   UNL     1       8.308   2.687  -1.466  0.00  0.00    -0.126 OA
ATOM     14  O   UNL     1       9.358   4.461  -1.099  0.00  0.00    -0.126 OA
ENDBRANCH   7  12
ENDBRANCH   2   5
BRANCH   1  17
ATOM     15  C   UNL     1      -0.013   1.375  -0.180  0.00  0.00    +0.006 A 
ATOM     16  C   UNL     1       1.174   2.081  -0.183  0.00  0.00    +0.023 A 
ATOM     17  C   UNL     1       2.380   1.411  -0.019  0.00  0.00    +0.034 A 
ATOM     18  C   UNL     1       2.387   0.032   0.148  0.00  0.00    +0.023 A 
ATOM     19  C   UNL     1       1.196  -0.668   0.150  0.00  0.00    +0.006 A 
ATOM     20  C   UNL     1      -0.002   0.003  -0.014  0.00  0.00    -0.039 A 
BRANCH  20  21
ATOM     21  C   UNL     1      -1.299  -0.765  -0.011  0.00  0.00    +0.130 C 
BRANCH  21  22
ATOM     22  C   UNL     1      -1.634  -1.190  -1.418  0.00  0.00    +0.215 C 
ATOM     23  O   UNL     1      -0.893  -0.899  -2.332  0.00  0.00    -0.276 OA
ATOM     24  N   UNL     1      -2.758  -1.894  -1.659  0.00  0.00    -0.329 N 
ATOM     25  H   UNL     1      -3.351  -2.127  -0.928  0.00  0.00    +0.145 HD
ATOM     26  H   UNL     1      -2.974  -2.168  -2.564  0.00  0.00    +0.145 HD
ENDBRANCH  21  22
ENDBRANCH  20  21
ENDBRANCH   1  17
TORSDOF 5
