REMARK  Name = ZINC39012550
REMARK  10 active torsions:
REMARK  status: ('A' for Active; 'I' for Inactive)
REMARK    1  A    between atoms: C_1  and  C_2
REMARK    2  A    between atoms: C_2  and  C_3
REMARK    3  A    between atoms: C_2  and  C_4
REMARK    4  A    between atoms: C_4  and  N_5
REMARK    5  A    between atoms: N_5  and  C_6
REMARK    6  A    between atoms: N_5  and  S_19
REMARK    7  A    between atoms: C_6  and  C_7
REMARK    8  A    between atoms: S_19  and  C_22
REMARK    9  A    between atoms: C_25  and  O_28
REMARK   10  A    between atoms: O_28  and  C_29
REMARK                            x       y       z     vdW  Elec       q    Type
REMARK                         _______ _______ _______ _____ _____    ______ ____
ROOT
ATOM      1  N   UNL     1      -1.759  -1.669   0.453  0.00  0.00    -0.175 NA
ENDROOT
BRANCH   1   2
ATOM      2  S   UNL     1      -2.403  -2.569  -0.779  0.00  0.00    +0.061 S 
ATOM      3  O   UNL     1      -3.338  -3.459  -0.185  0.00  0.00    -0.153 OA
ATOM      4  O   UNL     1      -2.767  -1.653  -1.803  0.00  0.00    -0.153 OA
BRANCH   2   5
ATOM      5  C   UNL     1      -1.104  -3.564  -1.432  0.00  0.00    +0.106 A 
ATOM      6  C   UNL     1      -0.317  -3.083  -2.462  0.00  0.00    +0.032 A 
ATOM      7  C   UNL     1       0.702  -3.862  -2.975  0.00  0.00    +0.047 A 
ATOM      8  C   UNL     1       0.935  -5.128  -2.457  0.00  0.00    +0.120 A 
ATOM      9  C   UNL     1       0.144  -5.608  -1.423  0.00  0.00    +0.047 A 
ATOM     10  C   UNL     1      -0.870  -4.823  -0.909  0.00  0.00    +0.032 A 
BRANCH   8  11
ATOM     11  O   UNL     1       1.937  -5.896  -2.961  0.00  0.00    -0.495 OA
ATOM     12  C   UNL     1       2.119  -7.188  -2.378  0.00  0.00    +0.277 C 
ENDBRANCH   8  11
ENDBRANCH   2   5
ENDBRANCH   1   2
BRANCH   1  13
ATOM     13  C   UNL     1      -1.242  -0.324   0.186  0.00  0.00    +0.112 C 
BRANCH  13  15
ATOM     14  C   UNL     1       0.761   0.976  -0.549  0.00  0.00    +0.008 C 
ATOM     15  C   UNL     1       0.252  -0.405  -0.130  0.00  0.00    -0.001 C 
ATOM     16  C   UNL     1       1.012  -0.873   1.113  0.00  0.00    +0.008 C 
ENDBRANCH  13  15
ENDBRANCH   1  13
BRANCH   1  17
ATOM     17  C   UNL     1      -1.705  -2.218   1.810  0.00  0.00    +0.126 C 
BRANCH  17  18
ATOM     18  C   UNL     1      -2.628  -1.409   2.724  0.00  0.00    +0.114 C 
ATOM     19  C   UNL     1      -2.309  -1.786   4.158  0.00  0.00    -0.003 C 
ATOM     20  C   UNL     1      -3.328  -2.284   4.914  0.00  0.00    -0.007 A 
ATOM     21  C   UNL     1      -3.107  -2.674   6.308  0.00  0.00    +0.009 A 
ATOM     22  C   UNL     1      -4.152  -3.166   7.023  0.00  0.00    +0.001 A 
ATOM     23  C   UNL     1      -5.419  -3.306   6.456  0.00  0.00    +0.002 A 
ATOM     24  C   UNL     1      -5.688  -2.964   5.169  0.00  0.00    +0.024 A 
ATOM     25  C   UNL     1      -4.676  -2.443   4.342  0.00  0.00    +0.040 A 
ATOM     26  N   UNL     1      -4.952  -2.109   3.081  0.00  0.00    -0.284 N 
ATOM     27  C   UNL     1      -4.048  -1.618   2.251  0.00  0.00    +0.225 C 
ATOM     28  O   UNL     1      -4.360  -1.333   1.110  0.00  0.00    -0.275 OA
ATOM     29  H   UNL     1      -5.858  -2.235   2.758  0.00  0.00    +0.155 HD
ENDBRANCH  17  18
ENDBRANCH   1  17
TORSDOF 7
