REMARK  Name = ZINC63557921
REMARK  6 active torsions:
REMARK  status: ('A' for Active; 'I' for Inactive)
REMARK    1  A    between atoms: C_1  and  C_2
REMARK    2  A    between atoms: C_8  and  C_11
REMARK    3  A    between atoms: C_11  and  C_12
REMARK    4  A    between atoms: C_12  and  N_13
REMARK    5  A    between atoms: C_15  and  C_20
REMARK    6  A    between atoms: N_22  and  C_23
REMARK                            x       y       z     vdW  Elec       q    Type
REMARK                         _______ _______ _______ _____ _____    ______ ____
ROOT
ATOM      1  N   UNL     1      -1.347  -2.622   5.611  0.00  0.00    -0.300 N 
ATOM      2  C   UNL     1      -1.228  -3.661   6.640  0.00  0.00    +0.121 C 
ATOM      3  C   UNL     1      -0.846  -2.914   7.938  0.00  0.00    +0.101 C 
ATOM      4  C   UNL     1      -1.419  -1.504   7.670  0.00  0.00    +0.110 C 
ATOM      5  C   UNL     1      -1.456  -1.400   6.161  0.00  0.00    +0.216 C 
ATOM      6  O   UNL     1      -1.569  -0.366   5.538  0.00  0.00    -0.276 OA
ENDROOT
BRANCH   3   7
ATOM      7  C   UNL     1      -1.504  -3.546   9.137  0.00  0.00    +0.222 C 
ATOM      8  O   UNL     1      -2.223  -4.513   8.996  0.00  0.00    -0.275 OA
ATOM      9  N   UNL     1      -1.294  -3.036  10.367  0.00  0.00    -0.283 N 
ATOM     10  H   UNL     1      -0.670  -2.304  10.489  0.00  0.00    +0.155 HD
BRANCH   9  11
ATOM     11  C   UNL     1      -1.979  -3.564  11.470  0.00  0.00    +0.069 A 
ATOM     12  C   UNL     1      -2.269  -4.920  11.524  0.00  0.00    +0.029 A 
ATOM     13  C   UNL     1      -2.944  -5.439  12.613  0.00  0.00    +0.040 A 
ATOM     14  C   UNL     1      -3.331  -4.607  13.650  0.00  0.00    +0.126 A 
ATOM     15  C   UNL     1      -3.044  -3.254  13.600  0.00  0.00    +0.078 A 
ATOM     16  C   UNL     1      -2.363  -2.731  12.515  0.00  0.00    +0.147 A 
ATOM     17  F   UNL     1      -2.077  -1.412  12.468  0.00  0.00    -0.203 F 
ATOM     18  F   UNL     1      -3.991  -5.118  14.713  0.00  0.00    -0.205 F 
ENDBRANCH   9  11
ENDBRANCH   3   7
BRANCH   1  19
ATOM     19  C   UNL     1      -1.341  -2.882   4.169  0.00  0.00    +0.112 C 
BRANCH  19  20
ATOM     20  C   UNL     1       0.096  -2.836   3.648  0.00  0.00    +0.052 C 
BRANCH  20  28
ATOM     21  C   UNL     1       0.060   1.450  -0.003  0.00  0.00    +0.044 C 
ATOM     22  C   UNL     1       0.075  -0.057  -0.004  0.00  0.00    -0.050 A 
ATOM     23  C   UNL     1       0.083  -0.738  -1.229  0.00  0.00    +0.005 A 
ATOM     24  C   UNL     1       0.097  -2.086  -1.314  0.00  0.00    +0.026 A 
ATOM     25  C   UNL     1       0.103  -2.880  -0.134  0.00  0.00    +0.043 A 
ATOM     26  N   UNL     1       0.115  -4.179   0.043  0.00  0.00    -0.380 N 
ATOM     27  C   UNL     1       0.115  -4.454   1.485  0.00  0.00    +0.144 C 
ATOM     28  C   UNL     1       0.102  -3.103   2.165  0.00  0.00    -0.040 C 
ATOM     29  C   UNL     1       0.095  -2.184   1.173  0.00  0.00    -0.001 A 
ATOM     30  C   UNL     1       0.086  -0.716   1.177  0.00  0.00    +0.013 A 
ATOM     31  H   UNL     1       0.122  -4.846  -0.660  0.00  0.00    +0.160 HD
ENDBRANCH  20  28
ENDBRANCH  19  20
ENDBRANCH   1  19
TORSDOF 5
