REMARK  Name = ZINC40568248
REMARK  8 active torsions:
REMARK  status: ('A' for Active; 'I' for Inactive)
REMARK    1  A    between atoms: C_1  and  C_2
REMARK    2  A    between atoms: C_2  and  O_3
REMARK    3  A    between atoms: O_3  and  C_4
REMARK    4  A    between atoms: C_7  and  C_10
REMARK    5  A    between atoms: C_24  and  N_30
REMARK    6  A    between atoms: C_25  and  C_26
REMARK    7  A    between atoms: C_26  and  O_28
REMARK    8  A    between atoms: O_28  and  C_29
REMARK                            x       y       z     vdW  Elec       q    Type
REMARK                         _______ _______ _______ _____ _____    ______ ____
ROOT
ATOM      1  C   UNL     1      -1.969  -6.242   0.014  0.00  0.00    +0.101 C 
ATOM      2  C   UNL     1      -2.772  -6.635   1.224  0.00  0.00    +0.092 A 
ATOM      3  C   UNL     1      -4.118  -6.831   1.131  0.00  0.00    +0.152 A 
ATOM      4  C   UNL     1      -4.851  -7.215   2.348  0.00  0.00    +0.060 A 
ATOM      5  C   UNL     1      -6.230  -7.435   2.320  0.00  0.00    +0.015 A 
ATOM      6  C   UNL     1      -6.885  -7.793   3.477  0.00  0.00    +0.001 A 
ATOM      7  C   UNL     1      -6.182  -7.934   4.665  0.00  0.00    +0.004 A 
ATOM      8  C   UNL     1      -4.821  -7.720   4.706  0.00  0.00    +0.047 A 
ATOM      9  C   UNL     1      -4.140  -7.359   3.550  0.00  0.00    +0.143 A 
ATOM     10  O   UNL     1      -2.807  -7.147   3.571  0.00  0.00    -0.422 OA
ATOM     11  C   UNL     1      -2.131  -6.801   2.464  0.00  0.00    +0.345 A 
ATOM     12  O   UNL     1      -0.927  -6.626   2.536  0.00  0.00    -0.245 OA
ATOM     13  O   UNL     1      -4.774  -6.682  -0.035  0.00  0.00    -0.441 OA
ATOM     14  C   UNL     1      -4.096  -6.713  -1.196  0.00  0.00    +0.195 C 
ATOM     15  C   UNL     1      -2.757  -6.511  -1.238  0.00  0.00    +0.105 C 
ENDROOT
BRANCH   1  19
ATOM     16  C   UNL     1      -1.028  -2.079   0.228  0.00  0.00    +0.121 A 
ATOM     17  C   UNL     1      -0.010  -3.021   0.187  0.00  0.00    +0.046 A 
ATOM     18  C   UNL     1      -0.317  -4.366   0.118  0.00  0.00    +0.008 A 
ATOM     19  C   UNL     1      -1.637  -4.774   0.090  0.00  0.00    -0.035 A 
ATOM     20  C   UNL     1      -2.654  -3.838   0.130  0.00  0.00    +0.008 A 
ATOM     21  C   UNL     1      -2.352  -2.492   0.206  0.00  0.00    +0.046 A 
BRANCH  16  22
ATOM     22  O   UNL     1      -0.728  -0.755   0.297  0.00  0.00    -0.492 OA
BRANCH  22  24
ATOM     23  C   UNL     1       0.795   1.118   0.395  0.00  0.00    +0.048 C 
ATOM     24  C   UNL     1       0.656  -0.404   0.316  0.00  0.00    +0.225 C 
ENDBRANCH  22  24
ENDBRANCH  16  22
ENDBRANCH   1  19
BRANCH  14  25
ATOM     25  N   UNL     1      -4.775  -6.954  -2.360  0.00  0.00    -0.329 N 
ATOM     26  H   UNL     1      -5.718  -7.180  -2.334  0.00  0.00    +0.145 HD
ATOM     27  H   UNL     1      -4.313  -6.898  -3.211  0.00  0.00    +0.145 HD
ENDBRANCH  14  25
BRANCH  15  28
ATOM     28  C   UNL     1      -2.096  -6.552  -2.475  0.00  0.00    +0.341 C 
ATOM     29  O   UNL     1      -1.474  -7.548  -2.799  0.00  0.00    -0.245 OA
BRANCH  28  30
ATOM     30  O   UNL     1      -2.150  -5.489  -3.306  0.00  0.00    -0.465 OA
ATOM     31  C   UNL     1      -1.453  -5.601  -4.548  0.00  0.00    +0.280 C 
ENDBRANCH  28  30
ENDBRANCH  15  28
TORSDOF 6
