REMARK  Name = ZINC58393419
REMARK  7 active torsions:
REMARK  status: ('A' for Active; 'I' for Inactive)
REMARK    1  A    between atoms: C_1  and  C_2
REMARK    2  A    between atoms: C_2  and  C_4
REMARK    3  A    between atoms: C_2  and  N_15
REMARK    4  A    between atoms: C_10  and  O_13
REMARK    5  A    between atoms: O_13  and  C_14
REMARK    6  A    between atoms: C_16  and  C_18
REMARK    7  A    between atoms: N_21  and  C_23
REMARK                            x       y       z     vdW  Elec       q    Type
REMARK                         _______ _______ _______ _____ _____    ______ ____
ROOT
ATOM      1  N   UNL     1       0.711  -0.489   1.189  0.00  0.00    -0.300 N 
ATOM      2  C   UNL     1       0.051  -0.633   2.355  0.00  0.00    +0.265 C 
ATOM      3  O   UNL     1      -1.132  -0.361   2.423  0.00  0.00    -0.268 OA
ATOM      4  H   UNL     1       1.654  -0.707   1.135  0.00  0.00    +0.150 HD
ENDROOT
BRANCH   2   5
ATOM      5  C   UNL     1       0.765  -1.123   3.552  0.00  0.00    +0.147 A 
ATOM      6  C   UNL     1       0.209  -1.329   4.837  0.00  0.00    +0.054 A 
ATOM      7  C   UNL     1       1.229  -1.779   5.605  0.00  0.00    +0.115 A 
ATOM      8  N   UNL     1       2.332  -1.835   4.814  0.00  0.00    -0.239 N 
ATOM      9  N   UNL     1       2.039  -1.454   3.622  0.00  0.00    -0.162 NA
BRANCH   8  10
ATOM     10  C   UNL     1       3.602  -2.252   5.235  0.00  0.00    +0.067 A 
ATOM     11  C   UNL     1       3.802  -2.655   6.549  0.00  0.00    +0.028 A 
ATOM     12  C   UNL     1       5.054  -3.066   6.961  0.00  0.00    +0.003 A 
ATOM     13  C   UNL     1       6.109  -3.076   6.068  0.00  0.00    +0.020 A 
ATOM     14  C   UNL     1       5.914  -2.676   4.758  0.00  0.00    +0.043 A 
ATOM     15  C   UNL     1       4.661  -2.269   4.338  0.00  0.00    +0.047 A 
ATOM     16 CL   UNL     1       7.241  -2.691   3.639  0.00  0.00    -0.083 Cl
ENDBRANCH   8  10
ENDBRANCH   2   5
BRANCH   1  18
ATOM     17  C   UNL     1      -0.019   1.526   0.010  0.00  0.00    +0.036 C 
ATOM     18  C   UNL     1       0.002  -0.004   0.002  0.00  0.00    +0.136 C 
BRANCH  18  19
ATOM     19  C   UNL     1       0.707  -0.490  -1.238  0.00  0.00    +0.126 A 
ATOM     20  C   UNL     1       0.096  -0.923  -2.349  0.00  0.00    +0.055 A 
ATOM     21  C   UNL     1       1.163  -1.292  -3.287  0.00  0.00    +0.024 A 
ATOM     22  C   UNL     1       1.187  -1.800  -4.586  0.00  0.00    +0.012 A 
ATOM     23  C   UNL     1       2.385  -2.042  -5.199  0.00  0.00    +0.004 A 
ATOM     24  C   UNL     1       3.577  -1.787  -4.539  0.00  0.00    +0.049 A 
ATOM     25  C   UNL     1       3.576  -1.284  -3.251  0.00  0.00    +0.163 A 
ATOM     26  C   UNL     1       2.364  -1.030  -2.610  0.00  0.00    +0.177 A 
ATOM     27  O   UNL     1       2.042  -0.547  -1.392  0.00  0.00    -0.454 OA
BRANCH  25  28
ATOM     28  O   UNL     1       4.750  -1.037  -2.612  0.00  0.00    -0.491 OA
ATOM     29  C   UNL     1       5.952  -1.322  -3.332  0.00  0.00    +0.277 C 
ENDBRANCH  25  28
ENDBRANCH  18  19
ENDBRANCH   1  18
TORSDOF 5
