REMARK  Name = ZINC41474604
REMARK  8 active torsions:
REMARK  status: ('A' for Active; 'I' for Inactive)
REMARK    1  A    between atoms: C_1  and  C_2
REMARK    2  A    between atoms: C_4  and  C_21
REMARK    3  A    between atoms: C_11  and  N_15
REMARK    4  A    between atoms: N_15  and  C_16
REMARK    5  A    between atoms: C_16  and  C_17
REMARK    6  A    between atoms: C_16  and  C_18
REMARK    7  A    between atoms: C_16  and  C_19
REMARK    8  A    between atoms: C_19  and  O_20
REMARK                            x       y       z     vdW  Elec       q    Type
REMARK                         _______ _______ _______ _____ _____    ______ ____
ROOT
ATOM      1  C   UNL     1      -0.018   1.503   0.010  0.00  0.00    +0.044 C 
ATOM      2  C   UNL     1       0.002  -0.004   0.002  0.00  0.00    -0.037 A 
ATOM      3  C   UNL     1       0.006  -0.697  -1.189  0.00  0.00    +0.027 A 
ATOM      4  C   UNL     1       0.025  -2.082  -1.191  0.00  0.00    +0.040 A 
ATOM      5  N   UNL     1       0.040  -2.751  -0.054  0.00  0.00    -0.245 NA
ATOM      6  C   UNL     1       0.037  -2.130   1.107  0.00  0.00    +0.111 A 
ATOM      7  C   UNL     1       0.023  -0.728   1.215  0.00  0.00    +0.037 A 
ATOM      8  C   UNL     1       0.029  -0.186   2.587  0.00  0.00    +0.093 A 
ATOM      9  C   UNL     1       0.051  -1.133   3.618  0.00  0.00    +0.080 A 
ATOM     10  S   UNL     1       0.052  -2.699   2.789  0.00  0.00    -0.064 S 
ATOM     11  C   UNL     1       0.058  -0.738   4.949  0.00  0.00    +0.137 A 
ATOM     12  N   UNL     1       0.041   0.566   5.221  0.00  0.00    -0.220 NA
ATOM     13  C   UNL     1       0.020   1.446   4.237  0.00  0.00    +0.224 A 
ATOM     14  N   UNL     1       0.014   1.110   2.971  0.00  0.00    -0.234 NA
ATOM     15  C   UNL     1       0.029  -2.829  -2.500  0.00  0.00    +0.065 C 
ENDROOT
BRANCH  11  16
ATOM     16  N   UNL     1       0.080  -1.677   5.969  0.00  0.00    -0.321 N 
ATOM     17  H   UNL     1       0.091  -2.623   5.757  0.00  0.00    +0.148 HD
BRANCH  16  18
ATOM     18  C   UNL     1       0.086  -1.239   7.367  0.00  0.00    +0.051 C 
ATOM     19  C   UNL     1       1.325  -0.381   7.628  0.00  0.00    +0.033 C 
ATOM     20  C   UNL     1      -1.173  -0.416   7.650  0.00  0.00    +0.033 C 
BRANCH  18  21
ATOM     21  C   UNL     1       0.111  -2.464   8.285  0.00  0.00    +0.180 C 
BRANCH  21  22
ATOM     22  O   UNL     1       0.117  -2.037   9.649  0.00  0.00    -0.393 OA
ATOM     23  H   UNL     1       0.133  -2.762  10.288  0.00  0.00    +0.209 HD
ENDBRANCH  21  22
ENDBRANCH  18  21
ENDBRANCH  16  18
ENDBRANCH  11  16
TORSDOF 4
