REMARK  Name = ZINC63588440
REMARK  6 active torsions:
REMARK  status: ('A' for Active; 'I' for Inactive)
REMARK    1  A    between atoms: C_1  and  C_2
REMARK    2  A    between atoms: N_9  and  C_13
REMARK    3  A    between atoms: C_13  and  C_14
REMARK    4  A    between atoms: N_16  and  C_17
REMARK    5  A    between atoms: C_17  and  C_18
REMARK    6  A    between atoms: C_18  and  C_19
REMARK                            x       y       z     vdW  Elec       q    Type
REMARK                         _______ _______ _______ _____ _____    ______ ____
ROOT
ATOM      1  C   UNL     1      -0.344  -4.307   3.212  0.00  0.00    +0.230 C 
ATOM      2  O   UNL     1       0.445  -4.952   2.555  0.00  0.00    -0.274 OA
ATOM      3  N   UNL     1      -0.465  -4.535   4.535  0.00  0.00    -0.314 N 
ATOM      4  H   UNL     1      -1.096  -4.018   5.061  0.00  0.00    +0.149 HD
ENDROOT
BRANCH   1   5
ATOM      5  C   UNL     1      -1.189  -3.249   2.550  0.00  0.00    +0.205 C 
BRANCH   5  14
ATOM      6  C   UNL     1      -0.018   1.503   0.010  0.00  0.00    +0.062 C 
ATOM      7  C   UNL     1       0.002  -0.004   0.002  0.00  0.00    +0.037 C 
ATOM      8  N   UNL     1       0.008  -0.732  -1.044  0.00  0.00    -0.192 NA
ATOM      9  N   UNL     1      -0.001  -2.091  -0.784  0.00  0.00    -0.234 N 
ATOM     10  C   UNL     1      -0.232  -3.216  -1.700  0.00  0.00    +0.137 C 
ATOM     11  C   UNL     1      -1.506  -3.922  -1.215  0.00  0.00    +0.116 C 
ATOM     12  C   UNL     1      -1.564  -3.971   0.280  0.00  0.00    +0.219 C 
ATOM     13  O   UNL     1      -2.309  -4.790   0.775  0.00  0.00    -0.275 OA
ATOM     14  N   UNL     1      -0.873  -3.197   1.120  0.00  0.00    -0.272 N 
ATOM     15  C   UNL     1       0.185  -2.300   0.668  0.00  0.00    +0.186 C 
ATOM     16  C   UNL     1       0.026  -0.882   1.236  0.00  0.00    +0.096 C 
ENDBRANCH   5  14
ENDBRANCH   1   5
BRANCH   3  17
ATOM     17  C   UNL     1       0.357  -5.562   5.180  0.00  0.00    +0.108 C 
BRANCH  17  18
ATOM     18  C   UNL     1       0.026  -5.617   6.673  0.00  0.00    +0.052 C 
BRANCH  18  19
ATOM     19  C   UNL     1       0.872  -6.675   7.335  0.00  0.00    -0.040 C 
ATOM     20  C   UNL     1       2.048  -6.491   7.976  0.00  0.00    -0.001 A 
ATOM     21  C   UNL     1       2.863  -5.298   8.238  0.00  0.00    +0.010 A 
ATOM     22  C   UNL     1       4.022  -5.433   8.922  0.00  0.00    +0.001 A 
ATOM     23  C   UNL     1       4.463  -6.679   9.386  0.00  0.00    +0.002 A 
ATOM     24  C   UNL     1       3.770  -7.820   9.185  0.00  0.00    +0.026 A 
ATOM     25  C   UNL     1       2.536  -7.796   8.478  0.00  0.00    +0.043 A 
ATOM     26  N   UNL     1       1.694  -8.748   8.159  0.00  0.00    -0.380 N 
ATOM     27  C   UNL     1       0.572  -8.154   7.424  0.00  0.00    +0.144 C 
ATOM     28  H   UNL     1       1.794  -9.688   8.377  0.00  0.00    +0.160 HD
ENDBRANCH  18  19
ENDBRANCH  17  18
ENDBRANCH   3  17
TORSDOF 5
