REMARK  Name = ZINC15984096
REMARK  8 active torsions:
REMARK  status: ('A' for Active; 'I' for Inactive)
REMARK    1  A    between atoms: C_1  and  C_2
REMARK    2  A    between atoms: C_2  and  O_3
REMARK    3  A    between atoms: O_3  and  C_4
REMARK    4  A    between atoms: C_4  and  C_6
REMARK    5  A    between atoms: C_8  and  C_15
REMARK    6  A    between atoms: C_10  and  N_12
REMARK    7  A    between atoms: N_17  and  C_18
REMARK    8  A    between atoms: C_21  and  C_25
REMARK                            x       y       z     vdW  Elec       q    Type
REMARK                         _______ _______ _______ _____ _____    ______ ____
ROOT
ATOM      1  C   UNL     1      -3.639  -4.900  -0.413  0.00  0.00    +0.062 A 
ATOM      2  C   UNL     1      -2.437  -4.202  -0.317  0.00  0.00    +0.028 A 
ATOM      3  C   UNL     1      -2.452  -2.813  -0.204  0.00  0.00    +0.040 A 
ATOM      4  C   UNL     1      -3.671  -2.131  -0.183  0.00  0.00    +0.045 A 
ATOM      5  C   UNL     1      -4.858  -2.828  -0.285  0.00  0.00    +0.128 A 
ATOM      6  C   UNL     1      -4.851  -4.205  -0.397  0.00  0.00    +0.047 A 
ENDROOT
BRANCH   3   7
ATOM      7  C   UNL     1      -1.182  -2.064  -0.100  0.00  0.00    +0.248 C 
ATOM      8  O   UNL     1      -0.122  -2.660  -0.113  0.00  0.00    -0.270 OA
ATOM      9  N   UNL     1      -1.198  -0.721   0.009  0.00  0.00    -0.281 N 
ATOM     10  H   UNL     1      -2.043  -0.252   0.097  0.00  0.00    +0.155 HD
BRANCH   9  11
ATOM     11  C   UNL     1       0.002  -0.004  -0.004  0.00  0.00    +0.035 A 
ATOM     12  C   UNL     1       0.126   1.158   0.747  0.00  0.00    +0.023 A 
ATOM     13  C   UNL     1       1.313   1.865   0.732  0.00  0.00    +0.006 A 
ATOM     14  C   UNL     1       2.377   1.417  -0.029  0.00  0.00    -0.037 A 
ATOM     15  C   UNL     1       2.256   0.260  -0.778  0.00  0.00    +0.018 A 
ATOM     16  C   UNL     1       1.072  -0.451  -0.767  0.00  0.00    +0.038 A 
ATOM     17  I   UNL     1       3.872  -0.414  -1.929  0.00  0.00    -0.043 I 
ATOM     18  C   UNL     1       3.670   2.189  -0.042  0.00  0.00    +0.045 C 
ENDBRANCH   9  11
ENDBRANCH   3   7
BRANCH   5  19
ATOM     19  N   UNL     1      -6.146  -2.098  -0.268  0.00  0.00    +0.056 N 
ATOM     20  O   UNL     1      -7.195  -2.711  -0.352  0.00  0.00    -0.126 OA
ATOM     21  O   UNL     1      -6.156  -0.884  -0.169  0.00  0.00    -0.126 OA
ENDBRANCH   5  19
BRANCH   1  22
ATOM     22  C   UNL     1      -3.632  -6.373  -0.533  0.00  0.00    +0.339 C 
ATOM     23  O   UNL     1      -2.578  -6.976  -0.547  0.00  0.00    -0.245 OA
BRANCH  22  24
ATOM     24  O   UNL     1      -4.795  -7.046  -0.626  0.00  0.00    -0.461 OA
BRANCH  24  26
ATOM     25  C   UNL     1      -6.123  -9.077  -0.836  0.00  0.00    +0.048 C 
ATOM     26  C   UNL     1      -4.713  -8.491  -0.741  0.00  0.00    +0.229 C 
ENDBRANCH  24  26
ENDBRANCH  22  24
ENDBRANCH   1  22
TORSDOF 6
