REMARK  Name = ZINC57564584
REMARK  6 active torsions:
REMARK  status: ('A' for Active; 'I' for Inactive)
REMARK    1  A    between atoms: C_1  and  C_2
REMARK    2  A    between atoms: C_5  and  N_8
REMARK    3  A    between atoms: C_9  and  C_30
REMARK    4  A    between atoms: C_11  and  C_17
REMARK    5  A    between atoms: N_19  and  C_20
REMARK    6  A    between atoms: C_22  and  N_27
REMARK                            x       y       z     vdW  Elec       q    Type
REMARK                         _______ _______ _______ _____ _____    ______ ____
ROOT
ATOM      1  N   UNL     1       0.059  -4.170  -0.017  0.00  0.00    -0.263 N 
ATOM      2  C   UNL     1       0.168  -4.870   1.257  0.00  0.00    +0.130 C 
ATOM      3  C   UNL     1       0.658  -6.302   1.041  0.00  0.00    +0.101 C 
ATOM      4  C   UNL     1      -0.212  -6.962  -0.036  0.00  0.00    +0.024 C 
ATOM      5  C   UNL     1       0.064  -6.269  -1.373  0.00  0.00    +0.097 C 
ATOM      6  C   UNL     1      -0.015  -4.779  -1.201  0.00  0.00    +0.220 C 
ATOM      7  O   UNL     1      -0.148  -4.093  -2.192  0.00  0.00    -0.275 OA
ENDROOT
BRANCH   1  12
ATOM      8  C   UNL     1      -0.080   1.501   0.067  0.00  0.00    +0.044 C 
ATOM      9  C   UNL     1      -0.043  -0.006   0.045  0.00  0.00    -0.050 A 
ATOM     10  C   UNL     1       1.018  -0.661  -0.553  0.00  0.00    +0.005 A 
ATOM     11  C   UNL     1       1.055  -2.041  -0.575  0.00  0.00    +0.024 A 
ATOM     12  C   UNL     1       0.025  -2.771   0.004  0.00  0.00    +0.037 A 
ATOM     13  C   UNL     1      -1.038  -2.110   0.604  0.00  0.00    +0.024 A 
ATOM     14  C   UNL     1      -1.067  -0.730   0.627  0.00  0.00    +0.005 A 
ENDBRANCH   1  12
BRANCH   2  15
ATOM     15  C   UNL     1       1.145  -4.142   2.144  0.00  0.00    +0.011 A 
ATOM     16  C   UNL     1       1.123  -3.985   3.490  0.00  0.00    +0.013 A 
ATOM     17  C   UNL     1       2.137  -3.270   4.098  0.00  0.00    +0.008 A 
ATOM     18  C   UNL     1       3.124  -2.747   3.330  0.00  0.00    +0.045 A 
ATOM     19  S   UNL     1       2.636  -3.269   1.695  0.00  0.00    -0.100 S 
ENDBRANCH   2  15
BRANCH   3  20
ATOM     20  C   UNL     1       2.096  -6.282   0.591  0.00  0.00    +0.223 C 
ATOM     21  O   UNL     1       2.538  -5.309   0.017  0.00  0.00    -0.275 OA
ATOM     22  N   UNL     1       2.890  -7.345   0.826  0.00  0.00    -0.283 N 
ATOM     23  H   UNL     1       2.562  -8.088   1.357  0.00  0.00    +0.155 HD
BRANCH  22  24
ATOM     24  C   UNL     1       4.189  -7.377   0.304  0.00  0.00    +0.071 A 
ATOM     25  C   UNL     1       4.503  -6.636  -0.827  0.00  0.00    +0.059 A 
ATOM     26  C   UNL     1       5.786  -6.669  -1.339  0.00  0.00    +0.128 A 
ATOM     27  C   UNL     1       6.757  -7.440  -0.728  0.00  0.00    +0.035 A 
ATOM     28  C   UNL     1       6.450  -8.181   0.398  0.00  0.00    +0.042 A 
ATOM     29  C   UNL     1       5.169  -8.148   0.920  0.00  0.00    +0.145 A 
ATOM     30  F   UNL     1       4.870  -8.867   2.023  0.00  0.00    -0.204 F 
BRANCH  26  31
ATOM     31  N   UNL     1       6.120  -5.878  -2.545  0.00  0.00    +0.056 N 
ATOM     32  O   UNL     1       5.271  -5.204  -3.080  0.00  0.00    -0.126 OA
ATOM     33  O   UNL     1       7.242  -5.907  -2.995  0.00  0.00    -0.126 OA
ENDBRANCH  26  31
ENDBRANCH  22  24
ENDBRANCH   3  20
TORSDOF 5
