REMARK  Name = ZINC62753669
REMARK  3 active torsions:
REMARK  status: ('A' for Active; 'I' for Inactive)
REMARK    1  A    between atoms: C_1  and  C_2
REMARK    2  A    between atoms: N_11  and  C_12
REMARK    3  A    between atoms: C_17  and  C_19
REMARK                            x       y       z     vdW  Elec       q    Type
REMARK                         _______ _______ _______ _____ _____    ______ ____
ROOT
ATOM      1  C   UNL     1       0.004   1.531   0.016  0.00  0.00    -0.008 C 
ATOM      2  C   UNL     1       0.012   0.002   0.003  0.00  0.00    -0.040 C 
ATOM      3  C   UNL     1       0.621  -0.496  -1.304  0.00  0.00    -0.051 A 
ATOM      4  C   UNL     1       0.369   0.076  -2.549  0.00  0.00    +0.010 A 
ATOM      5  C   UNL     1       0.957  -0.431  -3.658  0.00  0.00    +0.045 A 
ATOM      6  S   UNL     1       1.921  -1.776  -2.983  0.00  0.00    -0.101 S 
ATOM      7  C   UNL     1       1.469  -1.563  -1.285  0.00  0.00    -0.010 A 
ATOM      8  C   UNL     1       1.887  -2.343  -0.081  0.00  0.00    +0.024 C 
ATOM      9  C   UNL     1       0.942  -1.959   1.070  0.00  0.00    -0.072 C 
ATOM     10  N   UNL     1       0.821  -0.495   1.123  0.00  0.00    +0.387 N 
ATOM     11  H   UNL     1       1.742  -0.086   1.074  0.00  0.00    -0.081 HD
ENDROOT
BRANCH  10  12
ATOM     12  C   UNL     1       0.186  -0.104   2.389  0.00  0.00    -0.054 C 
ATOM     13  C   UNL     1       1.113  -0.448   3.573  0.00  0.00    -0.014 C 
ATOM     14  C   UNL     1       0.146  -0.915   4.689  0.00  0.00    -0.001 C 
ATOM     15  C   UNL     1      -0.926  -1.710   3.902  0.00  0.00    +0.013 C 
ATOM     16  C   UNL     1      -1.111  -0.906   2.597  0.00  0.00    +0.089 C 
BRANCH  16  17
ATOM     17  C   UNL     1      -1.329  -1.844   1.439  0.00  0.00    +0.357 C 
ATOM     18  O   UNL     1      -1.994  -2.856   1.590  0.00  0.00    -0.246 OA
ATOM     19  O   UNL     1      -0.842  -1.593   0.350  0.00  0.00    -0.246 OA
ENDBRANCH  16  17
ENDBRANCH  10  12
TORSDOF 2
