REMARK  Name = ZINC66291448
REMARK  7 active torsions:
REMARK  status: ('A' for Active; 'I' for Inactive)
REMARK    1  A    between atoms: C_1  and  C_2
REMARK    2  A    between atoms: C_2  and  C_3
REMARK    3  A    between atoms: C_2  and  C_4
REMARK    4  A    between atoms: C_4  and  N_5
REMARK    5  A    between atoms: N_5  and  C_6
REMARK    6  A    between atoms: C_7  and  C_9
REMARK    7  A    between atoms: C_21  and  C_23
REMARK                            x       y       z     vdW  Elec       q    Type
REMARK                         _______ _______ _______ _____ _____    ______ ____
ROOT
ATOM      1  C   UNL     1       3.090   1.961  -1.771  0.00  0.00    +0.163 C 
ATOM      2  C   UNL     1       3.037   2.848  -0.507  0.00  0.00    +0.037 C 
ATOM      3  C   UNL     1       3.225   4.283  -1.089  0.00  0.00    +0.012 C 
ATOM      4  C   UNL     1       1.867   4.709  -1.650  0.00  0.00    +0.005 C 
ATOM      5  C   UNL     1       2.024   5.896  -2.597  0.00  0.00    +0.000 C 
ATOM      6  C   UNL     1       2.902   5.469  -3.778  0.00  0.00    +0.002 C 
ATOM      7  C   UNL     1       4.290   5.114  -3.245  0.00  0.00    +0.023 C 
ATOM      8  C   UNL     1       4.231   3.998  -2.219  0.00  0.00    +0.080 C 
ATOM      9  N   UNL     1       3.817   2.716  -2.807  0.00  0.00    -0.283 N 
ATOM     10  C   UNL     1       4.056   2.304  -4.067  0.00  0.00    +0.247 C 
ATOM     11  O   UNL     1       4.768   2.965  -4.798  0.00  0.00    -0.270 OA
ENDROOT
BRANCH  10  12
ATOM     12  C   UNL     1       3.453   1.048  -4.561  0.00  0.00    +0.037 A 
ATOM     13  C   UNL     1       2.955   0.107  -3.658  0.00  0.00    +0.013 A 
ATOM     14  C   UNL     1       2.393  -1.063  -4.126  0.00  0.00    +0.001 A 
ATOM     15  C   UNL     1       2.323  -1.305  -5.486  0.00  0.00    +0.000 A 
ATOM     16  C   UNL     1       2.816  -0.377  -6.386  0.00  0.00    +0.001 A 
ATOM     17  C   UNL     1       3.375   0.800  -5.932  0.00  0.00    +0.013 A 
ENDBRANCH  10  12
BRANCH   1  20
ATOM     18  N   UNL     1       0.945   0.741  -1.597  0.00  0.00    -0.303 N 
ATOM     19  C   UNL     1       1.493   0.039  -0.434  0.00  0.00    +0.132 C 
ATOM     20  C   UNL     1       1.691   1.658  -2.244  0.00  0.00    +0.236 C 
ATOM     21  O   UNL     1       1.237   2.239  -3.206  0.00  0.00    -0.274 OA
BRANCH  18  22
ATOM     22  C   UNL     1      -0.414   0.446  -2.056  0.00  0.00    +0.110 C 
BRANCH  22  24
ATOM     23  C   UNL     1      -1.138   2.821  -1.774  0.00  0.00    +0.009 C 
ATOM     24  C   UNL     1      -1.404   1.375  -1.350  0.00  0.00    +0.000 C 
ATOM     25  C   UNL     1      -2.833   0.985  -1.735  0.00  0.00    +0.009 C 
ENDBRANCH  22  24
ENDBRANCH  18  22
ENDBRANCH   1  20
TORSDOF 4
