REMARK  Name = ZINC05127428
REMARK  9 active torsions:
REMARK  status: ('A' for Active; 'I' for Inactive)
REMARK    1  A    between atoms: C_1  and  N_2
REMARK    2  A    between atoms: N_2  and  C_3
REMARK    3  A    between atoms: N_2  and  C_4
REMARK    4  A    between atoms: C_7  and  C_10
REMARK    5  A    between atoms: N_16  and  N_17
REMARK    6  A    between atoms: C_18  and  C_19
REMARK    7  A    between atoms: C_22  and  N_25
REMARK    8  A    between atoms: N_25  and  C_26
REMARK    9  A    between atoms: N_25  and  C_27
REMARK                            x       y       z     vdW  Elec       q    Type
REMARK                         _______ _______ _______ _____ _____    ______ ____
ROOT
ATOM      1  C   UNL     1      -1.016   4.812  11.963  0.00  0.00    +0.028 C 
ATOM      2  C   UNL     1      -0.103   4.071  11.281  0.00  0.00    +0.078 C 
ATOM      3  C   UNL     1       1.242   3.633  11.695  0.00  0.00    +0.256 C 
ATOM      4  O   UNL     1       1.699   3.923  12.786  0.00  0.00    -0.269 OA
ATOM      5  N   UNL     1       1.929   2.906  10.830  0.00  0.00    -0.259 N 
ATOM      6  C   UNL     1       1.398   2.593   9.598  0.00  0.00    +0.187 C 
ATOM      7  N   UNL     1       1.942   1.889   8.625  0.00  0.00    -0.126 NA
ATOM      8  S   UNL     1      -0.211   3.365   9.643  0.00  0.00    -0.047 S 
ATOM      9  H   UNL     1       2.817   2.594  11.063  0.00  0.00    +0.157 HD
ENDROOT
BRANCH   1  13
ATOM     10  C   UNL     1      -4.918   5.326  10.399  0.00  0.00    +0.029 A 
ATOM     11  C   UNL     1      -4.100   4.314   9.903  0.00  0.00    +0.023 A 
ATOM     12  C   UNL     1      -2.836   4.144  10.406  0.00  0.00    +0.010 A 
ATOM     13  C   UNL     1      -2.368   4.990  11.421  0.00  0.00    -0.024 A 
ATOM     14  C   UNL     1      -3.198   6.002  11.920  0.00  0.00    +0.010 A 
ATOM     15  C   UNL     1      -4.458   6.168  11.407  0.00  0.00    +0.023 A 
BRANCH  10  17
ATOM     16  C   UNL     1      -6.731   4.540   8.908  0.00  0.00    +0.129 C 
ATOM     17  N   UNL     1      -6.201   5.495   9.884  0.00  0.00    -0.336 N 
ATOM     18  C   UNL     1      -7.021   6.629  10.319  0.00  0.00    +0.129 C 
ENDBRANCH  10  17
ENDBRANCH   1  13
BRANCH   7  19
ATOM     19  N   UNL     1       1.290   1.689   7.531  0.00  0.00    -0.155 NA
ATOM     20  C   UNL     1       1.829   0.991   6.567  0.00  0.00    +0.143 C 
BRANCH  20  21
ATOM     21  C   UNL     1       1.085   0.763   5.319  0.00  0.00    -0.005 A 
ATOM     22  C   UNL     1       1.661   0.016   4.285  0.00  0.00    +0.011 A 
ATOM     23  C   UNL     1       0.961  -0.195   3.118  0.00  0.00    +0.024 A 
ATOM     24  C   UNL     1      -0.317   0.333   2.966  0.00  0.00    +0.029 A 
ATOM     25  C   UNL     1      -0.891   1.080   3.990  0.00  0.00    +0.024 A 
ATOM     26  C   UNL     1      -0.201   1.292   5.162  0.00  0.00    +0.011 A 
BRANCH  24  27
ATOM     27  N   UNL     1      -1.022   0.117   1.782  0.00  0.00    -0.336 N 
ATOM     28  C   UNL     1      -0.417  -0.665   0.701  0.00  0.00    +0.129 C 
ATOM     29  C   UNL     1      -2.369   0.671   1.620  0.00  0.00    +0.129 C 
ENDBRANCH  24  27
ENDBRANCH  20  21
ENDBRANCH   7  19
TORSDOF 5
