REMARK  Name = ZINC64054930
REMARK  7 active torsions:
REMARK  status: ('A' for Active; 'I' for Inactive)
REMARK    1  A    between atoms: C_1  and  C_2
REMARK    2  A    between atoms: C_5  and  C_8
REMARK    3  A    between atoms: C_8  and  O_10
REMARK    4  A    between atoms: O_10  and  C_11
REMARK    5  A    between atoms: C_11  and  C_13
REMARK    6  A    between atoms: C_11  and  C_19
REMARK    7  A    between atoms: C_19  and  C_21
REMARK                            x       y       z     vdW  Elec       q    Type
REMARK                         _______ _______ _______ _____ _____    ______ ____
ROOT
ATOM      1  C   UNL     1       0.080  -6.255  -1.185  0.00  0.00    +0.277 C 
ENDROOT
BRANCH   1   2
ATOM      2  C   UNL     1       1.508  -6.738  -1.169  0.00  0.00    +0.000 A 
ATOM      3  C   UNL     1       2.475  -6.060  -1.887  0.00  0.00    +0.008 A 
ATOM      4  C   UNL     1       3.784  -6.503  -1.872  0.00  0.00    +0.000 A 
ATOM      5  C   UNL     1       4.126  -7.623  -1.139  0.00  0.00    +0.000 A 
ATOM      6  C   UNL     1       3.159  -8.301  -0.420  0.00  0.00    +0.000 A 
ATOM      7  C   UNL     1       1.851  -7.856  -0.431  0.00  0.00    +0.008 A 
ENDBRANCH   1   2
BRANCH   1   8
ATOM      8  C   UNL     1      -0.629  -6.823  -2.388  0.00  0.00    +0.206 C 
ATOM      9  O   UNL     1      -0.782  -6.140  -3.380  0.00  0.00    -0.288 OA
BRANCH   8  10
ATOM     10  C   UNL     1      -1.114  -8.147  -2.360  0.00  0.00    +0.027 C 
ATOM     11  C   UNL     1      -1.777  -8.817  -3.373  0.00  0.00    +0.006 A 
ATOM     12  C   UNL     1      -2.167  -8.441  -4.680  0.00  0.00    +0.010 A 
ATOM     13  C   UNL     1      -2.820  -9.318  -5.475  0.00  0.00    +0.001 A 
ATOM     14  C   UNL     1      -3.138 -10.620  -5.059  0.00  0.00    +0.002 A 
ATOM     15  C   UNL     1      -2.811 -11.078  -3.831  0.00  0.00    +0.026 A 
ATOM     16  C   UNL     1      -2.098 -10.186  -2.901  0.00  0.00    +0.043 A 
ATOM     17  N   UNL     1      -1.669 -10.361  -1.684  0.00  0.00    -0.380 N 
ATOM     18  C   UNL     1      -1.014  -9.135  -1.219  0.00  0.00    +0.152 C 
ATOM     19  H   UNL     1      -1.765 -11.177  -1.168  0.00  0.00    +0.160 HD
ENDBRANCH   8  10
ENDBRANCH   1   8
BRANCH   1  20
ATOM     20  O   UNL     1       0.061  -4.827  -1.251  0.00  0.00    -0.444 OA
BRANCH  20  21
ATOM     21  C   UNL     1       0.058  -4.162  -0.080  0.00  0.00    +0.360 C 
ATOM     22  O   UNL     1       0.071  -4.775   0.968  0.00  0.00    -0.243 OA
BRANCH  21  27
ATOM     23  C   UNL     1      -0.018   1.503   0.010  0.00  0.00    +0.067 C 
ATOM     24  C   UNL     1       0.002  -0.004   0.002  0.00  0.00    +0.056 A 
ATOM     25  C   UNL     1       0.006  -0.689  -1.205  0.00  0.00    +0.134 A 
ATOM     26  N   UNL     1       0.024  -2.007  -1.217  0.00  0.00    -0.245 NA
ATOM     27  C   UNL     1       0.038  -2.681  -0.070  0.00  0.00    +0.166 A 
ATOM     28  C   UNL     1       0.034  -1.990   1.140  0.00  0.00    +0.146 A 
ATOM     29  N   UNL     1       0.022  -0.669   1.143  0.00  0.00    -0.256 NA
ENDBRANCH  21  27
ENDBRANCH  20  21
ENDBRANCH   1  20
TORSDOF 6
