REMARK  Name = ZINC06857909
REMARK  5 active torsions:
REMARK  status: ('A' for Active; 'I' for Inactive)
REMARK    1  A    between atoms: C_1  and  C_2
REMARK    2  A    between atoms: C_2  and  C_3
REMARK    3  A    between atoms: C_6  and  N_9
REMARK    4  A    between atoms: C_12  and  C_18
REMARK    5  A    between atoms: C_19  and  C_21
REMARK                            x       y       z     vdW  Elec       q    Type
REMARK                         _______ _______ _______ _____ _____    ______ ____
ROOT
ATOM      1  N   UNL     1      -2.599   2.643   4.792  0.00  0.00    -0.216 N 
ATOM      2  C   UNL     1      -2.026   3.312   5.826  0.00  0.00    +0.145 A 
ATOM      3  C   UNL     1      -3.014   3.478   6.799  0.00  0.00    +0.043 A 
ATOM      4  C   UNL     1      -2.702   4.153   8.002  0.00  0.00    -0.033 A 
ATOM      5  C   UNL     1      -1.444   4.634   8.183  0.00  0.00    +0.074 A 
ATOM      6  C   UNL     1      -0.472   4.457   7.181  0.00  0.00    +0.251 A 
ATOM      7  O   UNL     1       0.655   4.892   7.352  0.00  0.00    -0.268 OA
ATOM      8  N   UNL     1      -0.770   3.814   6.037  0.00  0.00    -0.307 N 
ATOM      9  H   UNL     1      -0.067   3.701   5.334  0.00  0.00    +0.170 HD
ATOM     10  C   UNL     1      -3.751   4.338   9.068  0.00  0.00    +0.045 C 
ATOM     11  C   UNL     1      -4.192   2.871   6.303  0.00  0.00    +0.070 A 
ATOM     12  N   UNL     1      -3.935   2.384   5.122  0.00  0.00    -0.169 NA
ATOM     13  C   UNL     1      -5.517   2.800   7.018  0.00  0.00    +0.068 C 
ENDROOT
BRANCH   1  17
ATOM     14  C   UNL     1      -0.701   1.535   1.251  0.00  0.00    -0.047 A 
ATOM     15  C   UNL     1      -0.365   2.724   1.871  0.00  0.00    +0.006 A 
ATOM     16  C   UNL     1      -0.996   3.097   3.041  0.00  0.00    +0.028 A 
ATOM     17  C   UNL     1      -1.961   2.271   3.601  0.00  0.00    +0.068 A 
ATOM     18  C   UNL     1      -2.292   1.074   2.979  0.00  0.00    +0.028 A 
ATOM     19  C   UNL     1      -1.661   0.710   1.806  0.00  0.00    +0.006 A 
BRANCH  14  21
ATOM     20  C   UNL     1      -0.804   1.676  -1.223  0.00  0.00    +0.009 C 
ATOM     21  C   UNL     1      -0.014   1.134  -0.029  0.00  0.00    +0.032 C 
ENDBRANCH  14  21
ENDBRANCH   1  17
TORSDOF 2
