REMARK  Name = ZINC33073374
REMARK  2 active torsions:
REMARK  status: ('A' for Active; 'I' for Inactive)
REMARK    1  A    between atoms: C_1  and  C_2
REMARK    2  A    between atoms: C_12  and  C_13
REMARK                            x       y       z     vdW  Elec       q    Type
REMARK                         _______ _______ _______ _____ _____    ______ ____
ROOT
ATOM      1  C   UNL     1      -0.049   1.503   0.011  0.00  0.00    +0.046 C 
ATOM      2  C   UNL     1      -0.015  -0.004   0.002  0.00  0.00    -0.017 A 
ATOM      3  C   UNL     1      -0.013  -0.697  -1.210  0.00  0.00    +0.076 A 
ATOM      4  C   UNL     1      -0.040  -0.165  -2.592  0.00  0.00    +0.260 A 
ATOM      5  O   UNL     1      -0.070   1.035  -2.799  0.00  0.00    -0.267 OA
ATOM      6  N   UNL     1      -0.032  -1.043  -3.614  0.00  0.00    -0.313 N 
ATOM      7  H   UNL     1      -0.049  -0.711  -4.525  0.00  0.00    +0.170 HD
ATOM      8  C   UNL     1       0.001  -2.381  -3.395  0.00  0.00    +0.200 A 
ATOM      9  N   UNL     1       0.026  -2.882  -2.190  0.00  0.00    -0.230 NA
ATOM     10  C   UNL     1       0.020  -2.107  -1.114  0.00  0.00    +0.116 A 
ATOM     11  S   UNL     1       0.046  -2.394   0.638  0.00  0.00    -0.064 S 
ATOM     12  C   UNL     1       0.019  -0.694   1.179  0.00  0.00    +0.080 A 
ENDROOT
BRANCH  12  13
ATOM     13  C   UNL     1       0.029  -0.169   2.547  0.00  0.00    +0.258 C 
ATOM     14  O   UNL     1       0.110   1.030   2.739  0.00  0.00    -0.269 OA
ATOM     15  N   UNL     1      -0.050  -1.014   3.594  0.00  0.00    -0.266 N 
ATOM     16  C   UNL     1      -0.036  -2.476   3.496  0.00  0.00    +0.119 C 
ATOM     17  C   UNL     1      -0.150  -2.979   4.944  0.00  0.00    +0.056 C 
ATOM     18  C   UNL     1      -0.222  -1.720   5.779  0.00  0.00    -0.024 A 
ATOM     19  C   UNL     1      -0.153  -0.625   4.932  0.00  0.00    +0.040 A 
ATOM     20  C   UNL     1      -0.195   0.659   5.479  0.00  0.00    +0.024 A 
ATOM     21  C   UNL     1      -0.300   0.830   6.843  0.00  0.00    +0.002 A 
ATOM     22  C   UNL     1      -0.364  -0.269   7.680  0.00  0.00    +0.000 A 
ATOM     23  C   UNL     1      -0.331  -1.544   7.145  0.00  0.00    +0.005 A 
ENDBRANCH  12  13
TORSDOF 1
