REMARK  Name = ZINC44913434
REMARK  2 active torsions:
REMARK  status: ('A' for Active; 'I' for Inactive)
REMARK    1  A    between atoms: C_7  and  C_11
REMARK    2  A    between atoms: C_17  and  C_19
REMARK                            x       y       z     vdW  Elec       q    Type
REMARK                         _______ _______ _______ _____ _____    ______ ____
ROOT
ATOM      1  C   UNL     1       2.996  -2.208   2.143  0.00  0.00    +0.144 C 
ATOM      2  C   UNL     1       3.936  -1.355   3.021  0.00  0.00    +0.032 C 
ATOM      3  C   UNL     1       4.832  -2.420   3.707  0.00  0.00    +0.021 C 
ATOM      4  C   UNL     1       4.977  -3.475   2.582  0.00  0.00    +0.108 C 
ATOM      5  N   UNL     1       3.660  -3.499   1.913  0.00  0.00    -0.291 N 
ATOM      6  C   UNL     1       3.151  -4.530   1.210  0.00  0.00    +0.220 C 
ATOM      7  O   UNL     1       2.018  -4.470   0.781  0.00  0.00    -0.275 OA
ENDROOT
BRANCH   1  14
ATOM      8  C   UNL     1      -1.029   0.852  -0.091  0.00  0.00    +0.002 C 
ATOM      9  C   UNL     1       0.192   1.414  -0.813  0.00  0.00    +0.008 C 
ATOM     10  C   UNL     1       0.842   0.313  -1.656  0.00  0.00    +0.076 C 
ATOM     11  C   UNL     1       1.840  -0.432  -0.808  0.00  0.00    +0.134 A 
ATOM     12  N   UNL     1       3.060  -0.755  -1.130  0.00  0.00    -0.134 NA
ATOM     13  N   UNL     1       3.604  -1.402  -0.158  0.00  0.00    -0.132 NA
ATOM     14  C   UNL     1       2.754  -1.514   0.827  0.00  0.00    +0.154 A 
ATOM     15  N   UNL     1       1.617  -0.893   0.445  0.00  0.00    -0.313 N 
ATOM     16  C   UNL     1       0.391  -0.731   1.227  0.00  0.00    +0.125 C 
ATOM     17  C   UNL     1      -0.805  -0.614   0.278  0.00  0.00    +0.022 C 
ENDBRANCH   1  14
BRANCH   6  18
ATOM     18  C   UNL     1       3.989  -5.757   0.958  0.00  0.00    +0.079 C 
ATOM     19  C   UNL     1       3.634  -6.350  -0.412  0.00  0.00    +0.017 C 
ATOM     20  C   UNL     1       4.618  -7.481  -0.718  0.00  0.00    +0.027 C 
ATOM     21  C   UNL     1       4.713  -8.415   0.452  0.00  0.00    -0.031 C 
ATOM     22  C   UNL     1       4.317  -8.121   1.649  0.00  0.00    -0.030 C 
ATOM     23  C   UNL     1       3.703  -6.806   2.034  0.00  0.00    +0.039 C 
ENDBRANCH   6  18
TORSDOF 2
