REMARK  Name = ZINC50810032
REMARK  8 active torsions:
REMARK  status: ('A' for Active; 'I' for Inactive)
REMARK    1  A    between atoms: C_1  and  N_2
REMARK    2  A    between atoms: N_2  and  C_3
REMARK    3  A    between atoms: N_2  and  C_4
REMARK    4  A    between atoms: C_7  and  C_10
REMARK    5  A    between atoms: C_11  and  C_12
REMARK    6  A    between atoms: C_14  and  C_15
REMARK    7  A    between atoms: C_14  and  C_17
REMARK    8  A    between atoms: N_19  and  C_20
REMARK                            x       y       z     vdW  Elec       q    Type
REMARK                         _______ _______ _______ _____ _____    ______ ____
ROOT
ATOM      1  C   UNL     1      -6.049  -0.805   0.015  0.00  0.00    +0.201 C 
ATOM      2  O   UNL     1      -4.917  -0.106  -0.218  0.00  0.00    -0.286 OA
ATOM      3  C   UNL     1      -7.243  -0.131   0.286  0.00  0.00    +0.160 C 
ENDROOT
BRANCH   3   4
ATOM      4  C   UNL     1      -7.266   1.332   0.319  0.00  0.00    +0.262 C 
ATOM      5  O   UNL     1      -6.246   1.962   0.109  0.00  0.00    -0.269 OA
ATOM      6  N   UNL     1      -8.418   1.982   0.581  0.00  0.00    -0.280 N 
ATOM      7  H   UNL     1      -9.241   1.483   0.695  0.00  0.00    +0.155 HD
BRANCH   6   8
ATOM      8  C   UNL     1      -8.424   3.377   0.688  0.00  0.00    +0.052 A 
ATOM      9  C   UNL     1      -7.548   4.138  -0.074  0.00  0.00    +0.025 A 
ATOM     10  C   UNL     1      -7.557   5.515   0.034  0.00  0.00    +0.002 A 
ATOM     11  C   UNL     1      -8.438   6.137   0.899  0.00  0.00    +0.002 A 
ATOM     12  C   UNL     1      -9.312   5.383   1.661  0.00  0.00    +0.022 A 
ATOM     13  C   UNL     1      -9.312   4.005   1.554  0.00  0.00    +0.062 A 
ATOM     14 CL   UNL     1     -10.415   3.059   2.504  0.00  0.00    -0.082 Cl
ENDBRANCH   6   8
ENDBRANCH   3   4
BRANCH   1  16
ATOM     15  C   UNL     1      -4.848  -2.871  -0.147  0.00  0.00    +0.012 C 
ATOM     16  C   UNL     1      -6.027  -2.214  -0.016  0.00  0.00    +0.053 C 
BRANCH  15  20
ATOM     17  C   UNL     1      -1.201  -0.788   0.360  0.00  0.00    +0.029 A 
ATOM     18  C   UNL     1      -1.334  -1.714  -0.672  0.00  0.00    +0.023 A 
ATOM     19  C   UNL     1      -2.510  -2.389  -0.839  0.00  0.00    +0.010 A 
ATOM     20  C   UNL     1      -3.583  -2.149   0.029  0.00  0.00    -0.025 A 
ATOM     21  C   UNL     1      -3.444  -1.217   1.067  0.00  0.00    +0.010 A 
ATOM     22  C   UNL     1      -2.263  -0.551   1.230  0.00  0.00    +0.023 A 
BRANCH  17  24
ATOM     23  C   UNL     1       0.143   0.866   1.616  0.00  0.00    +0.129 C 
ATOM     24  N   UNL     1      -0.002  -0.104   0.527  0.00  0.00    -0.336 N 
ATOM     25  C   UNL     1       1.116  -0.352  -0.386  0.00  0.00    +0.129 C 
ENDBRANCH  17  24
ENDBRANCH  15  20
ENDBRANCH   1  16
BRANCH   3  26
ATOM     26  C   UNL     1      -8.444  -0.872   0.533  0.00  0.00    +0.108 C 
ATOM     27  N   UNL     1      -9.396  -1.459   0.729  0.00  0.00    -0.191 NA
ENDBRANCH   3  26
TORSDOF 6
