REMARK  Name = ZINC04090638
REMARK  10 active torsions:
REMARK  status: ('A' for Active; 'I' for Inactive)
REMARK    1  A    between atoms: C_1  and  C_2
REMARK    2  A    between atoms: C_2  and  C_3
REMARK    3  A    between atoms: C_2  and  C_20
REMARK    4  A    between atoms: C_2  and  N_28
REMARK    5  A    between atoms: C_3  and  C_4
REMARK    6  A    between atoms: C_11  and  O_12
REMARK    7  A    between atoms: O_12  and  C_13
REMARK    8  A    between atoms: C_19  and  N_62
REMARK    9  A    between atoms: C_20  and  C_22
REMARK   10  A    between atoms: C_22  and  C_23
REMARK                            x       y       z     vdW  Elec       q    Type
REMARK                         _______ _______ _______ _____ _____    ______ ____
ROOT
ATOM      1  C   UNL     1      -3.147  -5.475   1.218  0.00  0.00    -0.032 C 
ATOM      2  C   UNL     1      -3.910  -5.246   2.497  0.00  0.00    -0.012 A 
ATOM      3  C   UNL     1      -5.269  -5.464   2.583  0.00  0.00    -0.040 A 
ATOM      4  C   UNL     1      -5.931  -5.245   3.781  0.00  0.00    +0.053 A 
ATOM      5  C   UNL     1      -5.239  -4.806   4.897  0.00  0.00    +0.170 A 
ATOM      6  C   UNL     1      -3.869  -4.583   4.814  0.00  0.00    +0.208 A 
ATOM      7  C   UNL     1      -3.209  -4.804   3.614  0.00  0.00    +0.167 A 
ATOM      8  O   UNL     1      -3.421  -4.157   6.032  0.00  0.00    -0.449 OA
ATOM      9  C   UNL     1      -4.597  -3.732   6.747  0.00  0.00    +0.467 C 
ATOM     10  O   UNL     1      -5.652  -4.521   6.167  0.00  0.00    -0.452 OA
ATOM     11  C   UNL     1      -6.070  -5.937   1.397  0.00  0.00    +0.017 C 
ATOM     12  C   UNL     1      -5.136  -6.505   0.328  0.00  0.00    -0.074 C 
ATOM     13  C   UNL     1      -3.345  -5.845  -1.165  0.00  0.00    -0.095 C 
ATOM     14  N   UNL     1      -4.076  -5.507   0.076  0.00  0.00    +0.383 N 
ATOM     15  H   UNL     1      -4.507  -4.581  -0.032  0.00  0.00    -0.081 HD
ENDROOT
BRANCH   7  16
ATOM     16  O   UNL     1      -1.869  -4.587   3.529  0.00  0.00    -0.491 OA
ATOM     17  C   UNL     1      -1.014  -5.708   3.762  0.00  0.00    +0.277 C 
ENDBRANCH   7  16
BRANCH   1  18
ATOM     18  C   UNL     1      -2.150  -4.333   1.013  0.00  0.00    +0.022 C 
BRANCH  18  20
ATOM     19  C   UNL     1      -3.926  -3.194  -0.324  0.00  0.00    +0.039 C 
ATOM     20  C   UNL     1      -2.910  -3.022   0.807  0.00  0.00    +0.088 C 
BRANCH  20  21
ATOM     21  N   UNL     1      -3.611  -2.665   2.043  0.00  0.00    -0.306 N 
ATOM     22  C   UNL     1      -2.909  -2.316   3.140  0.00  0.00    +0.326 C 
ATOM     23  O   UNL     1      -1.698  -2.388   3.132  0.00  0.00    -0.280 OA
ATOM     24  H   UNL     1      -4.581  -2.680   2.073  0.00  0.00    +0.149 HD
ENDBRANCH  20  21
BRANCH  20  25
ATOM     25  C   UNL     1      -1.938  -1.928   0.448  0.00  0.00    +0.156 C 
ATOM     26  O   UNL     1      -0.924  -2.195  -0.151  0.00  0.00    -0.295 OA
BRANCH  25  27
ATOM     27  C   UNL     1      -2.232  -0.502   0.835  0.00  0.00    +0.080 C 
BRANCH  27  28
ATOM     28  C   UNL     1      -1.094   0.401   0.354  0.00  0.00    -0.004 C 
ATOM     29  C   UNL     1      -1.430   1.889   0.628  0.00  0.00    +0.004 C 
ATOM     30  C   UNL     1      -0.031   2.553   0.670  0.00  0.00    +0.000 C 
ATOM     31  C   UNL     1       0.860   1.512   1.379  0.00  0.00    +0.000 C 
ATOM     32  C   UNL     1       0.184   0.144   1.178  0.00  0.00    +0.004 C 
ENDBRANCH  27  28
ENDBRANCH  25  27
ENDBRANCH  20  25
ENDBRANCH  18  20
ENDBRANCH   1  18
TORSDOF 7
