REMARK  Name = ZINC63557085
REMARK  7 active torsions:
REMARK  status: ('A' for Active; 'I' for Inactive)
REMARK    1  A    between atoms: C_1  and  C_2
REMARK    2  A    between atoms: C_2  and  C_3
REMARK    3  A    between atoms: C_2  and  C_4
REMARK    4  A    between atoms: C_11  and  C_13
REMARK    5  A    between atoms: N_18  and  C_20
REMARK    6  A    between atoms: C_20  and  C_21
REMARK    7  A    between atoms: C_21  and  C_22
REMARK                            x       y       z     vdW  Elec       q    Type
REMARK                         _______ _______ _______ _____ _____    ______ ____
ROOT
ATOM      1  C   UNL     1      -4.176  -3.524   5.059  0.00  0.00    +0.101 C 
ATOM      2  C   UNL     1      -5.664  -3.111   4.979  0.00  0.00    +0.110 C 
ATOM      3  C   UNL     1      -6.394  -4.207   5.724  0.00  0.00    +0.216 C 
ATOM      4  O   UNL     1      -7.533  -4.129   6.133  0.00  0.00    -0.276 OA
ATOM      5  N   UNL     1      -5.596  -5.279   5.866  0.00  0.00    -0.300 N 
ATOM      6  C   UNL     1      -4.283  -5.053   5.250  0.00  0.00    +0.121 C 
ENDROOT
BRANCH   1  13
ATOM      7  C   UNL     1      -1.433  -0.534   0.013  0.00  0.00    +0.156 C 
ATOM      8  N   UNL     1      -1.466  -1.999   0.223  0.00  0.00    -0.253 N 
ATOM      9  N   UNL     1      -2.105  -2.413   1.370  0.00  0.00    -0.163 NA
ATOM     10  C   UNL     1      -2.647  -1.596   2.218  0.00  0.00    +0.179 C 
ATOM     11  S   UNL     1      -2.340   0.019   1.516  0.00  0.00    -0.065 S 
ATOM     12  N   UNL     1      -3.314  -1.904   3.400  0.00  0.00    -0.263 N 
ATOM     13  C   UNL     1      -3.454  -3.190   3.779  0.00  0.00    +0.224 C 
ATOM     14  O   UNL     1      -2.999  -4.079   3.089  0.00  0.00    -0.275 OA
ATOM     15  H   UNL     1      -1.065  -2.622  -0.403  0.00  0.00    +0.169 HD
ATOM     16  H   UNL     1      -3.677  -1.194   3.951  0.00  0.00    +0.157 HD
BRANCH   7  18
ATOM     17  C   UNL     1      -0.019   1.526   0.010  0.00  0.00    +0.010 C 
ATOM     18  C   UNL     1       0.002  -0.004   0.002  0.00  0.00    +0.015 C 
ATOM     19  C   UNL     1       0.742  -0.511   1.242  0.00  0.00    +0.010 C 
ENDBRANCH   7  18
ENDBRANCH   1  13
BRANCH   5  20
ATOM     20  C   UNL     1      -5.987  -6.515   6.549  0.00  0.00    +0.112 C 
BRANCH  20  21
ATOM     21  C   UNL     1      -6.616  -7.478   5.540  0.00  0.00    +0.052 C 
BRANCH  21  22
ATOM     22  C   UNL     1      -7.019  -8.749   6.242  0.00  0.00    -0.040 C 
ATOM     23  C   UNL     1      -8.239  -9.053   6.739  0.00  0.00    +0.000 A 
ATOM     24  C   UNL     1      -9.509  -8.317   6.774  0.00  0.00    +0.030 A 
ATOM     25  C   UNL     1     -10.586  -8.895   7.356  0.00  0.00    +0.042 A 
ATOM     26  C   UNL     1     -10.518 -10.175   7.925  0.00  0.00    +0.022 A 
ATOM     27  C   UNL     1      -9.387 -10.911   7.931  0.00  0.00    +0.027 A 
ATOM     28  C   UNL     1      -8.195 -10.402   7.346  0.00  0.00    +0.043 A 
ATOM     29  N   UNL     1      -6.993 -10.913   7.229  0.00  0.00    -0.380 N 
ATOM     30  C   UNL     1      -6.141  -9.947   6.527  0.00  0.00    +0.144 C 
ATOM     31 CL   UNL     1     -12.090  -8.028   7.399  0.00  0.00    -0.084 Cl
ATOM     32  H   UNL     1      -6.716 -11.786   7.548  0.00  0.00    +0.160 HD
ENDBRANCH  21  22
ENDBRANCH  20  21
ENDBRANCH   5  20
TORSDOF 5
