REMARK  Name = ZINC29382540
REMARK  7 active torsions:
REMARK  status: ('A' for Active; 'I' for Inactive)
REMARK    1  A    between atoms: C_1  and  C_2
REMARK    2  A    between atoms: C_2  and  N_3
REMARK    3  A    between atoms: C_12  and  S_13
REMARK    4  A    between atoms: S_13  and  C_14
REMARK    5  A    between atoms: C_14  and  C_15
REMARK    6  A    between atoms: C_15  and  N_16
REMARK    7  A    between atoms: C_23  and  C_27
REMARK                            x       y       z     vdW  Elec       q    Type
REMARK                         _______ _______ _______ _____ _____    ______ ____
ROOT
ATOM      1  N   UNL     1      -0.749   3.044   1.275  0.00  0.00    -0.288 N 
ATOM      2  C   UNL     1       0.261   3.715   1.860  0.00  0.00    +0.263 A 
ATOM      3  O   UNL     1       1.184   3.112   2.380  0.00  0.00    -0.267 OA
ATOM      4  C   UNL     1       0.238   5.145   1.859  0.00  0.00    +0.076 A 
ATOM      5  C   UNL     1       1.223   6.069   2.426  0.00  0.00    -0.023 A 
ATOM      6  C   UNL     1       0.969   7.387   2.301  0.00  0.00    -0.004 A 
ATOM      7  S   UNL     1      -0.574   7.478   1.433  0.00  0.00    -0.073 S 
ATOM      8  C   UNL     1      -0.874   5.739   1.240  0.00  0.00    +0.117 A 
ATOM      9  N   UNL     1      -1.842   5.019   0.684  0.00  0.00    -0.216 NA
ATOM     10  C   UNL     1      -1.793   3.703   0.694  0.00  0.00    +0.173 A 
ATOM     11  C   UNL     1       1.812   8.525   2.791  0.00  0.00    +0.046 C 
ATOM     12  C   UNL     1       3.205   7.981   3.137  0.00  0.00    -0.009 C 
ATOM     13  C   UNL     1       3.042   6.719   3.989  0.00  0.00    +0.008 C 
ATOM     14  C   UNL     1       2.485   5.582   3.132  0.00  0.00    +0.037 C 
ATOM     15  C   UNL     1       3.986   9.034   3.925  0.00  0.00    +0.008 C 
ENDROOT
BRANCH   1  17
ATOM     16  C   UNL     1      -0.013   1.086   0.008  0.00  0.00    +0.027 C 
ATOM     17  C   UNL     1      -0.729   1.579   1.267  0.00  0.00    +0.124 C 
ENDBRANCH   1  17
BRANCH  10  18
ATOM     18  S   UNL     1      -3.095   2.780  -0.054  0.00  0.00    -0.086 S 
BRANCH  18  19
ATOM     19  C   UNL     1      -4.149   4.133  -0.631  0.00  0.00    +0.096 C 
BRANCH  19  20
ATOM     20  C   UNL     1      -5.379   3.557  -1.335  0.00  0.00    +0.122 C 
BRANCH  20  21
ATOM     21  N   UNL     1      -6.232   4.652  -1.802  0.00  0.00    -0.263 N 
ATOM     22  C   UNL     1      -7.323   5.274  -1.035  0.00  0.00    +0.152 C 
ATOM     23  C   UNL     1      -7.872   6.354  -1.987  0.00  0.00    +0.253 C 
ATOM     24  O   UNL     1      -7.047   6.224  -3.181  0.00  0.00    -0.449 OA
ATOM     25  C   UNL     1      -6.150   5.248  -2.999  0.00  0.00    +0.403 C 
ATOM     26  O   UNL     1      -5.336   4.931  -3.843  0.00  0.00    -0.226 OA
ENDBRANCH  20  21
ENDBRANCH  19  20
ENDBRANCH  18  19
ENDBRANCH  10  18
TORSDOF 5
