REMARK  Name = ZINC12895970
REMARK  8 active torsions:
REMARK  status: ('A' for Active; 'I' for Inactive)
REMARK    1  A    between atoms: C_1  and  C_2
REMARK    2  A    between atoms: C_2  and  C_3
REMARK    3  A    between atoms: N_5  and  C_6
REMARK    4  A    between atoms: C_9  and  C_12
REMARK    5  A    between atoms: C_12  and  C_14
REMARK    6  A    between atoms: C_14  and  N_15
REMARK    7  A    between atoms: C_18  and  C_30
REMARK    8  A    between atoms: N_20  and  C_23
REMARK                            x       y       z     vdW  Elec       q    Type
REMARK                         _______ _______ _______ _____ _____    ______ ____
ROOT
ATOM      1  C   UNL     1       2.868  -1.982   1.367  0.00  0.00    +0.197 C 
ENDROOT
BRANCH   1   2
ATOM      2  N   UNL     1       1.843  -1.281   0.589  0.00  0.00    -0.216 N 
ATOM      3  C   UNL     1       0.913  -0.465   1.123  0.00  0.00    +0.244 C 
ATOM      4  O   UNL     1       0.772  -0.183   2.294  0.00  0.00    -0.273 OA
ATOM      5  C   UNL     1       0.081   0.027  -0.044  0.00  0.00    +0.166 C 
ATOM      6  N   UNL     1       0.697  -0.630  -1.210  0.00  0.00    -0.243 N 
ATOM      7  C   UNL     1       1.716  -1.372  -0.740  0.00  0.00    +0.316 C 
ATOM      8  O   UNL     1       2.440  -2.048  -1.444  0.00  0.00    -0.252 OA
ATOM      9  C   UNL     1       0.178   1.549  -0.171  0.00  0.00    +0.038 C 
BRANCH   6  10
ATOM     10  C   UNL     1       0.298  -0.507  -2.547  0.00  0.00    +0.039 A 
ATOM     11  C   UNL     1      -0.784   0.297  -2.879  0.00  0.00    +0.026 A 
ATOM     12  C   UNL     1      -1.172   0.421  -4.198  0.00  0.00    +0.040 A 
ATOM     13  C   UNL     1      -0.489  -0.264  -5.189  0.00  0.00    +0.124 A 
ATOM     14  C   UNL     1       0.587  -1.071  -4.860  0.00  0.00    +0.040 A 
ATOM     15  C   UNL     1       0.981  -1.193  -3.542  0.00  0.00    +0.026 A 
ATOM     16  F   UNL     1      -0.874  -0.145  -6.479  0.00  0.00    -0.205 F 
ENDBRANCH   6  10
ENDBRANCH   1   2
BRANCH   1  17
ATOM     17  C   UNL     1       2.342  -3.328   1.794  0.00  0.00    +0.181 C 
ATOM     18  O   UNL     1       1.221  -3.668   1.479  0.00  0.00    -0.290 OA
BRANCH  17  22
ATOM     19  C   UNL     1       4.777  -5.922   4.092  0.00  0.00    +0.033 A 
ATOM     20  C   UNL     1       3.490  -6.315   3.732  0.00  0.00    +0.024 A 
ATOM     21  C   UNL     1       2.699  -5.479   2.989  0.00  0.00    +0.013 A 
ATOM     22  C   UNL     1       3.186  -4.227   2.591  0.00  0.00    +0.019 A 
ATOM     23  C   UNL     1       4.483  -3.839   2.950  0.00  0.00    +0.013 A 
ATOM     24  C   UNL     1       5.265  -4.680   3.698  0.00  0.00    +0.024 A 
BRANCH  19  27
ATOM     25  C   UNL     1       5.482  -8.110   4.684  0.00  0.00    +0.217 C 
ATOM     26  O   UNL     1       4.770  -8.565   3.814  0.00  0.00    -0.275 OA
ATOM     27  N   UNL     1       5.578  -6.776   4.848  0.00  0.00    -0.286 N 
ATOM     28  H   UNL     1       6.204  -6.410   5.491  0.00  0.00    +0.155 HD
BRANCH  25  30
ATOM     29  C   UNL     1       5.975 -10.488   5.189  0.00  0.00    +0.013 C 
ATOM     30  C   UNL     1       6.260  -9.037   5.583  0.00  0.00    +0.093 C 
ENDBRANCH  25  30
ENDBRANCH  19  27
ENDBRANCH  17  22
ENDBRANCH   1  17
TORSDOF 6
