REMARK  Name = ZINC03206566
REMARK  11 active torsions:
REMARK  status: ('A' for Active; 'I' for Inactive)
REMARK    1  A    between atoms: C_1  and  C_2
REMARK    2  A    between atoms: C_3  and  P_9
REMARK    3  A    between atoms: C_4  and  C_8
REMARK    4  A    between atoms: N_5  and  C_7
REMARK    5  A    between atoms: P_9  and  C_11
REMARK    6  A    between atoms: P_9  and  N_19
REMARK    7  A    between atoms: C_12  and  C_18
REMARK    8  A    between atoms: N_14  and  C_17
REMARK    9  A    between atoms: C_15  and  C_16
REMARK   10  A    between atoms: N_19  and  C_20
REMARK   11  A    between atoms: N_19  and  C_21
REMARK                            x       y       z     vdW  Elec       q    Type
REMARK                         _______ _______ _______ _____ _____    ______ ____
ROOT
ATOM      1  P   UNL     1       1.567  -2.737  -0.716  0.00  0.00    +0.060 P 
ATOM      2  S   UNL     1       2.094  -3.195   1.012  0.00  0.00    -0.040 S 
ENDROOT
BRANCH   1   5
ATOM      3  C   UNL     1       2.886   0.325  -0.312  0.00  0.00    +0.068 C 
ATOM      4  C   UNL     1       1.407   0.120  -0.516  0.00  0.00    +0.070 A 
ATOM      5  C   UNL     1       0.766  -1.110  -0.693  0.00  0.00    +0.043 A 
ATOM      6  C   UNL     1      -0.557  -0.872  -0.843  0.00  0.00    +0.046 A 
ATOM      7  N   UNL     1      -0.747   0.461  -0.764  0.00  0.00    -0.271 N 
ATOM      8  N   UNL     1       0.501   1.063  -0.559  0.00  0.00    -0.176 NA
ATOM      9  C   UNL     1      -2.031   1.158  -0.880  0.00  0.00    +0.172 C 
ATOM     10  C   UNL     1      -1.628  -1.911  -1.059  0.00  0.00    +0.066 C 
ENDBRANCH   1   5
BRANCH   1  11
ATOM     11  C   UNL     1       3.024  -2.679  -1.796  0.00  0.00    +0.043 A 
ATOM     12  C   UNL     1       4.256  -3.292  -1.549  0.00  0.00    +0.070 A 
ATOM     13  N   UNL     1       5.052  -3.029  -2.553  0.00  0.00    -0.176 NA
ATOM     14  N   UNL     1       4.353  -2.230  -3.468  0.00  0.00    -0.271 N 
ATOM     15  C   UNL     1       3.111  -2.030  -2.980  0.00  0.00    +0.046 A 
ATOM     16  C   UNL     1       2.017  -1.228  -3.636  0.00  0.00    +0.066 C 
ATOM     17  C   UNL     1       4.878  -1.705  -4.731  0.00  0.00    +0.172 C 
ATOM     18  C   UNL     1       4.606  -4.117  -0.337  0.00  0.00    +0.068 C 
ENDBRANCH   1  11
BRANCH   1  19
ATOM     19  N   UNL     1       0.485  -3.888  -1.296  0.00  0.00    -0.276 NA
ATOM     20  C   UNL     1       0.215  -3.684  -2.725  0.00  0.00    +0.110 C 
ATOM     21  C   UNL     1       0.976  -5.249  -1.042  0.00  0.00    +0.110 C 
ENDBRANCH   1  19
TORSDOF 3
