REMARK  Name = ZINC43576291
REMARK  2 active torsions:
REMARK  status: ('A' for Active; 'I' for Inactive)
REMARK    1  A    between atoms: C_6  and  C_7
REMARK    2  A    between atoms: C_7  and  C_9
REMARK                            x       y       z     vdW  Elec       q    Type
REMARK                         _______ _______ _______ _____ _____    ______ ____
ROOT
ATOM      1  C   UNL     1       0.000   1.358  -0.333  0.00  0.00    +0.014 A 
ATOM      2  C   UNL     1       1.176   2.073  -0.321  0.00  0.00    +0.028 A 
ATOM      3  C   UNL     1       2.365   1.452   0.044  0.00  0.00    +0.067 A 
ATOM      4  C   UNL     1       2.369   0.099   0.402  0.00  0.00    +0.067 A 
ATOM      5  C   UNL     1       1.190  -0.623   0.391  0.00  0.00    +0.039 A 
ATOM      6  C   UNL     1      -0.003   0.004   0.023  0.00  0.00    +0.024 A 
ATOM      7  N   UNL     1       3.687  -0.230   0.713  0.00  0.00    -0.306 N 
ATOM      8  H   UNL     1       4.003  -1.102   0.996  0.00  0.00    +0.170 HD
ATOM      9  C   UNL     1       4.445   0.870   0.552  0.00  0.00    +0.325 A 
ATOM     10  O   UNL     1       5.646   0.927   0.740  0.00  0.00    -0.247 OA
ATOM     11  N   UNL     1       3.675   1.898   0.150  0.00  0.00    -0.306 N 
ATOM     12  H   UNL     1       3.983   2.799  -0.035  0.00  0.00    +0.170 HD
ENDROOT
BRANCH   6  13
ATOM     13  C   UNL     1      -1.265  -0.759   0.010  0.00  0.00    +0.193 C 
ATOM     14  O   UNL     1      -2.276  -0.256  -0.440  0.00  0.00    -0.287 OA
BRANCH  13  15
ATOM     15  C   UNL     1      -1.300  -2.137   0.544  0.00  0.00    +0.025 A 
ATOM     16  C   UNL     1      -0.497  -2.488   1.632  0.00  0.00    +0.013 A 
ATOM     17  C   UNL     1      -0.534  -3.775   2.126  0.00  0.00    +0.019 A 
ATOM     18  C   UNL     1      -1.364  -4.719   1.547  0.00  0.00    +0.053 A 
ATOM     19  C   UNL     1      -2.164  -4.378   0.467  0.00  0.00    +0.138 A 
ATOM     20  C   UNL     1      -2.141  -3.091  -0.034  0.00  0.00    +0.051 A 
ATOM     21  F   UNL     1      -2.972  -5.305  -0.094  0.00  0.00    -0.204 F 
ATOM     22 BR   UNL     1      -1.407  -6.482   2.231  0.00  0.00    -0.047 Br
ENDBRANCH  13  15
ENDBRANCH   6  13
TORSDOF 2
