REMARK  Name = ZINC36341664
REMARK  9 active torsions:
REMARK  status: ('A' for Active; 'I' for Inactive)
REMARK    1  A    between atoms: C_1  and  C_2
REMARK    2  A    between atoms: N_8  and  C_9
REMARK    3  A    between atoms: C_9  and  C_10
REMARK    4  A    between atoms: C_13  and  C_25
REMARK    5  A    between atoms: C_16  and  C_18
REMARK    6  A    between atoms: C_27  and  O_33
REMARK    7  A    between atoms: C_30  and  O_31
REMARK    8  A    between atoms: O_31  and  C_32
REMARK    9  A    between atoms: O_33  and  C_34
REMARK                            x       y       z     vdW  Elec       q    Type
REMARK                         _______ _______ _______ _____ _____    ______ ____
ROOT
ATOM      1  C   UNL     1       0.865  -0.347   3.613  0.00  0.00    +0.219 C 
ATOM      2  O   UNL     1       1.871  -1.013   3.487  0.00  0.00    -0.276 OA
ATOM      3  N   UNL     1       0.461   0.039   4.840  0.00  0.00    -0.187 N 
ATOM      4  C   UNL     1       1.147  -0.273   6.104  0.00  0.00    +0.140 C 
ATOM      5  C   UNL     1       0.264   0.405   7.170  0.00  0.00    +0.087 C 
ATOM      6  C   UNL     1      -0.851   1.041   6.370  0.00  0.00    +0.069 C 
ATOM      7  N   UNL     1      -0.670   0.803   5.117  0.00  0.00    -0.181 NA
ENDROOT
BRANCH   6   8
ATOM      8  C   UNL     1      -1.968   1.818   6.937  0.00  0.00    -0.002 A 
ATOM      9  C   UNL     1      -2.054   2.021   8.316  0.00  0.00    +0.012 A 
ATOM     10  C   UNL     1      -3.101   2.748   8.840  0.00  0.00    +0.039 A 
ATOM     11  C   UNL     1      -4.069   3.278   8.001  0.00  0.00    +0.123 A 
ATOM     12  C   UNL     1      -3.990   3.080   6.631  0.00  0.00    +0.039 A 
ATOM     13  C   UNL     1      -2.943   2.359   6.095  0.00  0.00    +0.012 A 
ATOM     14  F   UNL     1      -5.093   3.990   8.520  0.00  0.00    -0.205 F 
ENDBRANCH   6   8
BRANCH   4  15
ATOM     15  C   UNL     1       1.201  -1.762   6.324  0.00  0.00    +0.020 A 
ATOM     16  C   UNL     1       0.348  -2.596   5.627  0.00  0.00    +0.054 A 
ATOM     17  C   UNL     1       0.399  -3.966   5.829  0.00  0.00    +0.121 A 
ATOM     18  C   UNL     1       1.306  -4.501   6.733  0.00  0.00    +0.049 A 
ATOM     19  C   UNL     1       2.158  -3.668   7.430  0.00  0.00    +0.049 A 
ATOM     20  C   UNL     1       2.111  -2.297   7.224  0.00  0.00    +0.125 A 
BRANCH  20  21
ATOM     21  O   UNL     1       2.955  -1.478   7.906  0.00  0.00    -0.495 OA
ATOM     22  C   UNL     1       3.866  -2.097   8.816  0.00  0.00    +0.277 C 
ENDBRANCH  20  21
BRANCH  17  23
ATOM     23  O   UNL     1      -0.441  -4.787   5.143  0.00  0.00    -0.495 OA
ATOM     24  C   UNL     1      -0.334  -6.188   5.401  0.00  0.00    +0.277 C 
ENDBRANCH  17  23
ENDBRANCH   4  15
BRANCH   1  25
ATOM     25  C   UNL     1       0.067   0.050   2.397  0.00  0.00    +0.021 C 
BRANCH  25  32
ATOM     26  C   UNL     1      -0.019   1.526   0.010  0.00  0.00    -0.013 C 
ATOM     27  C   UNL     1       0.002  -0.004   0.002  0.00  0.00    -0.071 C 
ATOM     28  C   UNL     1       0.717  -0.497  -1.258  0.00  0.00    -0.016 C 
ATOM     29  C   UNL     1       0.735  -2.028  -1.262  0.00  0.00    -0.003 C 
ATOM     30  C   UNL     1       1.410  -2.524   0.020  0.00  0.00    -0.019 C 
ATOM     31  C   UNL     1       0.669  -1.956   1.232  0.00  0.00    -0.078 C 
ATOM     32  N   UNL     1       0.711  -0.490   1.192  0.00  0.00    +0.387 N 
ATOM     33  H   UNL     1       1.671  -0.182   1.159  0.00  0.00    -0.081 HD
ENDBRANCH  25  32
ENDBRANCH   1  25
TORSDOF 6
