REMARK  Name = ZINC38671327
REMARK  6 active torsions:
REMARK  status: ('A' for Active; 'I' for Inactive)
REMARK    1  A    between atoms: C_1  and  N_2
REMARK    2  A    between atoms: C_9  and  C_11
REMARK    3  A    between atoms: C_11  and  C_13
REMARK    4  A    between atoms: C_11  and  N_26
REMARK    5  A    between atoms: C_13  and  N_14
REMARK    6  A    between atoms: C_15  and  C_17
REMARK                            x       y       z     vdW  Elec       q    Type
REMARK                         _______ _______ _______ _____ _____    ______ ____
ROOT
ATOM      1  C   UNL     1       0.061  -3.784   4.240  0.00  0.00    -0.020 C 
ENDROOT
BRANCH   1  10
ATOM      2  C   UNL     1      -0.271   1.864   0.592  0.00  0.00    +0.129 C 
ATOM      3  N   UNL     1      -0.201   0.409   0.434  0.00  0.00    -0.332 N 
ATOM      4  C   UNL     1      -0.177  -0.296  -0.850  0.00  0.00    +0.109 C 
ATOM      5  C   UNL     1      -0.100  -1.788  -0.490  0.00  0.00    +0.056 C 
ATOM      6  C   UNL     1      -0.086  -1.813   1.022  0.00  0.00    -0.025 A 
ATOM      7  C   UNL     1      -0.140  -0.507   1.485  0.00  0.00    +0.033 A 
ATOM      8  C   UNL     1      -0.133  -0.276   2.862  0.00  0.00    +0.023 A 
ATOM      9  C   UNL     1      -0.068  -1.333   3.745  0.00  0.00    +0.004 A 
ATOM     10  C   UNL     1      -0.010  -2.631   3.273  0.00  0.00    -0.059 A 
ATOM     11  C   UNL     1      -0.026  -2.869   1.911  0.00  0.00    +0.007 A 
ENDBRANCH   1  10
BRANCH   1  12
ATOM     12  N   UNL     1       0.951  -3.433   5.355  0.00  0.00    +0.385 N 
ATOM     13  C   UNL     1       2.279  -3.091   4.831  0.00  0.00    -0.078 C 
ATOM     14  C   UNL     1       3.186  -2.646   5.980  0.00  0.00    -0.019 C 
ATOM     15  C   UNL     1       3.314  -3.788   6.993  0.00  0.00    -0.004 C 
ATOM     16  C   UNL     1       1.917  -4.187   7.477  0.00  0.00    -0.019 C 
ATOM     17  C   UNL     1       1.057  -4.574   6.272  0.00  0.00    -0.078 C 
ATOM     18  H   UNL     1       0.572  -2.640   5.850  0.00  0.00    -0.081 HD
ENDBRANCH   1  12
BRANCH   1  19
ATOM     19  C   UNL     1      -1.338  -4.085   4.780  0.00  0.00    +0.094 C 
BRANCH  19  20
ATOM     20  N   UNL     1      -2.202  -4.523   3.680  0.00  0.00    -0.310 N 
ATOM     21  C   UNL     1      -3.514  -4.741   3.900  0.00  0.00    +0.279 C 
ATOM     22  O   UNL     1      -3.981  -4.573   5.010  0.00  0.00    -0.267 OA
ATOM     23  H   UNL     1      -1.829  -4.656   2.795  0.00  0.00    +0.149 HD
BRANCH  21  24
ATOM     24  C   UNL     1      -4.380  -5.180   2.796  0.00  0.00    +0.190 A 
ATOM     25  C   UNL     1      -5.712  -5.424   2.898  0.00  0.00    +0.063 A 
ATOM     26  C   UNL     1      -6.152  -5.833   1.565  0.00  0.00    +0.021 A 
ATOM     27  C   UNL     1      -7.381  -6.212   1.019  0.00  0.00    +0.011 A 
ATOM     28  C   UNL     1      -7.460  -6.546  -0.303  0.00  0.00    +0.001 A 
ATOM     29  C   UNL     1      -6.328  -6.511  -1.107  0.00  0.00    +0.004 A 
ATOM     30  C   UNL     1      -5.107  -6.141  -0.587  0.00  0.00    +0.047 A 
ATOM     31  C   UNL     1      -5.002  -5.796   0.756  0.00  0.00    +0.136 A 
ATOM     32  O   UNL     1      -3.973  -5.397   1.528  0.00  0.00    -0.450 OA
ENDBRANCH  21  24
ENDBRANCH  19  20
ENDBRANCH   1  19
TORSDOF 5
