REMARK  Name = ZINC67610957
REMARK  5 active torsions:
REMARK  status: ('A' for Active; 'I' for Inactive)
REMARK    1  A    between atoms: C_4  and  C_7
REMARK    2  A    between atoms: C_10  and  N_12
REMARK    3  A    between atoms: C_18  and  N_21
REMARK    4  A    between atoms: N_21  and  S_22
REMARK    5  A    between atoms: S_22  and  C_25
REMARK                            x       y       z     vdW  Elec       q    Type
REMARK                         _______ _______ _______ _____ _____    ______ ____
ROOT
ATOM      1  N   UNL     1       4.639  -2.416   3.700  0.00  0.00    -0.296 N 
ATOM      2  C   UNL     1       3.348  -2.147   3.422  0.00  0.00    +0.302 C 
ATOM      3  O   UNL     1       3.039  -1.717   2.327  0.00  0.00    -0.253 OA
ATOM      4  N   UNL     1       2.400  -2.354   4.357  0.00  0.00    -0.286 N 
ATOM      5  C   UNL     1       0.978  -2.180   4.032  0.00  0.00    +0.111 C 
ATOM      6  C   UNL     1       0.355  -1.214   5.044  0.00  0.00    +0.039 C 
ATOM      7  C   UNL     1       0.618  -1.727   6.462  0.00  0.00    +0.079 C 
ATOM      8  C   UNL     1       2.126  -1.784   6.714  0.00  0.00    +0.039 C 
ATOM      9  C   UNL     1       2.769  -2.763   5.719  0.00  0.00    +0.111 C 
ATOM     10  H   UNL     1       4.896  -2.689   4.595  0.00  0.00    +0.151 HD
ENDROOT
BRANCH   1  13
ATOM     11  C   UNL     1       6.930  -3.128   2.804  0.00  0.00    +0.041 C 
ATOM     12  C   UNL     1       6.976  -1.614   3.021  0.00  0.00    +0.033 C 
ATOM     13  C   UNL     1       5.655  -2.295   2.651  0.00  0.00    +0.082 C 
BRANCH  11  17
ATOM     14  C   UNL     1       7.256  -5.626   6.254  0.00  0.00    +0.000 A 
ATOM     15  C   UNL     1       7.297  -6.184   4.990  0.00  0.00    +0.000 A 
ATOM     16  C   UNL     1       7.191  -5.376   3.873  0.00  0.00    +0.004 A 
ATOM     17  C   UNL     1       7.044  -4.009   4.021  0.00  0.00    -0.042 A 
ATOM     18  C   UNL     1       7.002  -3.451   5.285  0.00  0.00    +0.004 A 
ATOM     19  C   UNL     1       7.109  -4.259   6.401  0.00  0.00    +0.000 A 
ENDBRANCH  11  17
ENDBRANCH   1  13
BRANCH   7  20
ATOM     20  N   UNL     1      -0.005  -0.822   7.431  0.00  0.00    -0.187 NA
ATOM     21  H   UNL     1      -0.034   0.132   7.256  0.00  0.00    +0.148 HD
BRANCH  20  22
ATOM     22  S   UNL     1      -0.659  -1.427   8.827  0.00  0.00    +0.059 S 
ATOM     23  O   UNL     1      -1.154  -0.315   9.560  0.00  0.00    -0.153 OA
ATOM     24  O   UNL     1      -1.487  -2.518   8.448  0.00  0.00    -0.153 OA
BRANCH  22  25
ATOM     25  C   UNL     1       0.665  -2.104   9.772  0.00  0.00    +0.105 A 
ATOM     26  C   UNL     1       1.028  -3.428   9.604  0.00  0.00    +0.028 A 
ATOM     27  C   UNL     1       2.067  -3.959  10.346  0.00  0.00    +0.002 A 
ATOM     28  C   UNL     1       2.743  -3.167  11.255  0.00  0.00    +0.000 A 
ATOM     29  C   UNL     1       2.380  -1.843  11.422  0.00  0.00    +0.002 A 
ATOM     30  C   UNL     1       1.344  -1.311  10.677  0.00  0.00    +0.028 A 
ENDBRANCH  22  25
ENDBRANCH  20  22
ENDBRANCH   7  20
TORSDOF 5
