REMARK  Name = ZINC05748993
REMARK  4 active torsions:
REMARK  status: ('A' for Active; 'I' for Inactive)
REMARK    1  A    between atoms: C_1  and  N_2
REMARK    2  A    between atoms: C_5  and  C_7
REMARK    3  A    between atoms: C_7  and  O_9
REMARK    4  A    between atoms: O_9  and  N_10
REMARK                            x       y       z     vdW  Elec       q    Type
REMARK                         _______ _______ _______ _____ _____    ______ ____
ROOT
ATOM      1  C   UNL     1      -0.014   1.211   0.009  0.00  0.00    +0.387 C 
ATOM      2  O   UNL     1       0.002  -0.004   0.002  0.00  0.00    -0.241 OA
ENDROOT
BRANCH   1   7
ATOM      3  C   UNL     1      -3.271   4.883   0.046  0.00  0.00    +0.172 C 
ATOM      4  N   UNL     1      -2.721   3.526   0.035  0.00  0.00    -0.273 N 
ATOM      5  C   UNL     1      -3.460   2.388   0.032  0.00  0.00    +0.124 A 
ATOM      6  C   UNL     1      -2.592   1.348   0.022  0.00  0.00    +0.070 A 
ATOM      7  C   UNL     1      -1.302   1.931   0.019  0.00  0.00    +0.185 A 
ATOM      8  N   UNL     1      -1.468   3.239   0.032  0.00  0.00    -0.164 NA
ATOM      9 BR   UNL     1      -3.015  -0.495   0.013  0.00  0.00    -0.046 Br
ENDBRANCH   1   7
BRANCH   1  10
ATOM     10  O   UNL     1       1.143   1.900   0.001  0.00  0.00    -0.310 OA
BRANCH  10  11
ATOM     11  N   UNL     1       2.173   1.251  -0.012  0.00  0.00    -0.083 NA
ATOM     12  C   UNL     1       3.305   1.847  -0.020  0.00  0.00    +0.058 C 
ATOM     13  C   UNL     1       3.386   3.358  -0.019  0.00  0.00    +0.054 C 
ATOM     14  C   UNL     1       4.330   3.790   1.115  0.00  0.00    +0.006 C 
ATOM     15  C   UNL     1       5.678   3.087   0.947  0.00  0.00    +0.001 C 
ATOM     16  C   UNL     1       5.496   1.575   1.092  0.00  0.00    +0.006 C 
ATOM     17  C   UNL     1       4.597   1.060  -0.036  0.00  0.00    +0.054 C 
ENDBRANCH  10  11
ENDBRANCH   1  10
TORSDOF 3
