REMARK  Name = ZINC13702986
REMARK  12 active torsions:
REMARK  status: ('A' for Active; 'I' for Inactive)
REMARK    1  A    between atoms: C_1  and  C_2
REMARK    2  A    between atoms: C_2  and  C_3
REMARK    3  A    between atoms: C_3  and  N_56
REMARK    4  A    between atoms: C_9  and  N_16
REMARK    5  A    between atoms: C_10  and  C_11
REMARK    6  A    between atoms: C_11  and  O_13
REMARK    7  A    between atoms: O_13  and  C_14
REMARK    8  A    between atoms: C_14  and  C_15
REMARK    9  A    between atoms: C_17  and  C_19
REMARK   10  A    between atoms: C_21  and  C_26
REMARK   11  A    between atoms: N_22  and  C_24
REMARK   12  A    between atoms: C_24  and  C_25
REMARK                            x       y       z     vdW  Elec       q    Type
REMARK                         _______ _______ _______ _____ _____    ______ ____
ROOT
ATOM      1  C   UNL     1      -8.015  -2.774   7.181  0.00  0.00    -0.074 C 
ATOM      2  C   UNL     1      -7.469  -2.780   5.750  0.00  0.00    +0.018 C 
ATOM      3  C   UNL     1      -6.529  -1.591   5.596  0.00  0.00    -0.025 A 
ATOM      4  C   UNL     1      -6.573  -0.571   6.483  0.00  0.00    -0.021 A 
ATOM      5  S   UNL     1      -5.328   0.559   5.935  0.00  0.00    -0.079 S 
ATOM      6  C   UNL     1      -4.762  -0.302   4.542  0.00  0.00    +0.087 A 
ATOM      7  C   UNL     1      -5.546  -1.450   4.538  0.00  0.00    +0.091 A 
ATOM      8  C   UNL     1      -7.487  -0.459   7.663  0.00  0.00    -0.035 C 
ATOM      9  N   UNL     1      -8.582  -1.444   7.484  0.00  0.00    +0.383 N 
ATOM     10  H   UNL     1      -9.174  -1.147   6.699  0.00  0.00    -0.081 HD
ENDROOT
BRANCH   6  11
ATOM     11  N   UNL     1      -3.766   0.063   3.651  0.00  0.00    -0.274 N 
ATOM     12  C   UNL     1      -3.106   1.226   3.817  0.00  0.00    +0.269 C 
ATOM     13  O   UNL     1      -3.386   1.956   4.748  0.00  0.00    -0.268 OA
ATOM     14  H   UNL     1      -3.542  -0.519   2.908  0.00  0.00    +0.156 HD
BRANCH  12  15
ATOM     15  C   UNL     1      -2.044   1.615   2.868  0.00  0.00    +0.148 A 
ATOM     16  C   UNL     1      -1.268   2.798   2.910  0.00  0.00    +0.057 A 
ATOM     17  C   UNL     1      -0.429   2.718   1.851  0.00  0.00    +0.037 A 
ATOM     18  N   UNL     1      -0.698   1.558   1.213  0.00  0.00    -0.268 N 
ATOM     19  N   UNL     1      -1.639   0.926   1.819  0.00  0.00    -0.166 NA
ATOM     20  C   UNL     1       0.610   3.735   1.455  0.00  0.00    +0.065 C 
BRANCH  18  21
ATOM     21  C   UNL     1      -0.013   1.086   0.008  0.00  0.00    +0.140 C 
ATOM     22  C   UNL     1      -0.753   1.593  -1.232  0.00  0.00    +0.029 C 
ENDBRANCH  18  21
ENDBRANCH  12  15
ENDBRANCH   6  11
BRANCH   7  23
ATOM     23  C   UNL     1      -5.386  -2.476   3.506  0.00  0.00    +0.342 C 
ATOM     24  O   UNL     1      -4.605  -3.393   3.676  0.00  0.00    -0.245 OA
BRANCH  23  25
ATOM     25  O   UNL     1      -6.106  -2.406   2.367  0.00  0.00    -0.461 OA
BRANCH  25  26
ATOM     26  C   UNL     1      -5.896  -3.458   1.389  0.00  0.00    +0.229 C 
ATOM     27  C   UNL     1      -6.792  -3.210   0.174  0.00  0.00    +0.048 C 
ENDBRANCH  25  26
ENDBRANCH  23  25
ENDBRANCH   7  23
BRANCH   9  28
ATOM     28  C   UNL     1      -9.407  -1.512   8.709  0.00  0.00    -0.079 C 
BRANCH  28  30
ATOM     29  C   UNL     1      -9.457  -2.116  11.133  0.00  0.00    +0.002 C 
ATOM     30  C   UNL     1      -8.583  -2.054   9.879  0.00  0.00    -0.022 C 
ENDBRANCH  28  30
ENDBRANCH   9  28
TORSDOF 8
