REMARK  Name = ZINC62962172
REMARK  3 active torsions:
REMARK  status: ('A' for Active; 'I' for Inactive)
REMARK    1  A    between atoms: C_3  and  N_12
REMARK    2  A    between atoms: C_5  and  N_7
REMARK    3  A    between atoms: N_12  and  C_13
REMARK                            x       y       z     vdW  Elec       q    Type
REMARK                         _______ _______ _______ _____ _____    ______ ____
ROOT
ATOM      1  C   UNL     1      -0.017   1.377   0.010  0.00  0.00    +0.004 A 
ATOM      2  C   UNL     1       1.169   2.087   0.002  0.00  0.00    +0.023 A 
ATOM      3  C   UNL     1       2.384   1.413  -0.013  0.00  0.00    +0.029 A 
ATOM      4  C   UNL     1       2.405   0.025  -0.021  0.00  0.00    +0.050 A 
ATOM      5  C   UNL     1       1.213  -0.684  -0.013  0.00  0.00    +0.067 A 
ATOM      6  C   UNL     1       0.002  -0.004   0.002  0.00  0.00    +0.028 A 
ENDROOT
BRANCH   5   7
ATOM      7  N   UNL     1       1.231  -2.086  -0.021  0.00  0.00    -0.240 N 
ATOM      8  C   UNL     1       0.148  -2.895  -0.021  0.00  0.00    +0.114 A 
ATOM      9  C   UNL     1       0.590  -4.174  -0.031  0.00  0.00    +0.041 A 
ATOM     10  C   UNL     1       1.989  -4.146  -0.038  0.00  0.00    +0.135 A 
ATOM     11  N   UNL     1       2.374  -2.896  -0.038  0.00  0.00    -0.175 NA
ENDBRANCH   5   7
BRANCH   3  12
ATOM     12  N   UNL     1       3.582   2.131  -0.021  0.00  0.00    -0.339 N 
ATOM     13  H   UNL     1       4.429   1.660  -0.032  0.00  0.00    +0.146 HD
BRANCH  12  14
ATOM     14  C   UNL     1       3.558   3.596  -0.013  0.00  0.00    +0.093 C 
ATOM     15  C   UNL     1       3.450   4.097   1.436  0.00  0.00    +0.046 C 
ATOM     16  C   UNL     1       3.740   5.625   1.443  0.00  0.00    +0.168 C 
ATOM     17  S   UNL     1       5.139   5.708   0.247  0.00  0.00    -0.029 S 
ATOM     18  O   UNL     1       4.926   6.798  -0.639  0.00  0.00    -0.174 OA
ATOM     19  O   UNL     1       6.364   5.615   0.961  0.00  0.00    -0.174 OA
ATOM     20  C   UNL     1       4.856   4.135  -0.661  0.00  0.00    +0.188 C 
ENDBRANCH  12  14
ENDBRANCH   3  12
TORSDOF 3
