REMARK  Name = ZINC65314799
REMARK  8 active torsions:
REMARK  status: ('A' for Active; 'I' for Inactive)
REMARK    1  A    between atoms: C_1  and  C_2
REMARK    2  A    between atoms: N_7  and  S_9
REMARK    3  A    between atoms: S_9  and  C_12
REMARK    4  A    between atoms: C_18  and  C_32
REMARK    5  A    between atoms: C_18  and  C_33
REMARK    6  A    between atoms: N_21  and  C_22
REMARK    7  A    between atoms: C_22  and  C_23
REMARK    8  A    between atoms: N_25  and  C_26
REMARK                            x       y       z     vdW  Elec       q    Type
REMARK                         _______ _______ _______ _____ _____    ______ ____
ROOT
ATOM      1  C   UNL     1       1.712  -3.159   3.488  0.00  0.00    +0.106 A 
ATOM      2  C   UNL     1       2.591  -4.211   3.302  0.00  0.00    +0.030 A 
ATOM      3  C   UNL     1       3.659  -4.387   4.157  0.00  0.00    +0.026 A 
ATOM      4  C   UNL     1       3.860  -3.504   5.216  0.00  0.00    +0.041 A 
ATOM      5  C   UNL     1       2.970  -2.452   5.393  0.00  0.00    -0.010 A 
ATOM      6  C   UNL     1       1.908  -2.276   4.535  0.00  0.00    +0.035 A 
ATOM      7  C   UNL     1       3.451  -1.688   6.605  0.00  0.00    +0.069 C 
ATOM      8  C   UNL     1       4.685  -2.443   7.051  0.00  0.00    +0.230 C 
ATOM      9  O   UNL     1       5.392  -2.172   7.998  0.00  0.00    -0.274 OA
ATOM     10  N   UNL     1       4.848  -3.470   6.201  0.00  0.00    -0.262 N 
ATOM     11  C   UNL     1       3.811  -0.250   6.224  0.00  0.00    +0.025 C 
ATOM     12  C   UNL     1       2.387  -1.702   7.704  0.00  0.00    +0.025 C 
ENDROOT
BRANCH   1  13
ATOM     13  S   UNL     1       0.350  -2.942   2.392  0.00  0.00    +0.061 S 
ATOM     14  O   UNL     1      -0.630  -2.199   3.104  0.00  0.00    -0.153 OA
ATOM     15  O   UNL     1       0.077  -4.216   1.825  0.00  0.00    -0.153 OA
BRANCH  13  21
ATOM     16  C   UNL     1      -0.019   1.526   0.010  0.00  0.00    +0.009 C 
ATOM     17  C   UNL     1       0.002  -0.004   0.002  0.00  0.00    +0.002 C 
ATOM     18  C   UNL     1       0.720  -0.498  -1.256  0.00  0.00    +0.006 C 
ATOM     19  C   UNL     1       0.712  -2.028  -1.282  0.00  0.00    +0.017 C 
ATOM     20  C   UNL     1       1.463  -2.559  -0.057  0.00  0.00    +0.109 C 
ATOM     21  N   UNL     1       0.869  -1.973   1.153  0.00  0.00    -0.176 NA
ATOM     22  C   UNL     1       0.744  -0.512   1.242  0.00  0.00    +0.112 C 
ENDBRANCH  13  21
ENDBRANCH   1  13
BRANCH  10  23
ATOM     23  C   UNL     1       5.939  -4.443   6.296  0.00  0.00    +0.209 C 
BRANCH  23  24
ATOM     24  C   UNL     1       7.118  -3.957   5.493  0.00  0.00    +0.231 C 
ATOM     25  O   UNL     1       7.053  -2.901   4.899  0.00  0.00    -0.274 OA
ATOM     26  N   UNL     1       8.244  -4.695   5.434  0.00  0.00    -0.311 N 
ATOM     27  H   UNL     1       8.296  -5.539   5.909  0.00  0.00    +0.149 HD
BRANCH  26  28
ATOM     28  C   UNL     1       9.390  -4.222   4.653  0.00  0.00    +0.073 C 
ATOM     29  C   UNL     1      10.232  -3.272   5.507  0.00  0.00    +0.022 C 
ATOM     30  C   UNL     1      11.428  -2.777   4.691  0.00  0.00    +0.002 C 
ATOM     31  C   UNL     1      12.283  -3.973   4.265  0.00  0.00    +0.000 C 
ATOM     32  C   UNL     1      11.441  -4.923   3.411  0.00  0.00    +0.002 C 
ATOM     33  C   UNL     1      10.245  -5.417   4.226  0.00  0.00    +0.022 C 
ENDBRANCH  26  28
ENDBRANCH  23  24
ENDBRANCH  10  23
TORSDOF 5
