REMARK  Name = ZINC57926326
REMARK  3 active torsions:
REMARK  status: ('A' for Active; 'I' for Inactive)
REMARK    1  A    between atoms: C_1  and  C_2
REMARK    2  A    between atoms: N_12  and  C_13
REMARK    3  A    between atoms: C_13  and  C_14
REMARK                            x       y       z     vdW  Elec       q    Type
REMARK                         _______ _______ _______ _____ _____    ______ ____
ROOT
ATOM      1  C   UNL     1      -0.019   1.526   0.010  0.00  0.00    +0.029 C 
ATOM      2  C   UNL     1       0.002  -0.004   0.002  0.00  0.00    +0.088 C 
ATOM      3  C   UNL     1       0.733  -0.505  -1.252  0.00  0.00    +0.123 C 
ATOM      4  N   UNL     1       2.127  -0.044  -1.186  0.00  0.00    -0.341 N 
ATOM      5  C   UNL     1       2.827  -0.175   0.025  0.00  0.00    +0.052 A 
ATOM      6  C   UNL     1       4.210  -0.084   0.045  0.00  0.00    +0.074 A 
ATOM      7  C   UNL     1       4.896  -0.212   1.244  0.00  0.00    +0.164 A 
ATOM      8  C   UNL     1       4.198  -0.430   2.425  0.00  0.00    +0.164 A 
ATOM      9  C   UNL     1       2.814  -0.524   2.406  0.00  0.00    +0.074 A 
ATOM     10  C   UNL     1       2.127  -0.398   1.209  0.00  0.00    +0.055 A 
ATOM     11  N   UNL     1       0.725  -0.497   1.184  0.00  0.00    -0.316 N 
ATOM     12  O   UNL     1       4.856  -0.550   3.612  0.00  0.00    -0.485 OA
ATOM     13  C   UNL     1       6.260  -0.823   3.545  0.00  0.00    +0.270 C 
ATOM     14  C   UNL     1       6.884   0.121   2.508  0.00  0.00    +0.270 C 
ATOM     15  O   UNL     1       6.256  -0.123   1.245  0.00  0.00    -0.485 OA
ATOM     16  H   UNL     1       2.557   0.343  -1.965  0.00  0.00    +0.146 HD
ENDROOT
BRANCH  11  17
ATOM     17  C   UNL     1      -0.003  -1.081   2.313  0.00  0.00    +0.218 C 
BRANCH  17  18
ATOM     18  C   UNL     1      -0.153  -2.588   2.099  0.00  0.00    +0.405 C 
ATOM     19  F   UNL     1       1.114  -3.174   2.008  0.00  0.00    -0.169 F 
ATOM     20  F   UNL     1      -0.848  -3.146   3.178  0.00  0.00    -0.169 F 
ATOM     21  F   UNL     1      -0.861  -2.823   0.916  0.00  0.00    -0.169 F 
ENDBRANCH  17  18
ENDBRANCH  11  17
TORSDOF 2
