REMARK  Name = ZINC35318811
REMARK  4 active torsions:
REMARK  status: ('A' for Active; 'I' for Inactive)
REMARK    1  A    between atoms: C_1  and  C_2
REMARK    2  A    between atoms: C_5  and  C_8
REMARK    3  A    between atoms: C_10  and  C_13
REMARK    4  A    between atoms: C_19  and  C_21
REMARK                            x       y       z     vdW  Elec       q    Type
REMARK                         _______ _______ _______ _____ _____    ______ ____
ROOT
ATOM      1  C   UNL     1       0.059  -4.256  -0.021  0.00  0.00    +0.202 A 
ATOM      2  N   UNL     1       0.070  -5.047   1.067  0.00  0.00    -0.190 NA
ATOM      3  C   UNL     1       0.086  -6.299   0.708  0.00  0.00    +0.248 A 
ATOM      4  O   UNL     1       0.086  -6.357  -0.630  0.00  0.00    -0.336 OA
ATOM      5  N   UNL     1       0.064  -5.015  -1.090  0.00  0.00    -0.056 NA
ENDROOT
BRANCH   1  10
ATOM      6  C   UNL     1      -0.018   1.503   0.010  0.00  0.00    +0.044 C 
ATOM      7  C   UNL     1       0.002  -0.004   0.002  0.00  0.00    -0.050 A 
ATOM      8  C   UNL     1       0.006  -0.686  -1.201  0.00  0.00    +0.004 A 
ATOM      9  C   UNL     1       0.024  -2.067  -1.214  0.00  0.00    +0.012 A 
ATOM     10  C   UNL     1       0.040  -2.772  -0.013  0.00  0.00    +0.022 A 
ATOM     11  C   UNL     1       0.036  -2.080   1.196  0.00  0.00    +0.012 A 
ATOM     12  C   UNL     1       0.023  -0.700   1.198  0.00  0.00    +0.004 A 
ENDBRANCH   1  10
BRANCH   3  13
ATOM     13  C   UNL     1       0.102  -7.482   1.642  0.00  0.00    +0.165 C 
ATOM     14  C   UNL     1       1.500  -8.134   1.638  0.00  0.00    +0.034 C 
ATOM     15  C   UNL     1       1.176  -9.650   1.713  0.00  0.00    +0.021 C 
ATOM     16  C   UNL     1      -0.117  -9.734   0.865  0.00  0.00    +0.108 C 
ATOM     17  N   UNL     1      -0.858  -8.496   1.181  0.00  0.00    -0.289 N 
ATOM     18  C   UNL     1      -2.190  -8.322   1.066  0.00  0.00    +0.219 C 
ATOM     19  O   UNL     1      -2.689  -7.256   1.356  0.00  0.00    -0.275 OA
BRANCH  18  20
ATOM     20  C   UNL     1      -3.058  -9.453   0.578  0.00  0.00    +0.075 C 
ATOM     21  C   UNL     1      -3.711  -9.300  -0.797  0.00  0.00    +0.013 C 
ATOM     22  C   UNL     1      -4.562  -9.194   0.470  0.00  0.00    +0.013 C 
ENDBRANCH  18  20
ENDBRANCH   3  13
TORSDOF 3
