REMARK  Name = ZINC06658677
REMARK  10 active torsions:
REMARK  status: ('A' for Active; 'I' for Inactive)
REMARK    1  A    between atoms: C_1  and  C_2
REMARK    2  A    between atoms: C_6  and  C_11
REMARK    3  A    between atoms: C_12  and  O_14
REMARK    4  A    between atoms: O_14  and  C_15
REMARK    5  A    between atoms: C_15  and  C_16
REMARK    6  A    between atoms: N_18  and  C_19
REMARK    7  A    between atoms: C_21  and  C_27
REMARK    8  A    between atoms: C_21  and  C_28
REMARK    9  A    between atoms: C_23  and  C_25
REMARK   10  A    between atoms: C_23  and  C_26
REMARK                            x       y       z     vdW  Elec       q    Type
REMARK                         _______ _______ _______ _____ _____    ______ ____
ROOT
ATOM      1  C   UNL     1       0.833  -3.175   4.786  0.00  0.00    +0.251 C 
ATOM      2  O   UNL     1       0.643  -4.362   4.620  0.00  0.00    -0.272 OA
ATOM      3  N   UNL     1       0.816  -2.658   6.030  0.00  0.00    -0.310 N 
ATOM      4  H   UNL     1       0.968  -1.709   6.163  0.00  0.00    +0.149 HD
ENDROOT
BRANCH   3   5
ATOM      5  C   UNL     1       0.569  -3.531   7.185  0.00  0.00    +0.070 C 
ATOM      6  C   UNL     1      -0.940  -3.650   7.410  0.00  0.00    +0.009 C 
ATOM      7  C   UNL     1      -1.214  -4.546   8.617  0.00  0.00    -0.072 C 
ATOM      8  N   UNL     1      -0.506  -4.096   9.806  0.00  0.00    +0.386 N 
ATOM      9  C   UNL     1       0.900  -3.752   9.666  0.00  0.00    -0.072 C 
ATOM     10  C   UNL     1       1.192  -2.905   8.432  0.00  0.00    +0.009 C 
ATOM     11  C   UNL     1       1.790  -4.998   9.667  0.00  0.00    -0.010 C 
ATOM     12  C   UNL     1       1.299  -2.912  10.903  0.00  0.00    -0.010 C 
ATOM     13  C   UNL     1      -0.899  -6.003   8.277  0.00  0.00    -0.010 C 
ATOM     14  C   UNL     1      -2.728  -4.463   8.916  0.00  0.00    -0.010 C 
ATOM     15  H   UNL     1      -0.999  -3.283  10.185  0.00  0.00    -0.084 HD
ATOM     16  H   UNL     1      -0.591  -4.819  10.524  0.00  0.00    -0.084 HD
ENDBRANCH   3   5
BRANCH   1  17
ATOM     17  C   UNL     1       1.087  -2.280   3.600  0.00  0.00    +0.324 C 
BRANCH  17  18
ATOM     18  O   UNL     1       1.054  -3.056   2.401  0.00  0.00    -0.482 OA
BRANCH  18  30
ATOM     19  C   UNL     1       1.970   1.126   0.066  0.00  0.00    +0.044 C 
ATOM     20  C   UNL     1       1.717  -0.359   0.046  0.00  0.00    -0.043 A 
ATOM     21  C   UNL     1       1.702  -1.033  -1.159  0.00  0.00    +0.050 A 
ATOM     22  C   UNL     1       1.470  -2.401  -1.189  0.00  0.00    +0.143 A 
ATOM     23  C   UNL     1       1.250  -3.092   0.015  0.00  0.00    +0.062 A 
ATOM     24  C   UNL     1       1.005  -4.534  -0.028  0.00  0.00    -0.030 A 
ATOM     25  C   UNL     1       1.001  -5.149  -1.240  0.00  0.00    +0.096 A 
ATOM     26  C   UNL     1       1.230  -4.394  -2.409  0.00  0.00    +0.337 A 
ATOM     27  O   UNL     1       1.223  -4.957  -3.489  0.00  0.00    -0.245 OA
ATOM     28  O   UNL     1       1.453  -3.071  -2.361  0.00  0.00    -0.422 OA
ATOM     29  C   UNL     1       0.765  -5.317   1.238  0.00  0.00    +0.045 C 
ATOM     30  C   UNL     1       1.266  -2.397   1.234  0.00  0.00    +0.132 A 
ATOM     31  C   UNL     1       1.506  -1.034   1.237  0.00  0.00    +0.050 A 
ENDBRANCH  18  30
ENDBRANCH  17  18
ENDBRANCH   1  17
TORSDOF 4
