REMARK  Name = ZINC54734368
REMARK  7 active torsions:
REMARK  status: ('A' for Active; 'I' for Inactive)
REMARK    1  A    between atoms: C_1  and  C_2
REMARK    2  A    between atoms: C_3  and  C_27
REMARK    3  A    between atoms: C_5  and  N_22
REMARK    4  A    between atoms: C_6  and  C_7
REMARK    5  A    between atoms: C_7  and  C_9
REMARK    6  A    between atoms: C_9  and  C_11
REMARK    7  A    between atoms: C_9  and  C_13
REMARK                            x       y       z     vdW  Elec       q    Type
REMARK                         _______ _______ _______ _____ _____    ______ ____
ROOT
ATOM      1  C   UNL     1       0.474  -0.140   2.438  0.00  0.00    +0.192 C 
ATOM      2  O   UNL     1      -0.433   0.009   3.231  0.00  0.00    -0.290 OA
ENDROOT
BRANCH   1   8
ATOM      3  C   UNL     1      -0.126   1.822   0.259  0.00  0.00    +0.045 C 
ATOM      4  C   UNL     1      -0.094   0.330   0.050  0.00  0.00    -0.028 A 
ATOM      5  C   UNL     1      -0.332  -0.228  -1.151  0.00  0.00    -0.008 A 
ATOM      6  S   UNL     1      -0.170  -1.971  -0.835  0.00  0.00    -0.075 S 
ATOM      7  C   UNL     1       0.194  -1.944   0.802  0.00  0.00    +0.095 A 
ATOM      8  C   UNL     1       0.200  -0.591   1.126  0.00  0.00    +0.053 A 
ATOM      9  C   UNL     1      -0.658   0.460  -2.452  0.00  0.00    +0.052 C 
BRANCH   7  10
ATOM     10  N   UNL     1       0.437  -3.024   1.641  0.00  0.00    -0.317 N 
ATOM     11  C   UNL     1       0.616  -2.957   2.995  0.00  0.00    +0.092 A 
ATOM     12  C   UNL     1       0.826  -4.207   3.453  0.00  0.00    +0.019 A 
ATOM     13  C   UNL     1       0.775  -5.079   2.346  0.00  0.00    +0.019 A 
ATOM     14  C   UNL     1       0.530  -4.331   1.252  0.00  0.00    +0.092 A 
ENDBRANCH   7  10
ENDBRANCH   1   8
BRANCH   1  15
ATOM     15  C   UNL     1       1.893   0.156   2.853  0.00  0.00    +0.247 C 
BRANCH  15  16
ATOM     16  C   UNL     1       2.025  -0.008   4.345  0.00  0.00    +0.221 A 
ATOM     17  N   UNL     1       1.351   0.664   5.229  0.00  0.00    -0.212 NA
ATOM     18  C   UNL     1       1.726   0.255   6.471  0.00  0.00    +0.110 A 
ATOM     19  C   UNL     1       1.346   0.618   7.764  0.00  0.00    +0.031 A 
ATOM     20  C   UNL     1       1.929  -0.001   8.846  0.00  0.00    +0.002 A 
ATOM     21  C   UNL     1       2.892  -0.982   8.660  0.00  0.00    +0.004 A 
ATOM     22  C   UNL     1       3.277  -1.351   7.388  0.00  0.00    +0.048 A 
ATOM     23  C   UNL     1       2.700  -0.738   6.286  0.00  0.00    +0.155 A 
ATOM     24  O   UNL     1       2.852  -0.875   4.951  0.00  0.00    -0.438 OA
ENDBRANCH  15  16
BRANCH  15  25
ATOM     25  C   UNL     1       2.235   1.538   2.479  0.00  0.00    +0.084 C 
ATOM     26  N   UNL     1       2.499   2.605   2.191  0.00  0.00    -0.195 NA
ENDBRANCH  15  25
ENDBRANCH   1  15
TORSDOF 5
