REMARK  Name = ZINC07649863
REMARK  6 active torsions:
REMARK  status: ('A' for Active; 'I' for Inactive)
REMARK    1  A    between atoms: C_1  and  C_2
REMARK    2  A    between atoms: C_2  and  C_4
REMARK    3  A    between atoms: C_2  and  O_17
REMARK    4  A    between atoms: N_6  and  N_7
REMARK    5  A    between atoms: N_10  and  C_11
REMARK    6  A    between atoms: O_17  and  C_18
REMARK                            x       y       z     vdW  Elec       q    Type
REMARK                         _______ _______ _______ _____ _____    ______ ____
ROOT
ATOM      1  C   UNL     1      -1.485  -0.488   0.289  0.00  0.00    +0.270 C 
ATOM      2  O   UNL     1      -1.852  -0.752   1.415  0.00  0.00    -0.270 OA
ATOM      3  N   UNL     1      -2.381  -0.437  -0.716  0.00  0.00    -0.230 N 
ATOM      4  H   UNL     1      -2.087  -0.226  -1.617  0.00  0.00    +0.173 HD
ENDROOT
BRANCH   3   5
ATOM      5  N   UNL     1      -3.735  -0.688  -0.462  0.00  0.00    -0.218 N 
ATOM      6  C   UNL     1      -4.631  -0.636  -1.467  0.00  0.00    +0.320 C 
ATOM      7  O   UNL     1      -5.806  -0.854  -1.246  0.00  0.00    -0.251 OA
ATOM      8  N   UNL     1      -4.223  -0.343  -2.718  0.00  0.00    -0.268 N 
ATOM      9  H   UNL     1      -4.028  -0.898   0.439  0.00  0.00    +0.174 HD
ATOM     10  H   UNL     1      -3.277  -0.252  -2.911  0.00  0.00    +0.156 HD
BRANCH   8  11
ATOM     11  C   UNL     1      -5.165  -0.171  -3.739  0.00  0.00    +0.035 A 
ATOM     12  C   UNL     1      -4.858  -0.547  -5.040  0.00  0.00    +0.023 A 
ATOM     13  C   UNL     1      -5.790  -0.376  -6.045  0.00  0.00    +0.002 A 
ATOM     14  C   UNL     1      -7.028   0.169  -5.756  0.00  0.00    +0.000 A 
ATOM     15  C   UNL     1      -7.337   0.545  -4.462  0.00  0.00    +0.002 A 
ATOM     16  C   UNL     1      -6.411   0.371  -3.451  0.00  0.00    +0.023 A 
ENDBRANCH   8  11
ENDBRANCH   3   5
BRANCH   1  18
ATOM     17  C   UNL     1       0.147   1.235  -0.431  0.00  0.00    +0.062 C 
ATOM     18  C   UNL     1      -0.028  -0.218   0.015  0.00  0.00    +0.257 C 
BRANCH  18  19
ATOM     19  O   UNL     1       0.731  -0.446   1.205  0.00  0.00    -0.480 OA
BRANCH  19  20
ATOM     20  C   UNL     1       2.044  -0.758   1.049  0.00  0.00    +0.122 A 
ATOM     21  C   UNL     1       2.614  -0.725  -0.227  0.00  0.00    +0.046 A 
ATOM     22  C   UNL     1       3.926  -1.033  -0.415  0.00  0.00    +0.012 A 
ATOM     23  C   UNL     1       4.723  -1.389   0.687  0.00  0.00    -0.018 A 
ATOM     24  C   UNL     1       6.081  -1.712   0.529  0.00  0.00    +0.008 A 
ATOM     25  C   UNL     1       6.824  -2.052   1.618  0.00  0.00    +0.001 A 
ATOM     26  C   UNL     1       6.258  -2.086   2.891  0.00  0.00    +0.001 A 
ATOM     27  C   UNL     1       4.946  -1.779   3.082  0.00  0.00    +0.008 A 
ATOM     28  C   UNL     1       4.147  -1.423   1.982  0.00  0.00    -0.014 A 
ATOM     29  C   UNL     1       2.791  -1.095   2.142  0.00  0.00    +0.054 A 
ENDBRANCH  19  20
ENDBRANCH  18  19
ENDBRANCH   1  18
TORSDOF 5
