REMARK  Name = ZINC17108935
REMARK  3 active torsions:
REMARK  status: ('A' for Active; 'I' for Inactive)
REMARK    1  A    between atoms: C_4  and  C_7
REMARK    2  A    between atoms: C_8  and  C_9
REMARK    3  A    between atoms: CB_16  and  CG_17
REMARK                            x       y       z     vdW  Elec       q    Type
REMARK                         _______ _______ _______ _____ _____    ______ ____
ROOT
ATOM      1  C   UNK A   2      -1.129   2.144   0.517  0.00  0.00    +0.031 C 
ATOM      2  C   UNK A   2      -2.308   1.548   0.848  0.00  0.00    +0.107 A 
ATOM      3  C   UNK A   2      -3.417   2.348   1.381  0.00  0.00    +0.273 A 
ATOM      4  O   UNK A   2      -3.220   3.483   1.775  0.00  0.00    -0.266 OA
ATOM      5  N   PHE A   1      -4.659   1.817   1.424  0.00  0.00    -0.317 N 
ATOM      6  H   PHE A   1      -5.498   2.412   1.813  0.00  0.00    +0.169 HD
ATOM      7  CA  PHE A   1      -4.864   0.512   0.970  0.00  0.00    +0.108 A 
ATOM      8  CB  PHE A   1      -6.119   0.058   0.742  0.00  0.00    +0.039 C 
ATOM      9  C   PHE A   1      -3.705  -0.366   0.743  0.00  0.00    +0.273 A 
ATOM     10  O   PHE A   1      -3.861  -1.565   0.603  0.00  0.00    -0.266 OA
ATOM     11  N   UNK A   2      -2.467   0.170   0.689  0.00  0.00    -0.317 N 
ATOM     12  H   UNK A   2      -1.588  -0.470   0.521  0.00  0.00    +0.169 HD
ENDROOT
BRANCH   8  13
ATOM     13  CG  PHE A   1      -7.259   0.984   0.806  0.00  0.00    -0.023 A 
ATOM     14  CD2 PHE A   1      -8.486   0.555   1.323  0.00  0.00    +0.008 A 
ATOM     15  CE2 PHE A   1      -9.549   1.431   1.383  0.00  0.00    +0.001 A 
ATOM     16  CZ  PHE A   1      -9.407   2.730   0.925  0.00  0.00    +0.000 A 
ATOM     17  CE1 PHE A   1      -8.198   3.160   0.407  0.00  0.00    +0.001 A 
ATOM     18  CD1 PHE A   1      -7.124   2.298   0.344  0.00  0.00    +0.008 A 
ENDBRANCH   8  13
BRANCH   1  20
ATOM     19  C   UNK A   2       1.067   1.975  -0.421  0.00  0.00    +0.008 C 
ATOM     20  C   UNK A   2      -0.064   1.370   0.011  0.00  0.00    +0.003 C 
BRANCH  19  24
ATOM     21  C   UNK A   2       1.273   6.207  -0.600  0.00  0.00    +0.000 A 
ATOM     22  C   UNK A   2       2.398   5.476  -0.261  0.00  0.00    +0.001 A 
ATOM     23  C   UNK A   2       2.340   4.100  -0.200  0.00  0.00    +0.008 A 
ATOM     24  C   UNK A   2       1.138   3.442  -0.483  0.00  0.00    -0.025 A 
ATOM     25  C   UNK A   2       0.006   4.187  -0.831  0.00  0.00    +0.008 A 
ATOM     26  C   UNK A   2       0.080   5.563  -0.882  0.00  0.00    +0.001 A 
ENDBRANCH  19  24
ENDBRANCH   1  20
TORSDOF 3
