REMARK  Name = ZINC65260648
REMARK  1 active torsions:
REMARK  status: ('A' for Active; 'I' for Inactive)
REMARK    1  A    between atoms: C_4  and  C_8
REMARK                            x       y       z     vdW  Elec       q    Type
REMARK                         _______ _______ _______ _____ _____    ______ ____
ROOT
ATOM      1  C   UNL     1       3.697  -0.684  -0.037  0.00  0.00    +0.248 C 
ATOM      2  O   UNL     1       4.736  -0.062  -0.149  0.00  0.00    -0.270 OA
ATOM      3  N   UNL     1       3.722  -2.028   0.057  0.00  0.00    -0.296 N 
ATOM      4  C   UNL     1       2.469  -2.793   0.060  0.00  0.00    +0.114 C 
ATOM      5  C   UNL     1       2.517  -3.825  -1.077  0.00  0.00    +0.071 C 
ATOM      6  C   UNL     1       3.843  -4.538  -1.008  0.00  0.00    +0.036 C 
ATOM      7  N   UNL     1       3.926  -5.818  -0.938  0.00  0.00    -0.236 NA
ATOM      8  C   UNL     1       5.115  -6.477  -0.848  0.00  0.00    +0.159 A 
ATOM      9  C   UNL     1       5.373  -7.824  -0.799  0.00  0.00    +0.069 A 
ATOM     10  C   UNL     1       6.756  -7.994  -0.696  0.00  0.00    +0.137 A 
ATOM     11  N   UNL     1       7.323  -6.816  -0.685  0.00  0.00    -0.170 NA
ATOM     12  N   UNL     1       6.323  -5.839  -0.788  0.00  0.00    -0.181 N 
ATOM     13  C   UNL     1       6.410  -4.490  -0.840  0.00  0.00    +0.259 C 
ATOM     14  O   UNL     1       7.474  -3.924  -0.752  0.00  0.00    -0.270 OA
ATOM     15  C   UNL     1       5.118  -3.718  -1.014  0.00  0.00    +0.141 C 
ATOM     16  C   UNL     1       5.005  -2.739   0.151  0.00  0.00    +0.127 C 
ENDROOT
BRANCH   1  20
ATOM     17  C   UNL     1      -0.015   1.383   0.051  0.00  0.00    +0.040 A 
ATOM     18  C   UNL     1       0.862   1.588  -0.998  0.00  0.00    +0.023 A 
ATOM     19  C   UNL     1       2.070   0.920  -1.033  0.00  0.00    +0.053 A 
ATOM     20  C   UNL     1       2.406   0.035  -0.006  0.00  0.00    +0.058 A 
ATOM     21  C   UNL     1       1.517  -0.169   1.051  0.00  0.00    +0.052 A 
ATOM     22  C   UNL     1       0.311   0.506   1.074  0.00  0.00    +0.124 A 
ATOM     23  F   UNL     1      -0.551   0.311   2.096  0.00  0.00    -0.205 F 
ATOM     24 CL   UNL     1       3.169   1.179  -2.352  0.00  0.00    -0.083 Cl
ENDBRANCH   1  20
TORSDOF 1
