REMARK  Name = ZINC35993519
REMARK  7 active torsions:
REMARK  status: ('A' for Active; 'I' for Inactive)
REMARK    1  A    between atoms: C_1  and  C_2
REMARK    2  A    between atoms: C_4  and  S_11
REMARK    3  A    between atoms: C_5  and  C_10
REMARK    4  A    between atoms: C_6  and  C_9
REMARK    5  A    between atoms: C_7  and  C_8
REMARK    6  A    between atoms: S_11  and  N_14
REMARK    7  A    between atoms: N_17  and  C_20
REMARK                            x       y       z     vdW  Elec       q    Type
REMARK                         _______ _______ _______ _____ _____    ______ ____
ROOT
ATOM      1  C   UNL     1       0.021   1.573  -0.047  0.00  0.00    +0.044 C 
ATOM      2  C   UNL     1       0.061   0.066  -0.030  0.00  0.00    -0.045 A 
ATOM      3  C   UNL     1       0.040  -0.640  -1.218  0.00  0.00    +0.032 A 
ATOM      4  C   UNL     1       0.076  -2.021  -1.202  0.00  0.00    +0.109 A 
ATOM      5  C   UNL     1       0.133  -2.697   0.002  0.00  0.00    -0.021 A 
ATOM      6  C   UNL     1       0.155  -1.992   1.190  0.00  0.00    -0.043 A 
ATOM      7  C   UNL     1       0.123  -0.610   1.174  0.00  0.00    -0.044 A 
ATOM      8  C   UNL     1       0.151   0.160   2.470  0.00  0.00    +0.044 C 
ATOM      9  C   UNL     1       0.216  -2.729   2.503  0.00  0.00    +0.044 C 
ATOM     10  C   UNL     1       0.172  -4.204   0.019  0.00  0.00    +0.046 C 
ENDROOT
BRANCH   4  11
ATOM     11  S   UNL     1       0.049  -2.921  -2.717  0.00  0.00    +0.061 S 
ATOM     12  O   UNL     1      -0.904  -3.962  -2.554  0.00  0.00    -0.153 OA
ATOM     13  O   UNL     1      -0.044  -1.959  -3.759  0.00  0.00    -0.153 OA
BRANCH  11  14
ATOM     14  N   UNL     1       1.526  -3.652  -2.879  0.00  0.00    -0.174 NA
ATOM     15  C   UNL     1       2.677  -2.917  -3.426  0.00  0.00    +0.125 C 
ATOM     16  C   UNL     1       3.859  -3.077  -2.464  0.00  0.00    +0.101 C 
ATOM     17  N   UNL     1       4.095  -4.506  -2.218  0.00  0.00    -0.303 NA
ATOM     18  C   UNL     1       2.942  -5.130  -1.555  0.00  0.00    +0.101 C 
ATOM     19  C   UNL     1       1.724  -5.052  -2.474  0.00  0.00    +0.125 C 
ATOM     20  C   UNL     1       5.324  -4.710  -1.440  0.00  0.00    +0.105 C 
ENDBRANCH  11  14
ENDBRANCH   4  11
TORSDOF 2
