REMARK  Name = ZINC31174342
REMARK  6 active torsions:
REMARK  status: ('A' for Active; 'I' for Inactive)
REMARK    1  A    between atoms: C_1  and  C_2
REMARK    2  A    between atoms: C_2  and  N_3
REMARK    3  A    between atoms: N_3  and  C_4
REMARK    4  A    between atoms: N_3  and  C_17
REMARK    5  A    between atoms: C_4  and  C_5
REMARK    6  A    between atoms: C_17  and  C_18
REMARK                            x       y       z     vdW  Elec       q    Type
REMARK                         _______ _______ _______ _____ _____    ______ ____
ROOT
ATOM      1  N   UNL     1       4.770   4.617  -1.273  0.00  0.00    +0.386 N 
ATOM      2  H   UNL     1       4.684   4.057  -2.216  0.00  0.00    -0.081 HD
ENDROOT
BRANCH   1   4
ATOM      3  C   UNL     1       3.980   6.457  -2.683  0.00  0.00    -0.017 C 
ATOM      4  C   UNL     1       3.837   5.750  -1.333  0.00  0.00    -0.082 C 
ENDBRANCH   1   4
BRANCH   1   5
ATOM      5  C   UNL     1       4.422   3.706  -0.174  0.00  0.00    -0.022 C 
BRANCH   5   6
ATOM      6  C   UNL     1       3.091   3.059  -0.461  0.00  0.00    +0.032 A 
ATOM      7  C   UNL     1       3.017   1.696  -0.670  0.00  0.00    +0.092 A 
ATOM      8  C   UNL     1       1.770   1.118  -0.935  0.00  0.00    +0.259 A 
ATOM      9  O   UNL     1       1.671  -0.084  -1.124  0.00  0.00    -0.267 OA
ATOM     10  N   UNL     1       0.678   1.911  -0.977  0.00  0.00    -0.267 N 
ATOM     11  C   UNL     1      -0.542   1.363  -1.234  0.00  0.00    +0.116 A 
ATOM     12  C   UNL     1      -1.651   2.138  -1.286  0.00  0.00    +0.058 A 
ATOM     13  C   UNL     1      -1.554   3.520  -1.066  0.00  0.00    +0.025 A 
ATOM     14  C   UNL     1      -0.337   4.077  -0.809  0.00  0.00    +0.048 A 
ATOM     15  C   UNL     1       0.804   3.255  -0.763  0.00  0.00    +0.140 A 
ATOM     16  N   UNL     1       1.994   3.798  -0.513  0.00  0.00    -0.236 NA
ATOM     17 CL   UNL     1      -3.195   1.420  -1.622  0.00  0.00    -0.082 Cl
ENDBRANCH   5   6
ENDBRANCH   1   5
BRANCH   1  18
ATOM     18  C   UNL     1       6.158   5.083  -1.150  0.00  0.00    -0.030 C 
BRANCH  18  19
ATOM     19  C   UNL     1       7.112   3.966  -1.578  0.00  0.00    +0.195 C 
ATOM     20  C   UNL     1       8.563   4.444  -1.438  0.00  0.00    +0.271 C 
ATOM     21  O   UNL     1       9.427   3.382  -1.859  0.00  0.00    -0.485 OA
ATOM     22  C   UNL     1       9.103   2.755  -3.022  0.00  0.00    +0.162 A 
ATOM     23  C   UNL     1      10.057   1.984  -3.669  0.00  0.00    +0.049 A 
ATOM     24  C   UNL     1       9.742   1.339  -4.850  0.00  0.00    +0.004 A 
ATOM     25  C   UNL     1       8.475   1.459  -5.389  0.00  0.00    +0.004 A 
ATOM     26  C   UNL     1       7.520   2.226  -4.751  0.00  0.00    +0.049 A 
ATOM     27  C   UNL     1       7.830   2.878  -3.566  0.00  0.00    +0.162 A 
ATOM     28  O   UNL     1       6.879   3.633  -2.950  0.00  0.00    -0.484 OA
ENDBRANCH  18  19
ENDBRANCH   1  18
TORSDOF 5
