REMARK  Name = ZINC43210938
REMARK  7 active torsions:
REMARK  status: ('A' for Active; 'I' for Inactive)
REMARK    1  A    between atoms: C_1  and  C_2
REMARK    2  A    between atoms: C_2  and  C_3
REMARK    3  A    between atoms: C_2  and  C_4
REMARK    4  A    between atoms: C_7  and  C_10
REMARK    5  A    between atoms: N_18  and  C_21
REMARK    6  A    between atoms: N_28  and  C_29
REMARK    7  A    between atoms: C_29  and  C_30
REMARK                            x       y       z     vdW  Elec       q    Type
REMARK                         _______ _______ _______ _____ _____    ______ ____
ROOT
ATOM      1  C   UNL     1      -5.419  -2.005   0.043  0.00  0.00    +0.130 C 
ATOM      2  C   UNL     1      -6.302  -1.219  -0.925  0.00  0.00    +0.139 C 
ATOM      3  C   UNL     1      -7.429  -2.308  -1.076  0.00  0.00    +0.241 C 
ATOM      4  C   UNL     1      -8.532  -1.518  -1.594  0.00  0.00    +0.254 C 
ATOM      5  O   UNL     1      -9.397  -1.877  -2.364  0.00  0.00    -0.272 OA
ATOM      6  N   UNL     1      -8.387  -0.280  -1.026  0.00  0.00    -0.236 N 
ATOM      7  C   UNL     1      -7.158  -0.098  -0.427  0.00  0.00    +0.230 C 
ATOM      8  O   UNL     1      -6.834   0.778   0.345  0.00  0.00    -0.275 OA
ATOM      9  O   UNL     1      -6.754  -3.462  -1.347  0.00  0.00    -0.282 OA
ATOM     10  N   UNL     1      -5.488  -3.385  -0.543  0.00  0.00    -0.170 NA
ENDROOT
BRANCH   1  14
ATOM     11  C   UNL     1      -1.412  -0.526   0.013  0.00  0.00    -0.045 A 
ATOM     12  C   UNL     1      -2.259  -0.204   1.056  0.00  0.00    +0.004 A 
ATOM     13  C   UNL     1      -3.556  -0.683   1.066  0.00  0.00    +0.005 A 
ATOM     14  C   UNL     1      -4.006  -1.482   0.032  0.00  0.00    -0.027 A 
ATOM     15  C   UNL     1      -3.159  -1.803  -1.012  0.00  0.00    +0.005 A 
ATOM     16  C   UNL     1      -1.863  -1.321  -1.024  0.00  0.00    +0.004 A 
BRANCH  11  18
ATOM     17  C   UNL     1      -0.019   1.526   0.010  0.00  0.00    +0.012 C 
ATOM     18  C   UNL     1       0.002  -0.004   0.002  0.00  0.00    +0.013 C 
ATOM     19  C   UNL     1       0.742  -0.511   1.242  0.00  0.00    +0.012 C 
ENDBRANCH  11  18
ENDBRANCH   1  14
BRANCH   6  20
ATOM     20  C   UNL     1      -9.425   0.754  -1.060  0.00  0.00    +0.084 C 
ATOM     21  C   UNL     1      -9.745   1.106  -2.515  0.00  0.00    +0.023 C 
ATOM     22  C   UNL     1     -10.829   2.186  -2.551  0.00  0.00    +0.002 C 
ATOM     23  C   UNL     1     -12.091   1.665  -1.862  0.00  0.00    +0.000 C 
ATOM     24  C   UNL     1     -11.771   1.313  -0.408  0.00  0.00    +0.002 C 
ATOM     25  C   UNL     1     -10.687   0.233  -0.371  0.00  0.00    +0.023 C 
ENDBRANCH   6  20
BRANCH  10  26
ATOM     26  C   UNL     1      -5.459  -4.407   0.512  0.00  0.00    +0.210 C 
BRANCH  26  27
ATOM     27  C   UNL     1      -5.282  -5.767  -0.111  0.00  0.00    +0.227 C 
ATOM     28  O   UNL     1      -5.189  -5.875  -1.316  0.00  0.00    -0.275 OA
ATOM     29  N   UNL     1      -5.227  -6.864   0.670  0.00  0.00    -0.328 N 
ATOM     30  H   UNL     1      -5.301  -6.778   1.633  0.00  0.00    +0.145 HD
ATOM     31  H   UNL     1      -5.113  -7.740   0.268  0.00  0.00    +0.145 HD
ENDBRANCH  26  27
ENDBRANCH  10  26
TORSDOF 5
