REMARK  Name = ZINC33268800
REMARK  11 active torsions:
REMARK  status: ('A' for Active; 'I' for Inactive)
REMARK    1  A    between atoms: C_1  and  C_2
REMARK    2  A    between atoms: C_2  and  C_3
REMARK    3  A    between atoms: C_2  and  C_4
REMARK    4  A    between atoms: C_4  and  N_5
REMARK    5  A    between atoms: N_5  and  C_6
REMARK    6  A    between atoms: N_5  and  C_14
REMARK    7  A    between atoms: C_6  and  C_7
REMARK    8  A    between atoms: C_14  and  C_15
REMARK    9  A    between atoms: C_20  and  C_25
REMARK   10  A    between atoms: C_28  and  O_31
REMARK   11  A    between atoms: O_31  and  C_32
REMARK                            x       y       z     vdW  Elec       q    Type
REMARK                         _______ _______ _______ _____ _____    ______ ____
ROOT
ATOM      1  C   UNL     1       0.040   0.048  -1.446  0.00  0.00    +0.037 A 
ATOM      2  C   UNL     1       1.000  -0.916  -1.222  0.00  0.00    +0.093 A 
ATOM      3  C   UNL     1       2.277  -0.758  -1.761  0.00  0.00    +0.259 A 
ATOM      4  O   UNL     1       3.132  -1.608  -1.567  0.00  0.00    -0.267 OA
ATOM      5  N   UNL     1       2.571   0.349  -2.507  0.00  0.00    -0.256 N 
ATOM      6  C   UNL     1       3.781   0.644  -3.103  0.00  0.00    +0.066 A 
ATOM      7  C   UNL     1       3.935   1.777  -3.816  0.00  0.00    +0.075 A 
ATOM      8  S   UNL     1       2.316   2.518  -3.679  0.00  0.00    -0.059 S 
ATOM      9  C   UNL     1       1.560   1.255  -2.680  0.00  0.00    +0.159 A 
ATOM     10  N   UNL     1       0.357   1.111  -2.181  0.00  0.00    -0.337 N 
ATOM     11  H   UNL     1      -0.313   1.792  -2.347  0.00  0.00    +0.168 HD
ENDROOT
BRANCH   6  12
ATOM     12  C   UNL     1       4.918  -0.292  -2.958  0.00  0.00    -0.000 A 
ATOM     13  C   UNL     1       4.856  -1.562  -3.532  0.00  0.00    +0.013 A 
ATOM     14  C   UNL     1       5.917  -2.432  -3.394  0.00  0.00    +0.046 A 
ATOM     15  C   UNL     1       7.046  -2.044  -2.686  0.00  0.00    +0.120 A 
ATOM     16  C   UNL     1       7.112  -0.781  -2.113  0.00  0.00    +0.046 A 
ATOM     17  C   UNL     1       6.057   0.096  -2.252  0.00  0.00    +0.013 A 
BRANCH  15  18
ATOM     18  O   UNL     1       8.091  -2.904  -2.552  0.00  0.00    -0.495 OA
ATOM     19  C   UNL     1       9.221  -2.441  -1.810  0.00  0.00    +0.277 C 
ENDBRANCH  15  18
ENDBRANCH   6  12
BRANCH   1  20
ATOM     20  C   UNL     1      -1.345  -0.103  -0.873  0.00  0.00    +0.138 C 
BRANCH  20  21
ATOM     21  N   UNL     1      -1.620   1.012   0.044  0.00  0.00    -0.292 NA
BRANCH  21  22
ATOM     22  C   UNL     1      -0.961   0.802   1.340  0.00  0.00    +0.088 C 
BRANCH  22  24
ATOM     23  C   UNL     1       0.757   2.546   0.839  0.00  0.00    +0.008 C 
ATOM     24  C   UNL     1       0.538   1.075   1.200  0.00  0.00    -0.003 C 
ATOM     25  C   UNL     1       1.239   0.765   2.524  0.00  0.00    +0.008 C 
ENDBRANCH  22  24
ENDBRANCH  21  22
BRANCH  21  26
ATOM     26  C   UNL     1      -3.066   1.209   0.215  0.00  0.00    +0.120 C 
BRANCH  26  27
ATOM     27  C   UNL     1      -3.313   2.498   0.955  0.00  0.00    -0.033 A 
ATOM     28  C   UNL     1      -3.378   2.500   2.336  0.00  0.00    +0.008 A 
ATOM     29  C   UNL     1      -3.604   3.681   3.017  0.00  0.00    +0.038 A 
ATOM     30  C   UNL     1      -3.765   4.864   2.315  0.00  0.00    +0.123 A 
ATOM     31  C   UNL     1      -3.700   4.861   0.932  0.00  0.00    +0.038 A 
ATOM     32  C   UNL     1      -3.468   3.679   0.254  0.00  0.00    +0.008 A 
ATOM     33  F   UNL     1      -3.986   6.019   2.979  0.00  0.00    -0.205 F 
ENDBRANCH  26  27
ENDBRANCH  21  26
ENDBRANCH  20  21
ENDBRANCH   1  20
TORSDOF 8
