REMARK  Name = ZINC35525993
REMARK  8 active torsions:
REMARK  status: ('A' for Active; 'I' for Inactive)
REMARK    1  A    between atoms: C_1  and  C_2
REMARK    2  A    between atoms: C_2  and  C_3
REMARK    3  A    between atoms: C_7  and  C_13
REMARK    4  A    between atoms: C_8  and  C_12
REMARK    5  A    between atoms: N_22  and  C_23
REMARK    6  A    between atoms: C_23  and  C_24
REMARK    7  A    between atoms: C_23  and  C_25
REMARK    8  A    between atoms: C_23  and  C_26
REMARK                            x       y       z     vdW  Elec       q    Type
REMARK                         _______ _______ _______ _____ _____    ______ ____
ROOT
ATOM      1  C   UNL     1      -2.063  -2.467  -0.667  0.00  0.00    +0.132 A 
ATOM      2  N   UNL     1      -2.631  -2.674   0.507  0.00  0.00    -0.217 NA
ATOM      3  C   UNL     1      -3.145  -1.688   1.225  0.00  0.00    +0.133 A 
ATOM      4  C   UNL     1      -3.087  -0.360   0.721  0.00  0.00    +0.051 A 
ATOM      5  C   UNL     1      -3.571   0.878   1.306  0.00  0.00    -0.028 A 
ATOM      6  C   UNL     1      -3.402   2.029   0.637  0.00  0.00    -0.008 A 
ATOM      7  S   UNL     1      -2.566   1.524  -0.854  0.00  0.00    -0.074 S 
ATOM      8  C   UNL     1      -2.466  -0.218  -0.539  0.00  0.00    +0.114 A 
ATOM      9  N   UNL     1      -1.975  -1.257  -1.185  0.00  0.00    -0.225 NA
ATOM     10  C   UNL     1      -3.820   3.417   1.049  0.00  0.00    +0.052 C 
ATOM     11  C   UNL     1      -4.255   0.870   2.649  0.00  0.00    +0.045 C 
ATOM     12  N   UNL     1      -3.732  -1.947   2.451  0.00  0.00    -0.312 N 
ATOM     13  C   UNL     1      -5.132  -2.385   2.532  0.00  0.00    +0.125 C 
ATOM     14  C   UNL     1      -5.189  -3.704   3.313  0.00  0.00    +0.128 C 
ATOM     15  N   UNL     1      -4.423  -3.545   4.558  0.00  0.00    -0.283 N 
ATOM     16  C   UNL     1      -3.022  -3.107   4.476  0.00  0.00    +0.128 C 
ATOM     17  C   UNL     1      -2.964  -1.794   3.695  0.00  0.00    +0.125 C 
ATOM     18  C   UNL     1      -4.994  -3.797   5.752  0.00  0.00    +0.303 C 
ATOM     19  O   UNL     1      -6.124  -4.244   5.803  0.00  0.00    -0.253 OA
ATOM     20  N   UNL     1      -4.314  -3.553   6.889  0.00  0.00    -0.294 N 
ATOM     21  H   UNL     1      -3.389  -3.266   6.849  0.00  0.00    +0.151 HD
ENDROOT
BRANCH  20  22
ATOM     22  C   UNL     1      -4.972  -3.723   8.187  0.00  0.00    +0.028 C 
ATOM     23  C   UNL     1      -5.437  -5.173   8.338  0.00  0.00    +0.031 C 
ATOM     24  C   UNL     1      -3.986  -3.384   9.307  0.00  0.00    +0.031 C 
ATOM     25  C   UNL     1      -6.181  -2.789   8.272  0.00  0.00    +0.031 C 
ENDBRANCH  20  22
BRANCH   1  27
ATOM     26  C   UNL     1      -0.036  -3.848  -1.033  0.00  0.00    +0.012 C 
ATOM     27  C   UNL     1      -1.499  -3.638  -1.429  0.00  0.00    +0.073 C 
ENDBRANCH   1  27
TORSDOF 2
