REMARK  Name = ZINC12653156
REMARK  4 active torsions:
REMARK  status: ('A' for Active; 'I' for Inactive)
REMARK    1  A    between atoms: C_3  and  N_19
REMARK    2  A    between atoms: C_6  and  N_7
REMARK    3  A    between atoms: N_7  and  S_8
REMARK    4  A    between atoms: S_8  and  C_11
REMARK                            x       y       z     vdW  Elec       q    Type
REMARK                         _______ _______ _______ _____ _____    ______ ____
ROOT
ATOM      1  C   UNL     1       2.034   0.149   1.119  0.00  0.00    +0.026 A 
ATOM      2  C   UNL     1       2.828  -0.440   2.084  0.00  0.00    +0.026 A 
ATOM      3  C   UNL     1       2.441  -1.642   2.662  0.00  0.00    +0.051 A 
ATOM      4  C   UNL     1       1.254  -2.249   2.273  0.00  0.00    +0.026 A 
ATOM      5  C   UNL     1       0.458  -1.658   1.313  0.00  0.00    +0.026 A 
ATOM      6  C   UNL     1       0.844  -0.455   0.735  0.00  0.00    +0.048 A 
ENDROOT
BRANCH   3   7
ATOM      7  N   UNL     1       3.248  -2.242   3.636  0.00  0.00    -0.207 N 
ATOM      8  C   UNL     1       2.818  -3.170   4.697  0.00  0.00    +0.133 C 
ATOM      9  C   UNL     1       3.961  -4.137   5.071  0.00  0.00    +0.045 C 
ATOM     10  C   UNL     1       5.223  -3.233   5.207  0.00  0.00    +0.190 C 
ATOM     11  S   UNL     1       4.901  -2.045   3.839  0.00  0.00    +0.046 S 
ATOM     12  O   UNL     1       5.489  -2.500   2.628  0.00  0.00    -0.155 OA
ATOM     13  O   UNL     1       5.072  -0.707   4.284  0.00  0.00    -0.155 OA
ENDBRANCH   3   7
BRANCH   6  14
ATOM     14  N   UNL     1       0.036   0.145  -0.238  0.00  0.00    -0.216 N 
ATOM     15  H   UNL     1       0.294   0.108  -1.173  0.00  0.00    +0.174 HD
BRANCH  14  16
ATOM     16  S   UNL     1      -1.359   0.918   0.205  0.00  0.00    +0.072 S 
ATOM     17  O   UNL     1      -1.917   1.462  -0.983  0.00  0.00    -0.150 OA
ATOM     18  O   UNL     1      -2.075   0.018   1.040  0.00  0.00    -0.150 OA
BRANCH  16  19
ATOM     19  C   UNL     1      -0.898   2.285   1.218  0.00  0.00    +0.111 A 
ATOM     20  C   UNL     1      -0.903   2.158   2.594  0.00  0.00    +0.032 A 
ATOM     21  C   UNL     1      -0.536   3.226   3.390  0.00  0.00    +0.043 A 
ATOM     22  C   UNL     1      -0.175   4.430   2.809  0.00  0.00    +0.159 A 
ATOM     23  C   UNL     1      -0.175   4.559   1.429  0.00  0.00    +0.160 A 
ATOM     24  C   UNL     1      -0.537   3.485   0.634  0.00  0.00    +0.070 A 
ATOM     25  F   UNL     1       0.178   5.732   0.860  0.00  0.00    -0.202 F 
ATOM     26  F   UNL     1       0.179   5.476   3.586  0.00  0.00    -0.202 F 
ENDBRANCH  16  19
ENDBRANCH  14  16
ENDBRANCH   6  14
TORSDOF 4
