REMARK  Name = ZINC35844482
REMARK  10 active torsions:
REMARK  status: ('A' for Active; 'I' for Inactive)
REMARK    1  A    between atoms: C_1  and  C_2
REMARK    2  A    between atoms: N_11  and  C_12
REMARK    3  A    between atoms: C_12  and  C_13
REMARK    4  A    between atoms: C_12  and  C_14
REMARK    5  A    between atoms: C_12  and  C_15
REMARK    6  A    between atoms: C_16  and  C_18
REMARK    7  A    between atoms: N_25  and  C_26
REMARK    8  A    between atoms: C_26  and  C_27
REMARK    9  A    between atoms: C_31  and  O_33
REMARK   10  A    between atoms: O_33  and  C_34
REMARK                            x       y       z     vdW  Elec       q    Type
REMARK                         _______ _______ _______ _____ _____    ______ ____
ROOT
ATOM      1  C   UNL     1       0.945   1.596  -0.269  0.00  0.00    +0.030 C 
ATOM      2  C   UNL     1       0.930   0.067  -0.208  0.00  0.00    +0.092 C 
ATOM      3  C   UNL     1       0.973  -0.505  -1.631  0.00  0.00    +0.130 C 
ATOM      4  N   UNL     1       1.220  -1.952  -1.548  0.00  0.00    -0.293 N 
ATOM      5  C   UNL     1       2.401  -2.428  -0.815  0.00  0.00    +0.127 C 
ATOM      6  C   UNL     1       2.359  -1.855   0.608  0.00  0.00    +0.128 C 
ATOM      7  N   UNL     1       2.110  -0.409   0.528  0.00  0.00    -0.280 N 
ATOM      8  C   UNL     1       2.950   0.466   1.116  0.00  0.00    +0.303 C 
ATOM      9  O   UNL     1       2.682   1.651   1.129  0.00  0.00    -0.253 OA
ATOM     10  N   UNL     1       4.087   0.025   1.690  0.00  0.00    -0.294 N 
ATOM     11  C   UNL     1       0.378  -2.826  -2.134  0.00  0.00    +0.263 C 
ATOM     12  O   UNL     1      -0.524  -2.420  -2.844  0.00  0.00    -0.268 OA
ATOM     13  H   UNL     1       4.266  -0.926   1.744  0.00  0.00    +0.151 HD
ENDROOT
BRANCH  11  14
ATOM     14  C   UNL     1       0.548  -4.264  -1.917  0.00  0.00    +0.106 A 
ATOM     15  C   UNL     1       1.111  -4.841  -0.820  0.00  0.00    +0.041 A 
ATOM     16  C   UNL     1       1.085  -6.255  -0.998  0.00  0.00    +0.008 A 
ATOM     17  C   UNL     1       1.482  -7.469  -0.295  0.00  0.00    +0.017 A 
ATOM     18  C   UNL     1       1.253  -8.658  -0.869  0.00  0.00    +0.048 A 
ATOM     19  S   UNL     1       0.476  -8.226  -2.414  0.00  0.00    -0.079 S 
ATOM     20  C   UNL     1       0.483  -6.460  -2.243  0.00  0.00    +0.088 A 
ATOM     21  N   UNL     1       0.157  -5.265  -2.789  0.00  0.00    -0.326 N 
BRANCH  21  22
ATOM     22  C   UNL     1      -0.495  -5.065  -4.086  0.00  0.00    +0.158 C 
BRANCH  22  23
ATOM     23  C   UNL     1       0.545  -5.066  -5.177  0.00  0.00    -0.024 A 
ATOM     24  C   UNL     1       1.225  -3.902  -5.484  0.00  0.00    +0.005 A 
ATOM     25  C   UNL     1       2.180  -3.900  -6.484  0.00  0.00    +0.004 A 
ATOM     26  C   UNL     1       2.455  -5.062  -7.180  0.00  0.00    +0.045 A 
ATOM     27  C   UNL     1       1.774  -6.231  -6.874  0.00  0.00    +0.120 A 
ATOM     28  C   UNL     1       0.821  -6.231  -5.865  0.00  0.00    +0.051 A 
BRANCH  27  29
ATOM     29  O   UNL     1       2.043  -7.374  -7.557  0.00  0.00    -0.495 OA
ATOM     30  C   UNL     1       3.041  -7.301  -8.577  0.00  0.00    +0.277 C 
ENDBRANCH  27  29
ENDBRANCH  22  23
ENDBRANCH  21  22
ENDBRANCH  11  14
BRANCH  10  31
ATOM     31  C   UNL     1       5.053   0.984   2.232  0.00  0.00    +0.028 C 
ATOM     32  C   UNL     1       4.384   1.817   3.328  0.00  0.00    +0.031 C 
ATOM     33  C   UNL     1       6.246   0.229   2.822  0.00  0.00    +0.031 C 
ATOM     34  C   UNL     1       5.537   1.908   1.113  0.00  0.00    +0.031 C 
ENDBRANCH  10  31
TORSDOF 5
