REMARK  Name = ZINC03659663
REMARK  4 active torsions:
REMARK  status: ('A' for Active; 'I' for Inactive)
REMARK    1  A    between atoms: C_5  and  C_7
REMARK    2  A    between atoms: C_10  and  C_12
REMARK    3  A    between atoms: C_14  and  C_25
REMARK    4  A    between atoms: C_15  and  N_24
REMARK                            x       y       z     vdW  Elec       q    Type
REMARK                         _______ _______ _______ _____ _____    ______ ____
ROOT
ATOM      1  C   UNL     1       2.351  -5.401  -1.301  0.00  0.00    +0.137 C 
ATOM      2  C   UNL     1       1.951  -5.362  -2.749  0.00  0.00    +0.101 C 
ATOM      3  C   UNL     1       2.822  -4.923  -3.691  0.00  0.00    +0.198 C 
ATOM      4  O   UNL     1       4.056  -4.511  -3.357  0.00  0.00    -0.445 OA
ATOM      5  C   UNL     1       4.612  -4.899  -2.193  0.00  0.00    +0.115 C 
ATOM      6  C   UNL     1       3.854  -5.336  -1.175  0.00  0.00    +0.049 C 
ATOM      7  C   UNL     1       4.437  -5.749   0.039  0.00  0.00    +0.163 C 
ATOM      8  O   UNL     1       3.722  -6.126   0.946  0.00  0.00    -0.292 OA
ATOM      9  C   UNL     1       5.929  -5.731   0.232  0.00  0.00    +0.080 C 
ATOM     10  C   UNL     1       6.608  -5.916  -1.129  0.00  0.00    +0.016 C 
ATOM     11  C   UNL     1       6.114  -4.821  -2.062  0.00  0.00    +0.075 C 
ENDROOT
BRANCH   1  15
ATOM     12  C   UNL     1       1.249  -2.160  -0.023  0.00  0.00    +0.137 A 
ATOM     13  C   UNL     1       0.561  -2.976   0.819  0.00  0.00    +0.050 A 
ATOM     14  C   UNL     1       0.881  -4.299   0.454  0.00  0.00    +0.046 A 
ATOM     15  C   UNL     1       1.740  -4.226  -0.582  0.00  0.00    +0.118 A 
ATOM     16  O   UNL     1       1.956  -2.932  -0.871  0.00  0.00    -0.459 OA
BRANCH  12  21
ATOM     17  C   UNL     1      -0.017   1.375   0.010  0.00  0.00    +0.001 A 
ATOM     18  C   UNL     1       1.170   2.087   0.002  0.00  0.00    +0.001 A 
ATOM     19  C   UNL     1       2.383   1.422  -0.013  0.00  0.00    +0.021 A 
ATOM     20  C   UNL     1       2.416   0.041  -0.022  0.00  0.00    +0.052 A 
ATOM     21  C   UNL     1       1.222  -0.683  -0.014  0.00  0.00    +0.036 A 
ATOM     22  C   UNL     1       0.002  -0.004   0.002  0.00  0.00    +0.013 A 
ATOM     23 CL   UNL     1       3.939  -0.792  -0.043  0.00  0.00    -0.083 Cl
ENDBRANCH  12  21
ENDBRANCH   1  15
BRANCH   3  24
ATOM     24  N   UNL     1       2.435  -4.900  -5.008  0.00  0.00    -0.328 N 
ATOM     25  H   UNL     1       1.546  -5.195  -5.258  0.00  0.00    +0.145 HD
ATOM     26  H   UNL     1       3.051  -4.588  -5.689  0.00  0.00    +0.145 HD
ENDBRANCH   3  24
BRANCH   2  27
ATOM     27  C   UNL     1       0.641  -5.791  -3.136  0.00  0.00    +0.101 C 
ATOM     28  N   UNL     1      -0.398  -6.132  -3.443  0.00  0.00    -0.191 NA
ENDBRANCH   2  27
TORSDOF 4
