REMARK  Name = ZINC12442789
REMARK  7 active torsions:
REMARK  status: ('A' for Active; 'I' for Inactive)
REMARK    1  A    between atoms: C_1  and  C_2
REMARK    2  A    between atoms: C_7  and  C_8
REMARK    3  A    between atoms: C_7  and  N_66
REMARK    4  A    between atoms: N_12  and  C_13
REMARK    5  A    between atoms: C_13  and  C_14
REMARK    6  A    between atoms: C_14  and  C_15
REMARK    7  A    between atoms: C_15  and  C_16
REMARK                            x       y       z     vdW  Elec       q    Type
REMARK                         _______ _______ _______ _____ _____    ______ ____
ROOT
ATOM      1  C   UNL     1      -0.037   1.099  -2.490  0.00  0.00    +0.098 C 
ENDROOT
BRANCH   1   2
ATOM      2  C   UNL     1      -0.765   1.598  -3.711  0.00  0.00    +0.216 C 
ATOM      3  O   UNL     1      -1.760   2.282  -3.587  0.00  0.00    -0.276 OA
ATOM      4  N   UNL     1      -0.312   1.286  -4.941  0.00  0.00    -0.301 N 
ATOM      5  C   UNL     1       0.894   0.464  -5.107  0.00  0.00    +0.109 C 
ATOM      6  C   UNL     1       0.550  -0.731  -6.010  0.00  0.00    +0.034 C 
ATOM      7  C   UNL     1      -0.057  -0.220  -7.315  0.00  0.00    +0.017 C 
ATOM      8  C   UNL     1      -1.337   0.564  -7.035  0.00  0.00    +0.034 C 
ATOM      9  C   UNL     1      -1.012   1.765  -6.141  0.00  0.00    +0.109 C 
ATOM     10  C   UNL     1       0.936   0.650  -8.045  0.00  0.00    -0.015 C 
ATOM     11  C   UNL     1       1.191   0.092  -9.216  0.00  0.00    +0.005 C 
ATOM     12  C   UNL     1       0.426  -1.158  -9.386  0.00  0.00    -0.021 A 
ATOM     13  C   UNL     1      -0.346  -1.374  -8.241  0.00  0.00    -0.030 A 
ATOM     14  C   UNL     1      -1.157  -2.480  -8.146  0.00  0.00    +0.005 A 
ATOM     15  C   UNL     1      -1.213  -3.389  -9.190  0.00  0.00    +0.000 A 
ATOM     16  C   UNL     1      -0.453  -3.186 -10.328  0.00  0.00    +0.001 A 
ATOM     17  C   UNL     1       0.364  -2.079 -10.433  0.00  0.00    +0.008 A 
ENDBRANCH   1   2
BRANCH   1  18
ATOM     18  C   UNL     1      -0.753   1.593  -1.232  0.00  0.00    +0.033 C 
BRANCH  18  19
ATOM     19  C   UNL     1      -0.013   1.086   0.008  0.00  0.00    +0.147 C 
BRANCH  19  24
ATOM     20  C   UNL     1      -1.686   0.923   1.872  0.00  0.00    +0.135 A 
ATOM     21  N   UNL     1      -2.012   1.687   2.887  0.00  0.00    -0.115 NA
ATOM     22  N   UNL     1      -1.264   2.735   2.853  0.00  0.00    -0.023 NA
ATOM     23  N   UNL     1      -0.466   2.658   1.846  0.00  0.00    -0.044 NA
ATOM     24  N   UNL     1      -0.698   1.558   1.213  0.00  0.00    -0.231 N 
BRANCH  20  25
ATOM     25  C   UNL     1      -2.296  -0.407   1.514  0.00  0.00    +0.000 C 
BRANCH  25  32
ATOM     26  C   UNL     1      -0.185  -4.671   4.681  0.00  0.00    +0.007 C 
ATOM     27  C   UNL     1      -1.102  -3.587   4.110  0.00  0.00    -0.018 C 
ATOM     28  C   UNL     1      -1.390  -3.885   2.635  0.00  0.00    -0.016 C 
ATOM     29  C   UNL     1      -2.257  -2.766   2.054  0.00  0.00    -0.078 C 
ATOM     30  C   UNL     1      -1.310  -1.153   3.595  0.00  0.00    -0.078 C 
ATOM     31  C   UNL     1      -0.415  -2.224   4.222  0.00  0.00    -0.016 C 
ATOM     32  N   UNL     1      -1.529  -1.485   2.171  0.00  0.00    +0.384 N 
ATOM     33  H   UNL     1      -0.618  -1.576   1.706  0.00  0.00    -0.081 HD
ENDBRANCH  25  32
ENDBRANCH  20  25
ENDBRANCH  19  24
ENDBRANCH  18  19
ENDBRANCH   1  18
TORSDOF 6
