REMARK  Name = ZINC41596355
REMARK  1 active torsions:
REMARK  status: ('A' for Active; 'I' for Inactive)
REMARK    1  A    between atoms: C_6  and  N_7
REMARK                            x       y       z     vdW  Elec       q    Type
REMARK                         _______ _______ _______ _____ _____    ______ ____
ROOT
ATOM      1  N   UNL     1      -1.199  -0.721   0.010  0.00  0.00    -0.285 N 
ATOM      2  C   UNL     1      -1.183  -2.087  -0.101  0.00  0.00    +0.200 A 
ATOM      3  N   UNL     1      -2.356  -2.769  -0.201  0.00  0.00    -0.295 N 
ATOM      4  H   UNL     1      -3.202  -2.294  -0.194  0.00  0.00    +0.172 HD
ATOM      5  C   UNL     1      -2.329  -4.108  -0.309  0.00  0.00    +0.257 A 
ATOM      6  O   UNL     1      -3.372  -4.735  -0.400  0.00  0.00    -0.267 OA
ATOM      7  C   UNL     1      -1.085  -4.793  -0.319  0.00  0.00    +0.049 A 
ATOM      8  C   UNL     1       0.053  -4.064  -0.217  0.00  0.00    +0.064 A 
ATOM      9  N   UNL     1      -0.037  -2.723  -0.115  0.00  0.00    -0.219 NA
ATOM     10  C   UNL     1       1.375  -4.833  -0.230  0.00  0.00    +0.125 C 
ATOM     11  S   UNL     1       0.811  -6.554   0.092  0.00  0.00    -0.150 S 
ATOM     12  C   UNL     1      -0.934  -6.310  -0.437  0.00  0.00    +0.111 C 
ATOM     13  H   UNL     1      -2.043  -0.252   0.103  0.00  0.00    +0.155 HD
ENDROOT
BRANCH   1  19
ATOM     14  C   UNL     1       1.065  -0.449  -0.784  0.00  0.00    +0.025 A 
ATOM     15  C   UNL     1       2.249   0.262  -0.804  0.00  0.00    +0.023 A 
ATOM     16  C   UNL     1       2.377   1.417  -0.054  0.00  0.00    +0.059 A 
ATOM     17  C   UNL     1       1.318   1.865   0.718  0.00  0.00    +0.061 A 
ATOM     18  C   UNL     1       0.131   1.157   0.742  0.00  0.00    +0.044 A 
ATOM     19  C   UNL     1       0.001  -0.003  -0.011  0.00  0.00    +0.035 A 
ATOM     20 CL   UNL     1       1.482   3.315   1.658  0.00  0.00    -0.082 Cl
ATOM     21 CL   UNL     1       3.867   2.307  -0.080  0.00  0.00    -0.082 Cl
ENDBRANCH   1  19
TORSDOF 1
