REMARK  Name = ZINC09513569
REMARK  4 active torsions:
REMARK  status: ('A' for Active; 'I' for Inactive)
REMARK    1  A    between atoms: C_4  and  N_7
REMARK    2  A    between atoms: C_12  and  N_16
REMARK    3  A    between atoms: N_16  and  C_17
REMARK    4  A    between atoms: C_17  and  C_18
REMARK                            x       y       z     vdW  Elec       q    Type
REMARK                         _______ _______ _______ _____ _____    ______ ____
ROOT
ATOM      1  N   UNL     1      -2.462  -6.530   1.644  0.00  0.00    -0.214 N 
ATOM      2  C   UNL     1      -1.389  -6.148   0.890  0.00  0.00    +0.168 A 
ATOM      3  C   UNL     1      -1.196  -4.774   1.136  0.00  0.00    +0.079 A 
ATOM      4  C   UNL     1      -2.196  -4.372   2.048  0.00  0.00    +0.148 A 
ATOM      5  N   UNL     1      -2.929  -5.409   2.341  0.00  0.00    -0.172 NA
ATOM      6  C   UNL     1      -0.142  -4.119   0.469  0.00  0.00    +0.133 A 
ATOM      7  N   UNL     1       0.624  -4.830  -0.352  0.00  0.00    -0.220 NA
ATOM      8  C   UNL     1       0.406  -6.118  -0.547  0.00  0.00    +0.225 A 
ATOM      9  N   UNL     1      -0.567  -6.772   0.049  0.00  0.00    -0.216 NA
ENDROOT
BRANCH   1  13
ATOM     10  C   UNL     1      -4.068 -10.371   1.837  0.00  0.00    +0.000 A 
ATOM     11  C   UNL     1      -4.061  -9.569   2.963  0.00  0.00    +0.002 A 
ATOM     12  C   UNL     1      -3.529  -8.295   2.903  0.00  0.00    +0.028 A 
ATOM     13  C   UNL     1      -3.002  -7.821   1.709  0.00  0.00    +0.068 A 
ATOM     14  C   UNL     1      -3.017  -8.626   0.578  0.00  0.00    +0.028 A 
ATOM     15  C   UNL     1      -3.544  -9.901   0.647  0.00  0.00    +0.002 A 
ENDBRANCH   1  13
BRANCH   6  16
ATOM     16  N   UNL     1       0.092  -2.773   0.668  0.00  0.00    -0.325 N 
ATOM     17  H   UNL     1      -0.474  -2.266   1.270  0.00  0.00    +0.148 HD
BRANCH  16  18
ATOM     18  C   UNL     1       1.197  -2.111  -0.030  0.00  0.00    +0.151 C 
BRANCH  18  19
ATOM     19  C   UNL     1       1.236  -0.633   0.363  0.00  0.00    +0.228 C 
ATOM     20  C   UNL     1       2.373   0.072  -0.388  0.00  0.00    +0.275 C 
ATOM     21  O   UNL     1       2.373   1.453  -0.008  0.00  0.00    -0.485 OA
ATOM     22  C   UNL     1       1.168   2.084   0.002  0.00  0.00    +0.162 A 
ATOM     23  C   UNL     1       1.126   3.471   0.006  0.00  0.00    +0.049 A 
ATOM     24  C   UNL     1      -0.091   4.126   0.019  0.00  0.00    +0.004 A 
ATOM     25  C   UNL     1      -1.269   3.403   0.029  0.00  0.00    +0.004 A 
ATOM     26  C   UNL     1      -1.234   2.021   0.019  0.00  0.00    +0.049 A 
ATOM     27  C   UNL     1      -0.016   1.357   0.009  0.00  0.00    +0.163 A 
ATOM     28  O   UNL     1       0.002  -0.004   0.002  0.00  0.00    -0.480 OA
ENDBRANCH  18  19
ENDBRANCH  16  18
ENDBRANCH   6  16
TORSDOF 4
