REMARK  Name = ZINC01624433
REMARK  2 active torsions:
REMARK  status: ('A' for Active; 'I' for Inactive)
REMARK    1  A    between atoms: C_6  and  C_7
REMARK    2  A    between atoms: C_7  and  C_9
REMARK                            x       y       z     vdW  Elec       q    Type
REMARK                         _______ _______ _______ _____ _____    ______ ____
ROOT
ATOM      1  C   UNL     1      -1.966   2.998   0.798  0.00  0.00    +0.236 C 
ATOM      2  C   UNL     1      -1.469   1.780   0.032  0.00  0.00    +0.206 C 
ATOM      3  O   UNL     1      -1.955   2.937  -0.632  0.00  0.00    -0.341 OA
ATOM      4  C   UNL     1      -0.017   1.387   0.010  0.00  0.00    +0.020 A 
ATOM      5  C   UNL     1       1.158   2.106   0.002  0.00  0.00    +0.029 A 
ATOM      6  C   UNL     1       2.374   1.445  -0.012  0.00  0.00    +0.043 A 
ATOM      7  C   UNL     1       2.406   0.061  -0.019  0.00  0.00    +0.042 A 
ATOM      8  C   UNL     1       1.231  -0.662  -0.012  0.00  0.00    +0.064 A 
ATOM      9  C   UNL     1       0.002  -0.004   0.002  0.00  0.00    +0.059 A 
ATOM     10  N   UNL     1      -1.302  -0.505   0.010  0.00  0.00    -0.281 N 
ATOM     11  C   UNL     1      -2.224   0.476   0.024  0.00  0.00    +0.257 C 
ATOM     12  O   UNL     1      -3.429   0.337   0.033  0.00  0.00    -0.272 OA
ATOM     13 CL   UNL     1       1.283  -2.398  -0.021  0.00  0.00    -0.082 Cl
ATOM     14 CL   UNL     1       3.856   2.350  -0.020  0.00  0.00    -0.083 Cl
ATOM     15  H   UNL     1      -1.518  -1.451   0.007  0.00  0.00    +0.155 HD
ENDROOT
BRANCH   1  16
ATOM     16  C   UNL     1      -0.939   3.872   1.471  0.00  0.00    +0.195 C 
ATOM     17  O   UNL     1      -0.647   4.946   0.991  0.00  0.00    -0.289 OA
BRANCH  16  23
ATOM     18  C   UNL     1      -0.628   2.184   3.272  0.00  0.00    +0.013 A 
ATOM     19  C   UNL     1      -0.011   1.765   4.432  0.00  0.00    +0.021 A 
ATOM     20  C   UNL     1       0.932   2.571   5.048  0.00  0.00    +0.041 A 
ATOM     21  C   UNL     1       1.268   3.800   4.503  0.00  0.00    +0.021 A 
ATOM     22  C   UNL     1       0.664   4.229   3.340  0.00  0.00    +0.013 A 
ATOM     23  C   UNL     1      -0.290   3.421   2.712  0.00  0.00    +0.020 A 
ATOM     24 CL   UNL     1       1.698   2.038   6.513  0.00  0.00    -0.084 Cl
ENDBRANCH  16  23
ENDBRANCH   1  16
TORSDOF 2
