REMARK  Name = ZINC35938489
REMARK  10 active torsions:
REMARK  status: ('A' for Active; 'I' for Inactive)
REMARK    1  A    between atoms: C_1  and  C_2
REMARK    2  A    between atoms: C_2  and  C_3
REMARK    3  A    between atoms: C_3  and  C_4
REMARK    4  A    between atoms: C_4  and  C_5
REMARK    5  A    between atoms: C_12  and  C_14
REMARK    6  A    between atoms: C_15  and  C_17
REMARK    7  A    between atoms: C_17  and  N_18
REMARK    8  A    between atoms: C_26  and  C_28
REMARK    9  A    between atoms: C_31  and  O_34
REMARK   10  A    between atoms: O_34  and  C_35
REMARK                            x       y       z     vdW  Elec       q    Type
REMARK                         _______ _______ _______ _____ _____    ______ ____
ROOT
ATOM      1  N   UNL     1       0.731  -9.975   3.292  0.00  0.00    +0.393 N 
ATOM      2  C   UNL     1       0.038 -10.222   4.563  0.00  0.00    -0.072 C 
ATOM      3  C   UNL     1       0.595 -11.512   5.190  0.00  0.00    +0.024 C 
ATOM      4  C   UNL     1       0.632 -12.553   4.119  0.00  0.00    -0.010 A 
ATOM      5  C   UNL     1       0.494 -12.342   2.780  0.00  0.00    -0.047 A 
ATOM      6  C   UNL     1       0.557 -13.468   1.963  0.00  0.00    +0.010 A 
ATOM      7  C   UNL     1       0.750 -14.691   2.510  0.00  0.00    +0.045 A 
ATOM      8  S   UNL     1       0.855 -14.304   4.252  0.00  0.00    -0.101 S 
ATOM      9  C   UNL     1       0.286 -10.922   2.262  0.00  0.00    -0.005 C 
ATOM     10  H   UNL     1       1.725 -10.078   3.430  0.00  0.00    -0.080 HD
ENDROOT
BRANCH   9  11
ATOM     11  C   UNL     1       1.094 -10.719   1.006  0.00  0.00    -0.056 A 
ATOM     12  C   UNL     1       2.452 -10.473   1.091  0.00  0.00    +0.006 A 
ATOM     13  C   UNL     1       3.195 -10.286  -0.059  0.00  0.00    +0.046 A 
ATOM     14  C   UNL     1       2.577 -10.346  -1.300  0.00  0.00    +0.120 A 
ATOM     15  C   UNL     1       1.214 -10.594  -1.382  0.00  0.00    +0.046 A 
ATOM     16  C   UNL     1       0.477 -10.785  -0.229  0.00  0.00    +0.006 A 
BRANCH  14  17
ATOM     17  O   UNL     1       3.305 -10.162  -2.432  0.00  0.00    -0.495 OA
ATOM     18  C   UNL     1       2.602 -10.238  -3.674  0.00  0.00    +0.277 C 
ENDBRANCH  14  17
ENDBRANCH   9  11
BRANCH   1  19
ATOM     19  C   UNL     1       0.445  -8.605   2.844  0.00  0.00    +0.020 C 
BRANCH  19  29
ATOM     20  C   UNL     1       1.492  -2.540   2.454  0.00  0.00    +0.216 C 
ATOM     21  O   UNL     1       1.950  -1.750   3.252  0.00  0.00    -0.276 OA
ATOM     22  N   UNL     1       1.635  -3.864   2.659  0.00  0.00    -0.296 N 
ATOM     23  C   UNL     1       1.091  -4.833   1.697  0.00  0.00    +0.127 C 
ATOM     24  C   UNL     1       0.163  -5.798   2.445  0.00  0.00    +0.126 C 
ATOM     25  N   UNL     1       0.866  -6.299   3.634  0.00  0.00    -0.300 N 
ATOM     26  C   UNL     1       1.410  -5.331   4.596  0.00  0.00    +0.130 C 
ATOM     27  C   UNL     1       2.343  -4.365   3.845  0.00  0.00    +0.090 C 
ATOM     28  C   UNL     1       3.611  -5.104   3.412  0.00  0.00    +0.029 C 
ATOM     29  C   UNL     1       1.009  -7.624   3.839  0.00  0.00    +0.199 C 
ATOM     30  O   UNL     1       1.592  -8.025   4.824  0.00  0.00    -0.278 OA
BRANCH  20  31
ATOM     31  C   UNL     1       0.763  -2.041   1.233  0.00  0.00    +0.096 C 
BRANCH  31  32
ATOM     32  C   UNL     1       0.742  -0.511   1.242  0.00  0.00    +0.009 C 
BRANCH  32  34
ATOM     33  C   UNL     1      -0.019   1.526   0.010  0.00  0.00    +0.004 C 
ATOM     34  C   UNL     1       0.002  -0.004   0.002  0.00  0.00    -0.003 C 
ENDBRANCH  32  34
ENDBRANCH  31  32
ENDBRANCH  20  31
ENDBRANCH  19  29
ENDBRANCH   1  19
TORSDOF 7
