REMARK  Name = ZINC14544011
REMARK  4 active torsions:
REMARK  status: ('A' for Active; 'I' for Inactive)
REMARK    1  A    between atoms: C_1  and  O_2
REMARK    2  A    between atoms: O_2  and  C_3
REMARK    3  A    between atoms: C_12  and  C_13
REMARK    4  A    between atoms: C_24  and  C_29
REMARK                            x       y       z     vdW  Elec       q    Type
REMARK                         _______ _______ _______ _____ _____    ______ ____
ROOT
ATOM      1  C   UNL     1      -1.281   1.700   0.017  0.00  0.00    +0.109 C 
ATOM      2  C   UNL     1      -1.231   2.750   1.135  0.00  0.00    +0.029 C 
ATOM      3  C   UNL     1      -2.419   3.729   0.904  0.00  0.00    +0.033 C 
ATOM      4  C   UNL     1      -1.883   4.693  -0.137  0.00  0.00    -0.030 C 
ATOM      5  C   UNL     1      -0.573   4.686  -0.137  0.00  0.00    -0.023 C 
ATOM      6  C   UNL     1      -0.054   3.715   0.896  0.00  0.00    +0.049 C 
ATOM      7  C   UNL     1       1.183   3.021   0.419  0.00  0.00    -0.018 A 
ATOM      8  C   UNL     1       2.372   3.728   0.400  0.00  0.00    +0.025 A 
ATOM      9  C   UNL     1       3.549   3.119  -0.034  0.00  0.00    +0.052 A 
ATOM     10  C   UNL     1       3.533   1.784  -0.451  0.00  0.00    +0.020 A 
ATOM     11  C   UNL     1       2.349   1.083  -0.432  0.00  0.00    +0.024 A 
ATOM     12  C   UNL     1       1.177   1.696  -0.000  0.00  0.00    +0.031 A 
ATOM     13  N   UNL     1      -0.011   0.966   0.007  0.00  0.00    -0.336 N 
ATOM     14  H   UNL     1       0.002  -0.004   0.002  0.00  0.00    +0.147 HD
ENDROOT
BRANCH   1  24
ATOM     15  C   UNL     1      -2.309  -0.205   1.250  0.00  0.00    +0.126 A 
ATOM     16  C   UNL     1      -3.356  -1.098   1.501  0.00  0.00    +0.046 A 
ATOM     17  C   UNL     1      -4.503  -1.054   0.772  0.00  0.00    +0.012 A 
ATOM     18  C   UNL     1      -4.645  -0.095  -0.246  0.00  0.00    -0.017 A 
ATOM     19  C   UNL     1      -5.816  -0.021  -1.019  0.00  0.00    +0.008 A 
ATOM     20  C   UNL     1      -5.920   0.919  -1.997  0.00  0.00    +0.001 A 
ATOM     21  C   UNL     1      -4.881   1.814  -2.246  0.00  0.00    +0.001 A 
ATOM     22  C   UNL     1      -3.732   1.772  -1.518  0.00  0.00    +0.009 A 
ATOM     23  C   UNL     1      -3.588   0.815  -0.499  0.00  0.00    -0.009 A 
ATOM     24  C   UNL     1      -2.416   0.742   0.272  0.00  0.00    +0.022 A 
BRANCH  15  26
ATOM     25  C   UNL     1      -1.120  -1.290   2.999  0.00  0.00    +0.277 C 
ATOM     26  O   UNL     1      -1.173  -0.278   1.991  0.00  0.00    -0.495 OA
ENDBRANCH  15  26
ENDBRANCH   1  24
BRANCH   9  27
ATOM     27  C   UNL     1       4.774   3.859  -0.052  0.00  0.00    +0.099 C 
ATOM     28  N   UNL     1       5.747   4.447  -0.067  0.00  0.00    -0.191 NA
ENDBRANCH   9  27
TORSDOF 3
