REMARK  Name = ZINC00841997
REMARK  6 active torsions:
REMARK  status: ('A' for Active; 'I' for Inactive)
REMARK    1  A    between atoms: C_1  and  O_2
REMARK    2  A    between atoms: O_2  and  C_3
REMARK    3  A    between atoms: C_3  and  C_4
REMARK    4  A    between atoms: C_3  and  O_34
REMARK    5  A    between atoms: N_24  and  C_27
REMARK    6  A    between atoms: O_34  and  C_35
REMARK                            x       y       z     vdW  Elec       q    Type
REMARK                         _______ _______ _______ _____ _____    ______ ____
ROOT
ATOM      1  C   UNL     1      -0.280   5.872  -0.363  0.00  0.00    +0.084 C 
ATOM      2  C   UNL     1      -0.488   4.371  -0.154  0.00  0.00    -0.028 A 
ATOM      3  C   UNL     1       0.529   3.555   0.285  0.00  0.00    +0.005 A 
ATOM      4  C   UNL     1       0.261   2.217   0.532  0.00  0.00    +0.000 A 
ATOM      5  C   UNL     1      -1.012   1.703   0.371  0.00  0.00    +0.000 A 
ATOM      6  C   UNL     1      -2.040   2.527  -0.077  0.00  0.00    +0.004 A 
ATOM      7  C   UNL     1      -1.753   3.826  -0.346  0.00  0.00    -0.035 A 
ATOM      8  C   UNL     1      -2.753   4.840  -0.952  0.00  0.00    +0.062 C 
ATOM      9  C   UNL     1      -2.720   5.932   0.116  0.00  0.00    -0.035 A 
ATOM     10  C   UNL     1      -1.458   6.423   0.493  0.00  0.00    -0.028 A 
ATOM     11  C   UNL     1      -1.345   7.363   1.482  0.00  0.00    +0.005 A 
ATOM     12  C   UNL     1      -2.493   7.819   2.123  0.00  0.00    +0.000 A 
ATOM     13  C   UNL     1      -3.734   7.348   1.735  0.00  0.00    +0.000 A 
ATOM     14  C   UNL     1      -3.856   6.400   0.730  0.00  0.00    +0.004 A 
ATOM     15  C   UNL     1      -1.894   5.217  -2.127  0.00  0.00    +0.101 C 
ATOM     16  C   UNL     1      -0.891   6.314  -1.693  0.00  0.00    +0.108 C 
ATOM     17  C   UNL     1      -0.134   6.425  -2.968  0.00  0.00    +0.231 C 
ATOM     18  O   UNL     1       1.052   6.625  -3.114  0.00  0.00    -0.274 OA
ATOM     19  N   UNL     1      -1.086   6.248  -3.943  0.00  0.00    -0.210 N 
ATOM     20  C   UNL     1      -2.259   5.714  -3.461  0.00  0.00    +0.231 C 
ATOM     21  O   UNL     1      -3.340   5.664  -4.009  0.00  0.00    -0.274 OA
ENDROOT
BRANCH  19  22
ATOM     22  C   UNL     1      -0.883   6.578  -5.291  0.00  0.00    +0.044 A 
ATOM     23  C   UNL     1       0.329   7.119  -5.699  0.00  0.00    +0.025 A 
ATOM     24  C   UNL     1       0.528   7.438  -7.028  0.00  0.00    +0.022 A 
ATOM     25  C   UNL     1      -0.482   7.230  -7.950  0.00  0.00    +0.041 A 
ATOM     26  C   UNL     1      -1.693   6.696  -7.545  0.00  0.00    +0.022 A 
ATOM     27  C   UNL     1      -1.895   6.370  -6.218  0.00  0.00    +0.025 A 
ATOM     28 CL   UNL     1      -0.231   7.639  -9.618  0.00  0.00    -0.084 Cl
ENDBRANCH  19  22
BRANCH   1  29
ATOM     29  C   UNL     1       1.127   6.394  -0.066  0.00  0.00    +0.265 C 
BRANCH  29  31
ATOM     30  C   UNL     1       2.425   7.025   1.848  0.00  0.00    +0.197 C 
ATOM     31  O   UNL     1       1.455   6.130   1.300  0.00  0.00    -0.353 OA
ENDBRANCH  29  31
BRANCH  29  32
ATOM     32  O   UNL     1       2.068   5.737  -0.917  0.00  0.00    -0.353 OA
ATOM     33  C   UNL     1       3.356   6.356  -0.948  0.00  0.00    +0.197 C 
ENDBRANCH  29  32
ENDBRANCH   1  29
TORSDOF 4
