REMARK  Name = ZINC06472653
REMARK  5 active torsions:
REMARK  status: ('A' for Active; 'I' for Inactive)
REMARK    1  A    between atoms: C_6  and  N_7
REMARK    2  A    between atoms: C_8  and  S_12
REMARK    3  A    between atoms: S_12  and  C_13
REMARK    4  A    between atoms: C_13  and  C_14
REMARK    5  A    between atoms: N_16  and  C_17
REMARK                            x       y       z     vdW  Elec       q    Type
REMARK                         _______ _______ _______ _____ _____    ______ ____
ROOT
ATOM      1  S   UNL     1       2.818   4.284  -0.002  0.00  0.00    -0.075 S 
ENDROOT
BRANCH   1   3
ATOM      2  N   UNL     1       3.434   7.006   0.007  0.00  0.00    -0.187 N 
ATOM      3  C   UNL     1       2.504   6.018   0.011  0.00  0.00    +0.214 A 
ATOM      4  N   UNL     1       1.324   6.599   0.019  0.00  0.00    -0.101 NA
ATOM      5  N   UNL     1       1.452   7.877   0.030  0.00  0.00    -0.022 NA
ATOM      6  N   UNL     1       2.699   8.204   0.020  0.00  0.00    -0.038 NA
BRANCH   2  12
ATOM      7  C   UNL     1       5.427   5.812   0.675  0.00  0.00    +0.029 A 
ATOM      8  C   UNL     1       6.801   5.670   0.656  0.00  0.00    +0.022 A 
ATOM      9  C   UNL     1       7.582   6.580  -0.035  0.00  0.00    +0.041 A 
ATOM     10  C   UNL     1       6.989   7.631  -0.712  0.00  0.00    +0.022 A 
ATOM     11  C   UNL     1       5.615   7.774  -0.699  0.00  0.00    +0.029 A 
ATOM     12  C   UNL     1       4.829   6.862  -0.007  0.00  0.00    +0.070 A 
ATOM     13 CL   UNL     1       9.309   6.402  -0.053  0.00  0.00    -0.084 Cl
ENDBRANCH   2  12
ENDBRANCH   1   3
BRANCH   1  14
ATOM     14  C   UNL     1       1.120   3.657   0.011  0.00  0.00    +0.173 C 
BRANCH  14  15
ATOM     15  C   UNL     1       1.140   2.151   0.003  0.00  0.00    +0.224 C 
ATOM     16  O   UNL     1       2.199   1.558  -0.011  0.00  0.00    -0.275 OA
ATOM     17  N   UNL     1      -0.018   1.461   0.010  0.00  0.00    -0.310 N 
ATOM     18  H   UNL     1      -0.864   1.934   0.017  0.00  0.00    +0.149 HD
BRANCH  17  19
ATOM     19  C   UNL     1       0.002  -0.004   0.002  0.00  0.00    +0.095 C 
ATOM     20  C   UNL     1       0.161  -0.520   1.442  0.00  0.00    +0.046 C 
ATOM     21  C   UNL     1      -0.134  -2.048   1.444  0.00  0.00    +0.168 C 
ATOM     22  S   UNL     1      -1.575  -2.114   0.298  0.00  0.00    -0.029 S 
ATOM     23  O   UNL     1      -2.774  -2.025   1.057  0.00  0.00    -0.174 OA
ATOM     24  O   UNL     1      -1.398  -3.196  -0.606  0.00  0.00    -0.174 OA
ATOM     25  C   UNL     1      -1.320  -0.532  -0.605  0.00  0.00    +0.188 C 
ENDBRANCH  17  19
ENDBRANCH  14  15
ENDBRANCH   1  14
TORSDOF 5
