REMARK  Name = ZINC34786738
REMARK  6 active torsions:
REMARK  status: ('A' for Active; 'I' for Inactive)
REMARK    1  A    between atoms: C_1  and  C_2
REMARK    2  A    between atoms: C_4  and  C_33
REMARK    3  A    between atoms: N_19  and  N_20
REMARK    4  A    between atoms: N_19  and  N_28
REMARK    5  A    between atoms: N_20  and  C_21
REMARK    6  A    between atoms: C_21  and  C_22
REMARK                            x       y       z     vdW  Elec       q    Type
REMARK                         _______ _______ _______ _____ _____    ______ ____
ROOT
ATOM      1  C   UNL     1      -0.154   2.079   0.757  0.00  0.00    +0.067 C 
ATOM      2  C   UNL     1      -0.226   0.587   0.561  0.00  0.00    +0.061 A 
ATOM      3  C   UNL     1      -0.379  -0.072  -0.665  0.00  0.00    +0.048 A 
ATOM      4  C   UNL     1      -0.399  -1.403  -0.424  0.00  0.00    +0.045 A 
ATOM      5  N   UNL     1      -0.264  -1.579   0.917  0.00  0.00    -0.202 N 
ATOM      6  N   UNL     1      -0.152  -0.314   1.506  0.00  0.00    -0.169 NA
ATOM      7  C   UNL     1      -0.235  -2.804   1.586  0.00  0.00    +0.254 A 
ATOM      8  N   UNL     1      -0.102  -2.820   2.905  0.00  0.00    -0.192 NA
ATOM      9  C   UNL     1      -0.068  -3.948   3.595  0.00  0.00    +0.164 A 
ATOM     10  C   UNL     1      -0.178  -5.185   2.901  0.00  0.00    +0.054 A 
ATOM     11  C   UNL     1      -0.165  -6.549   3.458  0.00  0.00    -0.025 A 
ATOM     12  C   UNL     1      -0.285  -7.561   2.584  0.00  0.00    -0.004 A 
ATOM     13  S   UNL     1      -0.425  -6.785   0.991  0.00  0.00    -0.073 S 
ATOM     14  C   UNL     1      -0.317  -5.092   1.505  0.00  0.00    +0.116 A 
ATOM     15  N   UNL     1      -0.348  -3.925   0.890  0.00  0.00    -0.203 NA
ATOM     16  C   UNL     1      -0.254  -8.904   3.264  0.00  0.00    +0.043 C 
ATOM     17  C   UNL     1       0.337  -8.618   4.661  0.00  0.00    +0.010 C 
ATOM     18  C   UNL     1      -0.045  -7.139   4.866  0.00  0.00    +0.037 C 
ATOM     19  N   UNL     1       0.073  -3.925   4.970  0.00  0.00    -0.178 N 
ATOM     20  C   UNL     1      -0.546  -2.491  -1.455  0.00  0.00    +0.066 C 
ENDROOT
BRANCH  19  21
ATOM     21  N   UNL     1       1.158  -3.319   5.536  0.00  0.00    -0.211 NA
ATOM     22  C   UNL     1       0.756  -2.121   6.304  0.00  0.00    +0.107 C 
ATOM     23  C   UNL     1       0.686  -2.601   7.776  0.00  0.00    +0.018 C 
ATOM     24  C   UNL     1       1.879  -3.590   7.840  0.00  0.00    +0.018 C 
ATOM     25  C   UNL     1       1.867  -4.242   6.442  0.00  0.00    +0.107 C 
ENDBRANCH  19  21
BRANCH  19  26
ATOM     26  N   UNL     1      -0.874  -4.509   5.764  0.00  0.00    -0.220 NA
ATOM     27  H   UNL     1      -1.210  -5.367   5.354  0.00  0.00    +0.146 HD
BRANCH  26  28
ATOM     28  C   UNL     1      -1.983  -3.583   6.028  0.00  0.00    +0.138 C 
BRANCH  28  29
ATOM     29  C   UNL     1      -3.062  -4.298   6.799  0.00  0.00    -0.032 A 
ATOM     30  C   UNL     1      -4.015  -5.041   6.127  0.00  0.00    +0.005 A 
ATOM     31  C   UNL     1      -5.005  -5.698   6.833  0.00  0.00    +0.000 A 
ATOM     32  C   UNL     1      -5.042  -5.612   8.213  0.00  0.00    +0.000 A 
ATOM     33  C   UNL     1      -4.089  -4.870   8.885  0.00  0.00    +0.000 A 
ATOM     34  C   UNL     1      -3.096  -4.217   8.178  0.00  0.00    +0.005 A 
ENDBRANCH  28  29
ENDBRANCH  26  28
ENDBRANCH  19  26
TORSDOF 4
