REMARK  Name = ZINC49562613
REMARK  1 active torsions:
REMARK  status: ('A' for Active; 'I' for Inactive)
REMARK    1  A    between atoms: C_6  and  N_7
REMARK                            x       y       z     vdW  Elec       q    Type
REMARK                         _______ _______ _______ _____ _____    ______ ____
ROOT
ATOM      1  C   UNL     1       0.021   1.387   0.277  0.00  0.00    +0.053 A 
ATOM      2  C   UNL     1       1.216   2.057   0.046  0.00  0.00    +0.038 A 
ATOM      3  C   UNL     1       2.357   1.329  -0.232  0.00  0.00    +0.128 A 
ATOM      4  N   UNL     1       2.323   0.011  -0.280  0.00  0.00    -0.237 NA
ATOM      5  C   UNL     1       1.204  -0.663  -0.066  0.00  0.00    +0.155 A 
ATOM      6  C   UNL     1       0.018   0.005   0.220  0.00  0.00    +0.167 A 
ATOM      7  N   UNL     1       1.214  -2.054  -0.127  0.00  0.00    -0.277 N 
ATOM      8  C   UNL     1       2.412  -2.732  -0.300  0.00  0.00    +0.164 A 
ATOM      9  N   UNL     1       3.624  -2.234  -0.417  0.00  0.00    -0.229 NA
ATOM     10  C   UNL     1       4.691  -3.012  -0.578  0.00  0.00    +0.054 A 
ATOM     11  C   UNL     1       4.428  -4.343  -0.612  0.00  0.00    +0.014 A 
ATOM     12  S   UNL     1       2.670  -4.394  -0.402  0.00  0.00    -0.057 S 
ATOM     13  C   UNL     1       5.399  -5.461  -0.781  0.00  0.00    +0.044 C 
ATOM     14  C   UNL     1       6.728  -4.870  -1.281  0.00  0.00    +0.006 C 
ATOM     15  C   UNL     1       7.082  -3.653  -0.422  0.00  0.00    +0.006 C 
ATOM     16  C   UNL     1       6.119  -2.502  -0.718  0.00  0.00    +0.056 C 
ATOM     17 BR   UNL     1       1.281   3.946   0.111  0.00  0.00    -0.049 Br
ATOM     18  H   UNL     1       0.383  -2.549  -0.050  0.00  0.00    +0.156 HD
ENDROOT
BRANCH   6  19
ATOM     19  N   UNL     1      -1.231  -0.752   0.459  0.00  0.00    +0.060 N 
ATOM     20  O   UNL     1      -2.286  -0.322   0.054  0.00  0.00    -0.126 OA
ATOM     21  O   UNL     1      -1.197  -1.800   1.060  0.00  0.00    -0.126 OA
ENDBRANCH   6  19
TORSDOF 1
