REMARK  Name = ZINC66552814
REMARK  6 active torsions:
REMARK  status: ('A' for Active; 'I' for Inactive)
REMARK    1  A    between atoms: C_1  and  C_2
REMARK    2  A    between atoms: C_4  and  C_11
REMARK    3  A    between atoms: C_7  and  N_8
REMARK    4  A    between atoms: N_13  and  C_14
REMARK    5  A    between atoms: C_17  and  S_21
REMARK    6  A    between atoms: S_21  and  C_24
REMARK                            x       y       z     vdW  Elec       q    Type
REMARK                         _______ _______ _______ _____ _____    ______ ____
ROOT
ATOM      1  C   UNL     1      -0.300  -3.135  -2.268  0.00  0.00    +0.248 C 
ATOM      2  O   UNL     1      -0.760  -2.657  -3.287  0.00  0.00    -0.270 OA
ATOM      3  N   UNL     1       0.129  -4.413  -2.257  0.00  0.00    -0.281 N 
ATOM      4  H   UNL     1       0.425  -4.818  -1.427  0.00  0.00    +0.155 HD
ENDROOT
BRANCH   3   5
ATOM      5  C   UNL     1       0.149  -5.154  -3.442  0.00  0.00    +0.039 A 
ATOM      6  C   UNL     1      -0.099  -6.520  -3.412  0.00  0.00    +0.063 A 
ATOM      7  C   UNL     1      -0.079  -7.252  -4.586  0.00  0.00    +0.153 A 
ATOM      8  C   UNL     1       0.187  -6.623  -5.791  0.00  0.00    +0.158 A 
ATOM      9  C   UNL     1       0.434  -5.261  -5.823  0.00  0.00    +0.153 A 
ATOM     10  C   UNL     1       0.410  -4.524  -4.652  0.00  0.00    +0.063 A 
ATOM     11  F   UNL     1       0.693  -4.649  -7.000  0.00  0.00    -0.203 F 
ATOM     12  F   UNL     1      -0.320  -8.581  -4.558  0.00  0.00    -0.203 F 
BRANCH   8  13
ATOM     13  S   UNL     1       0.212  -7.557  -7.285  0.00  0.00    -0.000 S 
ATOM     14  O   UNL     1       1.069  -6.829  -8.153  0.00  0.00    -0.169 OA
ATOM     15  O   UNL     1       0.542  -8.879  -6.880  0.00  0.00    -0.169 OA
ATOM     16  C   UNL     1      -1.494  -7.500  -7.899  0.00  0.00    +0.200 C 
ENDBRANCH   8  13
ENDBRANCH   3   5
BRANCH   1  20
ATOM     17  C   UNL     1      -1.053   1.196   0.093  0.00  0.00    +0.046 C 
ATOM     18  C   UNL     1      -0.574  -0.233   0.100  0.00  0.00    -0.020 A 
ATOM     19  C   UNL     1      -0.657  -0.992  -1.049  0.00  0.00    +0.018 A 
ATOM     20  C   UNL     1      -0.213  -2.316  -1.041  0.00  0.00    +0.037 A 
ATOM     21  C   UNL     1       0.313  -2.862   0.131  0.00  0.00    +0.015 A 
ATOM     22  C   UNL     1       0.391  -2.091   1.273  0.00  0.00    +0.034 A 
ATOM     23  C   UNL     1      -0.046  -0.778   1.256  0.00  0.00    +0.129 A 
BRANCH  23  24
ATOM     24  N   UNL     1       0.046   0.044   2.484  0.00  0.00    +0.057 N 
ATOM     25  O   UNL     1       0.325   1.218   2.405  0.00  0.00    -0.126 OA
ATOM     26  O   UNL     1      -0.157  -0.458   3.564  0.00  0.00    -0.126 OA
ENDBRANCH  23  24
ENDBRANCH   1  20
TORSDOF 4
