REMARK  Name = ZINC38612634
REMARK  6 active torsions:
REMARK  status: ('A' for Active; 'I' for Inactive)
REMARK    1  A    between atoms: C_1  and  C_2
REMARK    2  A    between atoms: C_5  and  C_8
REMARK    3  A    between atoms: C_8  and  C_20
REMARK    4  A    between atoms: N_9  and  N_10
REMARK    5  A    between atoms: C_11  and  C_13
REMARK    6  A    between atoms: C_16  and  C_19
REMARK                            x       y       z     vdW  Elec       q    Type
REMARK                         _______ _______ _______ _____ _____    ______ ____
ROOT
ATOM      1  C   UNL     1       0.269  -4.279  -0.042  0.00  0.00    +0.063 C 
ATOM      2  N   UNL     1      -0.037  -4.892  -1.144  0.00  0.00    -0.184 NA
ATOM      3  C   UNL     1       0.121  -4.987   1.280  0.00  0.00    +0.068 C 
ENDROOT
BRANCH   1   8
ATOM      4  C   UNL     1       2.195   1.138  -0.203  0.00  0.00    +0.044 C 
ATOM      5  C   UNL     1       1.690  -0.281  -0.161  0.00  0.00    -0.050 A 
ATOM      6  C   UNL     1       0.884  -0.695   0.885  0.00  0.00    +0.004 A 
ATOM      7  C   UNL     1       0.419  -1.992   0.930  0.00  0.00    +0.010 A 
ATOM      8  C   UNL     1       0.763  -2.890  -0.084  0.00  0.00    -0.003 A 
ATOM      9  C   UNL     1       1.576  -2.465  -1.137  0.00  0.00    +0.010 A 
ATOM     10  C   UNL     1       2.030  -1.163  -1.172  0.00  0.00    +0.004 A 
ENDBRANCH   1   8
BRANCH   2  11
ATOM     11  N   UNL     1      -0.053  -4.189  -2.356  0.00  0.00    -0.205 N 
ATOM     12  C   UNL     1      -0.253  -4.848  -3.514  0.00  0.00    +0.263 C 
ATOM     13  O   UNL     1      -0.419  -6.049  -3.508  0.00  0.00    -0.271 OA
ATOM     14  H   UNL     1       0.081  -3.228  -2.361  0.00  0.00    +0.177 HD
BRANCH  12  15
ATOM     15  C   UNL     1      -0.269  -4.091  -4.818  0.00  0.00    +0.240 C 
ATOM     16  C   UNL     1      -1.633  -3.469  -5.060  0.00  0.00    +0.035 C 
ATOM     17  C   UNL     1      -2.054  -4.046  -6.187  0.00  0.00    +0.059 C 
ATOM     18  N   UNL     1      -1.136  -4.923  -6.649  0.00  0.00    -0.159 NA
ATOM     19  N   UNL     1      -0.115  -5.013  -5.956  0.00  0.00    -0.170 NA
ATOM     20  C   UNL     1      -3.375  -3.759  -6.853  0.00  0.00    +0.067 C 
ENDBRANCH  12  15
ENDBRANCH   2  11
TORSDOF 3
