REMARK  Name = ZINC08984936
REMARK  11 active torsions:
REMARK  status: ('A' for Active; 'I' for Inactive)
REMARK    1  A    between atoms: C_1  and  C_2
REMARK    2  A    between atoms: C_2  and  O_3
REMARK    3  A    between atoms: O_3  and  C_4
REMARK    4  A    between atoms: C_6  and  C_21
REMARK    5  A    between atoms: C_9  and  O_10
REMARK    6  A    between atoms: O_10  and  C_11
REMARK    7  A    between atoms: C_11  and  C_12
REMARK    8  A    between atoms: C_12  and  C_13
REMARK    9  A    between atoms: C_13  and  O_14
REMARK   10  A    between atoms: O_14  and  C_15
REMARK   11  A    between atoms: N_28  and  C_31
REMARK                            x       y       z     vdW  Elec       q    Type
REMARK                         _______ _______ _______ _____ _____    ______ ____
ROOT
ATOM      1  C   UNL     1      -2.196   3.579  -2.251  0.00  0.00    +0.162 A 
ATOM      2  C   UNL     1      -1.520   2.507  -1.707  0.00  0.00    +0.057 A 
ATOM      3  C   UNL     1      -0.178   2.651  -1.323  0.00  0.00    -0.020 A 
ATOM      4  C   UNL     1       0.471   3.881  -1.505  0.00  0.00    +0.012 A 
ATOM      5  C   UNL     1      -0.212   4.943  -2.053  0.00  0.00    +0.050 A 
ATOM      6  C   UNL     1      -1.543   4.800  -2.428  0.00  0.00    +0.162 A 
ENDROOT
BRANCH   3   7
ATOM      7  C   UNL     1       0.544   1.520  -0.741  0.00  0.00    +0.026 C 
ATOM      8  C   UNL     1       1.311   1.700   0.395  0.00  0.00    +0.100 C 
ATOM      9  C   UNL     1       2.238   0.655   0.874  0.00  0.00    +0.257 C 
ATOM     10  O   UNL     1       2.352  -0.399   0.278  0.00  0.00    -0.270 OA
ATOM     11  N   UNL     1       2.959   0.905   1.986  0.00  0.00    -0.235 N 
ATOM     12  C   UNL     1       2.838   2.060   2.655  0.00  0.00    +0.320 C 
ATOM     13  O   UNL     1       3.513   2.219   3.653  0.00  0.00    -0.251 OA
ATOM     14  N   UNL     1       2.014   3.049   2.283  0.00  0.00    -0.190 N 
ATOM     15  C   UNL     1       1.236   2.944   1.186  0.00  0.00    +0.263 C 
ATOM     16  O   UNL     1       0.491   3.849   0.859  0.00  0.00    -0.269 OA
ATOM     17  H   UNL     1       3.575   0.231   2.312  0.00  0.00    +0.159 HD
BRANCH  14  18
ATOM     18  C   UNL     1       1.960   4.221   3.051  0.00  0.00    +0.046 A 
ATOM     19  C   UNL     1       1.063   4.320   4.106  0.00  0.00    +0.025 A 
ATOM     20  C   UNL     1       1.015   5.473   4.864  0.00  0.00    +0.022 A 
ATOM     21  C   UNL     1       1.852   6.534   4.566  0.00  0.00    +0.041 A 
ATOM     22  C   UNL     1       2.744   6.439   3.512  0.00  0.00    +0.022 A 
ATOM     23  C   UNL     1       2.799   5.286   2.754  0.00  0.00    +0.025 A 
ATOM     24 CL   UNL     1       1.786   7.984   5.517  0.00  0.00    -0.084 Cl
ENDBRANCH  14  18
ENDBRANCH   3   7
BRANCH   1  25
ATOM     25  O   UNL     1      -3.498   3.446  -2.619  0.00  0.00    -0.489 OA
BRANCH  25  27
ATOM     26  C   UNL     1      -5.559   2.210  -2.880  0.00  0.00    +0.048 C 
ATOM     27  C   UNL     1      -4.104   2.168  -2.409  0.00  0.00    +0.226 C 
ENDBRANCH  25  27
ENDBRANCH   1  25
BRANCH   6  28
ATOM     28  O   UNL     1      -2.209   5.851  -2.969  0.00  0.00    -0.488 OA
BRANCH  28  29
ATOM     29  C   UNL     1      -1.481   7.071  -3.123  0.00  0.00    +0.232 C 
BRANCH  29  30
ATOM     30  C   UNL     1      -2.391   8.133  -3.744  0.00  0.00    +0.082 C 
BRANCH  30  31
ATOM     31  C   UNL     1      -1.612   9.439  -3.909  0.00  0.00    +0.232 C 
BRANCH  31  32
ATOM     32  O   UNL     1      -2.462  10.431  -4.489  0.00  0.00    -0.492 OA
BRANCH  32  33
ATOM     33  C   UNL     1      -1.920  11.658  -4.705  0.00  0.00    +0.121 A 
ATOM     34  C   UNL     1      -0.599  11.905  -4.359  0.00  0.00    +0.045 A 
ATOM     35  C   UNL     1      -0.049  13.152  -4.585  0.00  0.00    +0.004 A 
ATOM     36  C   UNL     1      -0.817  14.157  -5.143  0.00  0.00    +0.000 A 
ATOM     37  C   UNL     1      -2.135  13.915  -5.482  0.00  0.00    +0.004 A 
ATOM     38  C   UNL     1      -2.688  12.668  -5.264  0.00  0.00    +0.045 A 
ENDBRANCH  32  33
ENDBRANCH  31  32
ENDBRANCH  30  31
ENDBRANCH  29  30
ENDBRANCH  28  29
ENDBRANCH   6  28
TORSDOF 10
