REMARK  Name = ZINC16118446
REMARK  7 active torsions:
REMARK  status: ('A' for Active; 'I' for Inactive)
REMARK    1  A    between atoms: C_6  and  S_7
REMARK    2  A    between atoms: S_7  and  N_10
REMARK    3  A    between atoms: C_14  and  C_16
REMARK    4  A    between atoms: C_16  and  O_17
REMARK    5  A    between atoms: O_17  and  C_18
REMARK    6  A    between atoms: C_18  and  C_20
REMARK    7  A    between atoms: C_25  and  N_26
REMARK                            x       y       z     vdW  Elec       q    Type
REMARK                         _______ _______ _______ _____ _____    ______ ____
ROOT
ATOM      1  C   UNL     1      -0.774   3.395  -3.155  0.00  0.00    +0.030 A 
ATOM      2  C   UNL     1       0.342   4.065  -2.700  0.00  0.00    +0.026 A 
ATOM      3  C   UNL     1       1.524   3.369  -2.444  0.00  0.00    +0.040 A 
ATOM      4  C   UNL     1       1.559   2.000  -2.654  0.00  0.00    -0.023 A 
ATOM      5  C   UNL     1       0.438   1.333  -3.110  0.00  0.00    +0.034 A 
ATOM      6  C   UNL     1      -0.728   2.030  -3.367  0.00  0.00    +0.105 A 
ATOM      7  C   UNL     1       2.940   1.494  -2.305  0.00  0.00    +0.056 C 
ATOM      8  C   UNL     1       3.712   2.748  -1.862  0.00  0.00    +0.118 C 
ATOM      9  N   UNL     1       2.754   3.851  -1.983  0.00  0.00    -0.268 N 
ATOM     10  C   UNL     1       3.019   5.140  -1.692  0.00  0.00    +0.258 C 
ATOM     11  O   UNL     1       2.155   5.981  -1.825  0.00  0.00    -0.272 OA
ENDROOT
BRANCH   6  12
ATOM     12  S   UNL     1      -2.154   1.178  -3.957  0.00  0.00    +0.056 S 
ATOM     13  O   UNL     1      -2.948   2.140  -4.637  0.00  0.00    -0.153 OA
ATOM     14  O   UNL     1      -1.688  -0.008  -4.586  0.00  0.00    -0.153 OA
BRANCH  12  15
ATOM     15  N   UNL     1      -3.022   0.701  -2.630  0.00  0.00    -0.204 NA
ATOM     16  H   UNL     1      -2.701   0.910  -1.739  0.00  0.00    +0.144 HD
ATOM     17  H   UNL     1      -3.852   0.211  -2.744  0.00  0.00    +0.144 HD
ENDBRANCH  12  15
ENDBRANCH   6  12
BRANCH  10  18
ATOM     18  C   UNL     1       4.388   5.535  -1.202  0.00  0.00    +0.328 C 
BRANCH  18  19
ATOM     19  O   UNL     1       4.420   6.967  -0.960  0.00  0.00    -0.452 OA
BRANCH  19  20
ATOM     20  C   UNL     1       5.581   7.486  -0.514  0.00  0.00    +0.341 C 
ATOM     21  O   UNL     1       6.540   6.762  -0.333  0.00  0.00    -0.245 OA
BRANCH  20  22
ATOM     22  C   UNL     1       5.688   8.930  -0.247  0.00  0.00    +0.080 A 
ATOM     23  C   UNL     1       4.556   9.747  -0.335  0.00  0.00    +0.018 A 
ATOM     24  C   UNL     1       4.662  11.096  -0.085  0.00  0.00    +0.021 A 
ATOM     25  C   UNL     1       5.888  11.652   0.255  0.00  0.00    +0.043 A 
ATOM     26  C   UNL     1       7.014  10.859   0.345  0.00  0.00    +0.043 A 
ATOM     27  C   UNL     1       6.926   9.494   0.102  0.00  0.00    +0.040 A 
ATOM     28 CL   UNL     1       6.005  13.356   0.567  0.00  0.00    -0.083 Cl
BRANCH  27  29
ATOM     29  N   UNL     1       8.056   8.693   0.198  0.00  0.00    -0.357 N 
ATOM     30  H   UNL     1       8.094   7.850  -0.279  0.00  0.00    +0.142 HD
ATOM     31  H   UNL     1       8.806   8.977   0.743  0.00  0.00    +0.142 HD
ENDBRANCH  27  29
ENDBRANCH  20  22
ENDBRANCH  19  20
ENDBRANCH  18  19
ENDBRANCH  10  18
TORSDOF 7
