REMARK  Name = ZINC32105006
REMARK  3 active torsions:
REMARK  status: ('A' for Active; 'I' for Inactive)
REMARK    1  A    between atoms: C_1  and  N_2
REMARK    2  A    between atoms: C_6  and  S_7
REMARK    3  A    between atoms: S_7  and  C_8
REMARK                            x       y       z     vdW  Elec       q    Type
REMARK                         _______ _______ _______ _____ _____    ______ ____
ROOT
ATOM      1  C   UNL     1       0.063  -1.917   3.688  0.00  0.00    +0.141 C 
ATOM      2  C   UNL     1       0.226  -1.629   5.161  0.00  0.00    +0.028 C 
ATOM      3  C   UNL     1       0.595  -2.835   5.967  0.00  0.00    +0.038 C 
ATOM      4  C   UNL     1      -0.521  -3.782   6.267  0.00  0.00    -0.026 A 
ATOM      5  C   UNL     1      -0.467  -4.397   7.518  0.00  0.00    +0.005 A 
ATOM      6  C   UNL     1      -1.436  -5.284   7.926  0.00  0.00    +0.000 A 
ATOM      7  C   UNL     1      -2.493  -5.572   7.081  0.00  0.00    +0.002 A 
ATOM      8  C   UNL     1      -2.555  -4.975   5.846  0.00  0.00    +0.023 A 
ATOM      9  C   UNL     1      -1.565  -4.074   5.416  0.00  0.00    +0.037 A 
ATOM     10  N   UNL     1      -1.746  -3.580   4.145  0.00  0.00    -0.284 N 
ATOM     11  C   UNL     1      -1.191  -2.663   3.405  0.00  0.00    +0.231 C 
ATOM     12  O   UNL     1      -1.761  -2.389   2.370  0.00  0.00    -0.274 OA
ATOM     13  H   UNL     1      -2.471  -4.028   3.683  0.00  0.00    +0.155 HD
ENDROOT
BRANCH   1  14
ATOM     14  S   UNL     1       0.033  -0.347   2.779  0.00  0.00    -0.073 S 
BRANCH  14  20
ATOM     15  C   UNL     1      -0.018   1.461   0.010  0.00  0.00    +0.152 C 
ATOM     16  N   UNL     1       0.002  -0.004   0.002  0.00  0.00    -0.312 N 
ATOM     17  C   UNL     1       0.009  -0.824  -1.093  0.00  0.00    +0.225 A 
ATOM     18  N   UNL     1       0.028  -2.052  -0.657  0.00  0.00    -0.137 NA
ATOM     19  N   UNL     1       0.034  -2.064   0.628  0.00  0.00    -0.123 NA
ATOM     20  C   UNL     1       0.024  -0.834   1.086  0.00  0.00    +0.192 A 
ENDBRANCH  14  20
ENDBRANCH   1  14
TORSDOF 2
