REMARK  Name = ZINC51499730
REMARK  4 active torsions:
REMARK  status: ('A' for Active; 'I' for Inactive)
REMARK    1  A    between atoms: C_1  and  C_2
REMARK    2  A    between atoms: C_11  and  O_13
REMARK    3  A    between atoms: O_13  and  C_14
REMARK    4  A    between atoms: C_14  and  C_16
REMARK                            x       y       z     vdW  Elec       q    Type
REMARK                         _______ _______ _______ _____ _____    ______ ____
ROOT
ATOM      1  C   UNL     1       0.073   1.545   0.049  0.00  0.00    +0.045 C 
ATOM      2  C   UNL     1       0.012   0.039   0.029  0.00  0.00    -0.033 A 
ATOM      3  C   UNL     1      -0.058  -0.641  -1.145  0.00  0.00    +0.096 A 
ATOM      4  C   UNL     1      -0.115  -2.050  -1.137  0.00  0.00    +0.337 A 
ATOM      5  O   UNL     1      -0.177  -2.647  -2.197  0.00  0.00    -0.245 OA
ATOM      6  O   UNL     1      -0.101  -2.750   0.008  0.00  0.00    -0.422 OA
ATOM      7  C   UNL     1      -0.033  -2.136   1.209  0.00  0.00    +0.143 A 
ATOM      8  C   UNL     1       0.032  -0.731   1.274  0.00  0.00    +0.022 A 
ATOM      9  C   UNL     1       0.109  -0.091   2.516  0.00  0.00    +0.035 A 
ATOM     10  C   UNL     1       0.126  -0.834   3.663  0.00  0.00    +0.084 A 
ATOM     11  C   UNL     1       0.068  -2.225   3.603  0.00  0.00    +0.153 A 
ATOM     12  C   UNL     1      -0.020  -2.874   2.382  0.00  0.00    +0.094 A 
ATOM     13 CL   UNL     1       0.221  -0.039   5.203  0.00  0.00    -0.080 Cl
ENDROOT
BRANCH  11  14
ATOM     14  O   UNL     1       0.087  -2.950   4.751  0.00  0.00    -0.422 OA
BRANCH  14  15
ATOM     15  C   UNL     1      -1.071  -3.112   5.413  0.00  0.00    +0.344 C 
ATOM     16  O   UNL     1      -2.103  -2.708   4.933  0.00  0.00    -0.247 OA
BRANCH  15  17
ATOM     17  C   UNL     1      -1.082  -3.799   6.754  0.00  0.00    +0.252 C 
ATOM     18  C   UNL     1      -0.308  -2.952   7.769  0.00  0.00    +0.203 C 
ATOM     19  O   UNL     1      -0.417  -3.554   9.063  0.00  0.00    -0.374 OA
ATOM     20  C   UNL     1      -1.768  -3.705   9.511  0.00  0.00    +0.188 C 
ATOM     21  C   UNL     1      -2.542  -4.552   8.496  0.00  0.00    +0.189 C 
ATOM     22  O   UNL     1      -2.432  -3.952   7.202  0.00  0.00    -0.361 OA
ENDBRANCH  15  17
ENDBRANCH  14  15
ENDBRANCH  11  14
TORSDOF 3
