REMARK  Name = ZINC46797690
REMARK  10 active torsions:
REMARK  status: ('A' for Active; 'I' for Inactive)
REMARK    1  A    between atoms: C_1  and  C_2
REMARK    2  A    between atoms: C_7  and  C_9
REMARK    3  A    between atoms: C_7  and  C_10
REMARK    4  A    between atoms: N_13  and  C_17
REMARK    5  A    between atoms: C_17  and  C_18
REMARK    6  A    between atoms: N_20  and  C_21
REMARK    7  A    between atoms: C_21  and  C_22
REMARK    8  A    between atoms: C_27  and  C_28
REMARK    9  A    between atoms: C_28  and  N_29
REMARK   10  A    between atoms: C_32  and  C_35
REMARK                            x       y       z     vdW  Elec       q    Type
REMARK                         _______ _______ _______ _____ _____    ______ ____
ROOT
ATOM      1  C   UNL     1      -1.431  -5.488  -2.763  0.00  0.00    +0.231 C 
ATOM      2  O   UNL     1      -1.057  -5.765  -1.643  0.00  0.00    -0.274 OA
ATOM      3  N   UNL     1      -1.311  -6.390  -3.757  0.00  0.00    -0.310 N 
ATOM      4  H   UNL     1      -1.611  -6.169  -4.652  0.00  0.00    +0.149 HD
ENDROOT
BRANCH   1   5
ATOM      5  C   UNL     1      -2.031  -4.134  -3.043  0.00  0.00    +0.213 C 
BRANCH   5  17
ATOM      6  C   UNL     1      -0.019   1.528   0.010  0.00  0.00    +0.007 C 
ATOM      7  C   UNL     1       0.002  -0.004   0.002  0.00  0.00    -0.011 C 
ATOM      8  C   UNL     1      -1.435  -0.529   0.021  0.00  0.00    +0.038 C 
ATOM      9  C   UNL     1      -1.427  -2.050  -0.036  0.00  0.00    +0.113 C 
ATOM     10  C   UNL     1      -0.575  -2.676   1.049  0.00  0.00    +0.041 C 
ATOM     11  C   UNL     1       0.782  -2.031   1.270  0.00  0.00    -0.032 C 
ATOM     12  C   UNL     1       0.719  -0.508   1.253  0.00  0.00    +0.009 C 
ATOM     13  C   UNL     1       1.296  -2.464   2.661  0.00  0.00    +0.011 C 
ATOM     14  C   UNL     1       1.795  -2.526   0.234  0.00  0.00    +0.011 C 
ATOM     15  C   UNL     1      -1.044  -2.534  -1.413  0.00  0.00    +0.247 C 
ATOM     16  O   UNL     1      -0.058  -2.253  -2.060  0.00  0.00    -0.273 OA
ATOM     17  N   UNL     1      -2.050  -3.344  -1.810  0.00  0.00    -0.215 N 
ATOM     18  C   UNL     1      -3.063  -3.331  -0.937  0.00  0.00    +0.310 C 
ATOM     19  O   UNL     1      -4.088  -3.969  -1.082  0.00  0.00    -0.252 OA
ATOM     20  N   UNL     1      -2.817  -2.537   0.119  0.00  0.00    -0.285 N 
ATOM     21  H   UNL     1      -3.418  -2.318   0.845  0.00  0.00    +0.151 HD
ENDBRANCH   5  17
ENDBRANCH   1   5
BRANCH   3  22
ATOM     22  C   UNL     1      -0.728  -7.706  -3.484  0.00  0.00    +0.139 C 
BRANCH  22  23
ATOM     23  C   UNL     1      -0.708  -8.520  -4.753  0.00  0.00    -0.029 A 
ATOM     24  C   UNL     1      -1.687  -9.469  -4.981  0.00  0.00    +0.005 A 
ATOM     25  C   UNL     1      -1.669 -10.215  -6.144  0.00  0.00    +0.000 A 
ATOM     26  C   UNL     1      -0.672 -10.011  -7.080  0.00  0.00    +0.000 A 
ATOM     27  C   UNL     1       0.305  -9.061  -6.853  0.00  0.00    +0.002 A 
ATOM     28  C   UNL     1       0.285  -8.312  -5.691  0.00  0.00    -0.059 A 
BRANCH  28  29
ATOM     29  C   UNL     1       1.348  -7.272  -5.446  0.00  0.00    -0.043 C 
BRANCH  29  30
ATOM     30  N   UNL     1       2.368  -7.819  -4.541  0.00  0.00    +0.382 N 
ATOM     31  C   UNL     1       3.053  -8.940  -5.198  0.00  0.00    -0.078 C 
ATOM     32  C   UNL     1       4.060  -9.565  -4.231  0.00  0.00    -0.016 C 
ATOM     33  C   UNL     1       5.088  -8.507  -3.819  0.00  0.00    -0.018 C 
ATOM     34  C   UNL     1       4.356  -7.311  -3.203  0.00  0.00    -0.016 C 
ATOM     35  C   UNL     1       3.338  -6.769  -4.208  0.00  0.00    -0.078 C 
ATOM     36  C   UNL     1       6.051  -9.103  -2.790  0.00  0.00    +0.007 C 
ATOM     37  H   UNL     1       1.925  -8.147  -3.696  0.00  0.00    -0.081 HD
ENDBRANCH  29  30
ENDBRANCH  28  29
ENDBRANCH  22  23
ENDBRANCH   3  22
TORSDOF 6
