REMARK  Name = ZINC33261712
REMARK  4 active torsions:
REMARK  status: ('A' for Active; 'I' for Inactive)
REMARK    1  A    between atoms: C_1  and  C_2
REMARK    2  A    between atoms: C_18  and  C_21
REMARK    3  A    between atoms: N_23  and  C_24
REMARK    4  A    between atoms: C_24  and  C_25
REMARK                            x       y       z     vdW  Elec       q    Type
REMARK                         _______ _______ _______ _____ _____    ______ ____
ROOT
ATOM      1  C   UNL     1      -4.047  10.504  -7.808  0.00  0.00    +0.007 C 
ATOM      2  C   UNL     1      -4.141   9.491  -6.665  0.00  0.00    -0.011 C 
ATOM      3  C   UNL     1      -2.936   9.655  -5.735  0.00  0.00    +0.022 C 
ATOM      4  C   UNL     1      -3.004   8.600  -4.629  0.00  0.00    +0.107 C 
ATOM      5  N   UNL     1      -3.003   7.259  -5.229  0.00  0.00    -0.314 N 
ATOM      6  C   UNL     1      -4.177   7.062  -6.089  0.00  0.00    +0.107 C 
ATOM      7  C   UNL     1      -4.144   8.071  -7.239  0.00  0.00    +0.022 C 
ATOM      8  C   UNL     1      -2.932   6.273  -4.247  0.00  0.00    +0.144 A 
ATOM      9  C   UNL     1      -2.920   4.925  -4.609  0.00  0.00    +0.049 A 
ATOM     10  C   UNL     1      -2.849   3.982  -3.599  0.00  0.00    +0.049 A 
ATOM     11  C   UNL     1      -2.794   4.439  -2.281  0.00  0.00    +0.144 A 
ATOM     12  N   UNL     1      -2.817   5.737  -2.032  0.00  0.00    -0.132 NA
ATOM     13  N   UNL     1      -2.877   6.612  -2.969  0.00  0.00    -0.132 NA
ATOM     14  N   UNL     1      -2.722   3.527  -1.229  0.00  0.00    -0.313 N 
ATOM     15  C   UNL     1      -3.841   2.578  -1.276  0.00  0.00    +0.106 C 
ATOM     16  C   UNL     1      -3.812   1.689  -0.031  0.00  0.00    +0.020 C 
ATOM     17  C   UNL     1      -2.480   0.934   0.019  0.00  0.00    +0.016 C 
ATOM     18  C   UNL     1      -1.330   1.944   0.019  0.00  0.00    +0.092 C 
ATOM     19  C   UNL     1      -1.431   2.826  -1.228  0.00  0.00    +0.119 C 
ENDROOT
BRANCH  18  20
ATOM     20  C   UNL     1      -0.014   1.209   0.009  0.00  0.00    +0.218 C 
ATOM     21  O   UNL     1       0.002  -0.004   0.002  0.00  0.00    -0.275 OA
ATOM     22  N   UNL     1       1.143   1.898   0.001  0.00  0.00    -0.315 N 
ATOM     23  H   UNL     1       1.129   2.998   0.007  0.00  0.00    +0.149 HD
BRANCH  22  24
ATOM     24  C   UNL     1       2.422   1.183  -0.015  0.00  0.00    +0.107 C 
BRANCH  24  25
ATOM     25  C   UNL     1       3.571   2.193  -0.020  0.00  0.00    +0.006 C 
ATOM     26  C   UNL     1       3.539   2.995  -1.323  0.00  0.00    +0.005 C 
ATOM     27  C   UNL     1       4.689   4.005  -1.329  0.00  0.00    +0.000 C 
ATOM     28  C   UNL     1       6.022   3.261  -1.220  0.00  0.00    +0.000 C 
ATOM     29  C   UNL     1       6.053   2.460   0.083  0.00  0.00    +0.000 C 
ATOM     30  C   UNL     1       4.904   1.450   0.089  0.00  0.00    +0.005 C 
ENDBRANCH  24  25
ENDBRANCH  22  24
ENDBRANCH  18  20
TORSDOF 3
