REMARK  Name = ZINC06740813
REMARK  8 active torsions:
REMARK  status: ('A' for Active; 'I' for Inactive)
REMARK    1  A    between atoms: C_1  and  C_2
REMARK    2  A    between atoms: C_2  and  N_3
REMARK    3  A    between atoms: N_3  and  C_4
REMARK    4  A    between atoms: N_3  and  C_6
REMARK    5  A    between atoms: C_4  and  C_5
REMARK    6  A    between atoms: C_9  and  N_12
REMARK    7  A    between atoms: N_12  and  C_13
REMARK    8  A    between atoms: N_20  and  C_23
REMARK                            x       y       z     vdW  Elec       q    Type
REMARK                         _______ _______ _______ _____ _____    ______ ____
ROOT
ATOM      1  C   UNL     1       0.718   3.402  -0.087  0.00  0.00    +0.090 C 
ATOM      2  C   UNL     1       0.950   2.039  -0.054  0.00  0.00    +0.113 C 
ATOM      3  C   UNL     1      -0.160   1.070  -0.064  0.00  0.00    +0.256 C 
ATOM      4  O   UNL     1      -1.317   1.445  -0.108  0.00  0.00    -0.270 OA
ATOM      5  N   UNL     1       0.141  -0.245  -0.030  0.00  0.00    -0.263 N 
ATOM      6  C   UNL     1       1.410  -0.672   0.013  0.00  0.00    +0.146 C 
ATOM      7  S   UNL     1       1.697  -2.360   0.054  0.00  0.00    -0.018 S 
ATOM      8  N   UNL     1       2.468   0.152   0.025  0.00  0.00    -0.246 N 
ATOM      9  C   UNL     1       2.318   1.492  -0.005  0.00  0.00    +0.259 C 
ATOM     10  O   UNL     1       3.285   2.229   0.007  0.00  0.00    -0.269 OA
ATOM     11  H   UNL     1      -0.665  -0.994  -0.036  0.00  0.00    +0.157 HD
ENDROOT
BRANCH   8  12
ATOM     12  C   UNL     1       3.817  -0.417   0.073  0.00  0.00    +0.084 C 
ATOM     13  C   UNL     1       4.556   0.127   1.297  0.00  0.00    +0.023 C 
ATOM     14  C   UNL     1       5.966  -0.467   1.347  0.00  0.00    +0.002 C 
ATOM     15  C   UNL     1       6.727  -0.079   0.078  0.00  0.00    +0.000 C 
ATOM     16  C   UNL     1       5.988  -0.623  -1.147  0.00  0.00    +0.002 C 
ATOM     17  C   UNL     1       4.579  -0.029  -1.196  0.00  0.00    +0.023 C 
ENDBRANCH   8  12
BRANCH   1  18
ATOM     18  N   UNL     1      -0.540   3.875   0.017  0.00  0.00    -0.320 N 
ATOM     19  H   UNL     1      -1.372   3.184   0.220  0.00  0.00    +0.152 HD
BRANCH  18  23
ATOM     20  C   UNL     1      -1.278   7.953  -0.433  0.00  0.00    +0.030 A 
ATOM     21  C   UNL     1      -2.329   7.081  -0.177  0.00  0.00    +0.025 A 
ATOM     22  C   UNL     1      -2.085   5.731  -0.028  0.00  0.00    +0.025 A 
ATOM     23  C   UNL     1      -0.788   5.244  -0.135  0.00  0.00    +0.031 A 
ATOM     24  C   UNL     1       0.263   6.116  -0.386  0.00  0.00    +0.025 A 
ATOM     25  C   UNL     1       0.018   7.466  -0.540  0.00  0.00    +0.025 A 
BRANCH  20  26
ATOM     26  N   UNL     1      -1.526   9.321  -0.585  0.00  0.00    -0.330 N 
BRANCH  26  28
ATOM     27  C   UNL     1      -0.220  10.370  -2.367  0.00  0.00    +0.024 C 
ATOM     28  C   UNL     1      -0.418  10.241  -0.855  0.00  0.00    +0.102 C 
ENDBRANCH  26  28
BRANCH  26  29
ATOM     29  C   UNL     1      -2.893   9.835  -0.472  0.00  0.00    +0.102 C 
ATOM     30  C   UNL     1      -3.182  10.204   0.984  0.00  0.00    +0.024 C 
ENDBRANCH  26  29
ENDBRANCH  20  26
ENDBRANCH  18  23
ENDBRANCH   1  18
TORSDOF 6
