REMARK  Name = ZINC00519932
REMARK  1 active torsions:
REMARK  status: ('A' for Active; 'I' for Inactive)
REMARK    1  A    between atoms: C_4  and  N_7
REMARK                            x       y       z     vdW  Elec       q    Type
REMARK                         _______ _______ _______ _____ _____    ______ ____
ROOT
ATOM      1  N   UNL     1       2.727   0.905  -1.945  0.00  0.00    -0.188 N 
ATOM      2  C   UNL     1       1.679   1.633  -1.527  0.00  0.00    +0.241 C 
ATOM      3  O   UNL     1       1.052   2.304  -2.319  0.00  0.00    -0.273 OA
ATOM      4  C   UNL     1       1.281   1.615  -0.069  0.00  0.00    +0.097 C 
ATOM      5  C   UNL     1      -0.124   0.922  -0.036  0.00  0.00    +0.031 C 
ATOM      6  C   UNL     1      -0.590   1.144   1.414  0.00  0.00    -0.026 C 
ATOM      7  C   UNL     1       0.146   0.385   2.207  0.00  0.00    -0.026 C 
ATOM      8  C   UNL     1       1.151  -0.392   1.337  0.00  0.00    +0.031 C 
ATOM      9  C   UNL     1       2.148   0.721   0.867  0.00  0.00    +0.096 C 
ATOM     10  C   UNL     1       3.287  -0.023   0.207  0.00  0.00    +0.234 C 
ATOM     11  O   UNL     1       4.008  -0.740   0.870  0.00  0.00    -0.274 OA
ATOM     12  N   UNL     1       3.501   0.109  -1.111  0.00  0.00    -0.227 N 
ATOM     13  C   UNL     1       0.301  -0.562   0.056  0.00  0.00    -0.015 C 
ATOM     14  C   UNL     1       0.653  -1.436  -1.107  0.00  0.00    +0.009 C 
ATOM     15  C   UNL     1      -0.583  -1.733  -0.244  0.00  0.00    +0.009 C 
ATOM     16  H   UNL     1       4.240  -0.381  -1.504  0.00  0.00    +0.173 HD
ENDROOT
BRANCH   1  20
ATOM     17  C   UNL     1       3.716   1.045  -5.990  0.00  0.00    +0.000 A 
ATOM     18  C   UNL     1       2.408   0.811  -5.607  0.00  0.00    +0.002 A 
ATOM     19  C   UNL     1       2.077   0.764  -4.267  0.00  0.00    +0.025 A 
ATOM     20  C   UNL     1       3.059   0.952  -3.304  0.00  0.00    +0.056 A 
ATOM     21  C   UNL     1       4.371   1.192  -3.691  0.00  0.00    +0.025 A 
ATOM     22  C   UNL     1       4.696   1.233  -5.033  0.00  0.00    +0.002 A 
ENDBRANCH   1  20
TORSDOF 1
