REMARK  Name = ZINC36165544
REMARK  6 active torsions:
REMARK  status: ('A' for Active; 'I' for Inactive)
REMARK    1  A    between atoms: C_1  and  C_2
REMARK    2  A    between atoms: C_3  and  C_9
REMARK    3  A    between atoms: C_4  and  C_8
REMARK    4  A    between atoms: N_11  and  C_12
REMARK    5  A    between atoms: C_17  and  C_22
REMARK    6  A    between atoms: C_19  and  C_21
REMARK                            x       y       z     vdW  Elec       q    Type
REMARK                         _______ _______ _______ _____ _____    ______ ____
ROOT
ATOM      1  C   UNL     1      -0.005  -0.369  -2.520  0.00  0.00    +0.248 C 
ATOM      2  O   UNL     1       1.042  -0.170  -3.105  0.00  0.00    -0.270 OA
ATOM      3  N   UNL     1      -1.178  -0.182  -3.157  0.00  0.00    -0.308 N 
ATOM      4  H   UNL     1      -2.014  -0.341  -2.691  0.00  0.00    +0.149 HD
ENDROOT
BRANCH   1   7
ATOM      5  C   UNL     1      -0.018   1.503   0.010  0.00  0.00    +0.066 C 
ATOM      6  C   UNL     1       0.002  -0.004   0.002  0.00  0.00    +0.045 A 
ATOM      7  C   UNL     1       0.008  -0.815  -1.115  0.00  0.00    +0.080 A 
ATOM      8  C   UNL     1       0.029  -2.152  -0.660  0.00  0.00    +0.072 A 
ATOM      9  N   UNL     1       0.035  -2.134   0.645  0.00  0.00    -0.178 NA
ATOM     10  N   UNL     1       0.024  -0.804   1.080  0.00  0.00    -0.281 N 
ATOM     11  H   UNL     1       0.029  -0.510   2.004  0.00  0.00    +0.189 HD
ATOM     12  C   UNL     1       0.042  -3.384  -1.528  0.00  0.00    +0.068 C 
ENDBRANCH   1   7
BRANCH   3  13
ATOM     13  C   UNL     1      -1.191   0.261  -4.553  0.00  0.00    +0.076 C 
ATOM     14  C   UNL     1      -1.053  -0.952  -5.475  0.00  0.00    +0.022 C 
ATOM     15  C   UNL     1      -1.067  -0.490  -6.933  0.00  0.00    +0.002 C 
ATOM     16  C   UNL     1      -2.386   0.227  -7.228  0.00  0.00    +0.003 C 
ATOM     17  C   UNL     1      -2.524   1.441  -6.307  0.00  0.00    -0.009 C 
ATOM     18  C   UNL     1      -2.510   0.978  -4.848  0.00  0.00    +0.009 C 
ATOM     19  C   UNL     1      -2.649   2.191  -3.927  0.00  0.00    +0.009 C 
ATOM     20  C   UNL     1      -3.843   2.157  -6.602  0.00  0.00    +0.008 C 
ENDBRANCH   3  13
TORSDOF 2
