REMARK  Name = ZINC09215787
REMARK  6 active torsions:
REMARK  status: ('A' for Active; 'I' for Inactive)
REMARK    1  A    between atoms: C_1  and  C_2
REMARK    2  A    between atoms: C_2  and  O_4
REMARK    3  A    between atoms: O_4  and  C_5
REMARK    4  A    between atoms: C_8  and  N_11
REMARK    5  A    between atoms: C_26  and  C_32
REMARK    6  A    between atoms: C_32  and  C_34
REMARK                            x       y       z     vdW  Elec       q    Type
REMARK                         _______ _______ _______ _____ _____    ______ ____
ROOT
ATOM      1  N   UNL     1       1.083  -1.506  -1.420  0.00  0.00    -0.210 N 
ATOM      2  C   UNL     1       0.003  -0.720  -1.285  0.00  0.00    +0.232 C 
ATOM      3  O   UNL     1      -0.817  -0.485  -2.147  0.00  0.00    -0.274 OA
ATOM      4  C   UNL     1      -0.017  -0.178   0.128  0.00  0.00    +0.113 C 
ATOM      5  C   UNL     1      -0.222   1.334   0.130  0.00  0.00    +0.100 C 
ATOM      6  C   UNL     1      -1.052   1.790  -1.041  0.00  0.00    -0.021 A 
ATOM      7  C   UNL     1      -2.070   1.011  -1.540  0.00  0.00    +0.006 A 
ATOM      8  C   UNL     1      -2.815   1.455  -2.620  0.00  0.00    +0.000 A 
ATOM      9  C   UNL     1      -2.540   2.681  -3.201  0.00  0.00    +0.001 A 
ATOM     10  C   UNL     1      -1.522   3.471  -2.710  0.00  0.00    +0.008 A 
ATOM     11  C   UNL     1      -0.766   3.033  -1.621  0.00  0.00    -0.019 A 
ATOM     12  C   UNL     1       0.323   3.873  -1.084  0.00  0.00    +0.022 C 
ATOM     13  C   UNL     1       1.257   3.317  -0.287  0.00  0.00    +0.054 C 
ATOM     14  C   UNL     1       2.145   0.951   0.120  0.00  0.00    +0.144 C 
ATOM     15  C   UNL     1       1.470  -0.362   0.565  0.00  0.00    +0.116 C 
ATOM     16  C   UNL     1       1.924  -1.468  -0.375  0.00  0.00    +0.232 C 
ATOM     17  O   UNL     1       2.883  -2.191  -0.209  0.00  0.00    -0.274 OA
ATOM     18  N   UNL     1       1.062   1.956   0.343  0.00  0.00    -0.384 NA
ATOM     19  H   UNL     1       1.090   2.151   1.351  0.00  0.00    +0.127 HD
ENDROOT
BRANCH   1  23
ATOM     20  C   UNL     1       1.766  -3.862  -4.794  0.00  0.00    +0.132 A 
ATOM     21  C   UNL     1       1.615  -4.458  -3.551  0.00  0.00    +0.048 A 
ATOM     22  C   UNL     1       1.389  -3.679  -2.434  0.00  0.00    +0.027 A 
ATOM     23  C   UNL     1       1.313  -2.298  -2.555  0.00  0.00    +0.044 A 
ATOM     24  C   UNL     1       1.458  -1.702  -3.800  0.00  0.00    +0.027 A 
ATOM     25  C   UNL     1       1.690  -2.482  -4.916  0.00  0.00    +0.048 A 
BRANCH  20  26
ATOM     26  O   UNL     1       1.989  -4.630  -5.894  0.00  0.00    -0.426 OA
BRANCH  26  28
ATOM     27  C   UNL     1       1.126  -6.253  -7.542  0.00  0.00    +0.136 C 
ATOM     28  C   UNL     1       0.933  -5.281  -6.407  0.00  0.00    +0.309 C 
ATOM     29  O   UNL     1      -0.173  -5.087  -5.959  0.00  0.00    -0.251 OA
ENDBRANCH  26  28
ENDBRANCH  20  26
ENDBRANCH   1  23
BRANCH  14  30
ATOM     30  C   UNL     1       2.829   0.749  -1.208  0.00  0.00    +0.217 C 
ATOM     31  O   UNL     1       2.335   1.202  -2.220  0.00  0.00    -0.287 OA
BRANCH  30  32
ATOM     32  C   UNL     1       4.045   0.032  -1.274  0.00  0.00    +0.172 A 
ATOM     33  C   UNL     1       4.773  -0.231  -2.417  0.00  0.00    +0.053 A 
ATOM     34  C   UNL     1       5.898  -0.962  -2.014  0.00  0.00    +0.042 A 
ATOM     35  C   UNL     1       5.813  -1.120  -0.673  0.00  0.00    +0.196 A 
ATOM     36  O   UNL     1       4.700  -0.522  -0.232  0.00  0.00    -0.460 OA
ENDBRANCH  30  32
ENDBRANCH  14  30
TORSDOF 5
