REMARK  Name = ZINC04326420
REMARK  8 active torsions:
REMARK  status: ('A' for Active; 'I' for Inactive)
REMARK    1  A    between atoms: C_1  and  N_2
REMARK    2  A    between atoms: C_3  and  C_5
REMARK    3  A    between atoms: C_9  and  N_10
REMARK    4  A    between atoms: C_11  and  C_13
REMARK    5  A    between atoms: C_16  and  S_19
REMARK    6  A    between atoms: S_19  and  N_22
REMARK    7  A    between atoms: N_22  and  C_23
REMARK    8  A    between atoms: N_22  and  C_24
REMARK                            x       y       z     vdW  Elec       q    Type
REMARK                         _______ _______ _______ _____ _____    ______ ____
ROOT
ATOM      1  N   UNL     1      -1.288   1.179   4.956  0.00  0.00    -0.275 N 
ATOM      2  C   UNL     1      -2.065   1.841   5.837  0.00  0.00    +0.249 C 
ATOM      3  O   UNL     1      -2.760   2.764   5.461  0.00  0.00    -0.270 OA
ATOM      4  H   UNL     1      -0.734   0.443   5.257  0.00  0.00    +0.156 HD
ENDROOT
BRANCH   1   9
ATOM      5  C   UNL     1      -0.558   0.999   2.575  0.00  0.00    +0.069 A 
ATOM      6  C   UNL     1      -0.732   1.580   1.257  0.00  0.00    -0.023 A 
ATOM      7  C   UNL     1      -1.601   2.615   1.194  0.00  0.00    -0.004 A 
ATOM      8  S   UNL     1      -2.179   2.821   2.855  0.00  0.00    -0.077 S 
ATOM      9  C   UNL     1      -1.283   1.552   3.622  0.00  0.00    +0.085 A 
ATOM     10  C   UNL     1      -1.979   3.405  -0.021  0.00  0.00    +0.043 C 
ATOM     11  C   UNL     1      -0.956   3.111  -1.127  0.00  0.00    +0.005 C 
ATOM     12  C   UNL     1      -0.758   1.595  -1.227  0.00  0.00    +0.005 C 
ATOM     13  C   UNL     1      -0.013   1.086   0.008  0.00  0.00    +0.037 C 
BRANCH   5  16
ATOM     14  C   UNL     1       2.551  -1.034   3.322  0.00  0.00    +0.128 C 
ATOM     15  N   UNL     1       1.643   0.094   3.104  0.00  0.00    -0.314 N 
ATOM     16  C   UNL     1       0.351  -0.131   2.793  0.00  0.00    +0.246 C 
ATOM     17  O   UNL     1      -0.061  -1.272   2.693  0.00  0.00    -0.270 OA
ATOM     18  H   UNL     1       1.971   1.004   3.184  0.00  0.00    +0.149 HD
ENDBRANCH   5  16
ENDBRANCH   1   9
BRANCH   2  19
ATOM     19  C   UNL     1      -2.071   1.444   7.261  0.00  0.00    +0.037 A 
ATOM     20  C   UNL     1      -1.278   0.380   7.695  0.00  0.00    +0.015 A 
ATOM     21  C   UNL     1      -1.284   0.018   9.027  0.00  0.00    +0.029 A 
ATOM     22  C   UNL     1      -2.083   0.699   9.928  0.00  0.00    +0.105 A 
ATOM     23  C   UNL     1      -2.875   1.751   9.503  0.00  0.00    +0.029 A 
ATOM     24  C   UNL     1      -2.874   2.127   8.176  0.00  0.00    +0.015 A 
BRANCH  22  25
ATOM     25  S   UNL     1      -2.090   0.226  11.625  0.00  0.00    +0.060 S 
ATOM     26  O   UNL     1      -0.854  -0.431  11.869  0.00  0.00    -0.153 OA
ATOM     27  O   UNL     1      -2.505   1.367  12.364  0.00  0.00    -0.153 OA
BRANCH  25  28
ATOM     28  N   UNL     1      -3.276  -0.915  11.810  0.00  0.00    -0.183 NA
ATOM     29  C   UNL     1      -2.960  -2.335  11.640  0.00  0.00    +0.131 C 
ATOM     30  C   UNL     1      -4.642  -0.503  12.144  0.00  0.00    +0.131 C 
ENDBRANCH  25  28
ENDBRANCH  22  25
ENDBRANCH   2  19
TORSDOF 5
