REMARK  Name = ZINC39949055
REMARK  10 active torsions:
REMARK  status: ('A' for Active; 'I' for Inactive)
REMARK    1  A    between atoms: C_1  and  C_2
REMARK    2  A    between atoms: C_2  and  N_3
REMARK    3  A    between atoms: N_3  and  C_4
REMARK    4  A    between atoms: N_3  and  S_6
REMARK    5  A    between atoms: C_4  and  C_5
REMARK    6  A    between atoms: S_6  and  C_9
REMARK    7  A    between atoms: C_12  and  O_28
REMARK    8  A    between atoms: C_13  and  N_15
REMARK    9  A    between atoms: C_16  and  C_17
REMARK   10  A    between atoms: C_25  and  C_27
REMARK                            x       y       z     vdW  Elec       q    Type
REMARK                         _______ _______ _______ _____ _____    ______ ____
ROOT
ATOM      1  C   UNL     1       3.218   0.606   1.484  0.00  0.00    +0.108 A 
ATOM      2  C   UNL     1       3.567   1.488   0.472  0.00  0.00    +0.032 A 
ATOM      3  C   UNL     1       4.270   2.643   0.760  0.00  0.00    +0.049 A 
ATOM      4  C   UNL     1       4.631   2.929   2.066  0.00  0.00    +0.142 A 
ATOM      5  C   UNL     1       4.279   2.039   3.097  0.00  0.00    +0.107 A 
ATOM      6  C   UNL     1       3.562   0.874   2.790  0.00  0.00    +0.060 A 
ENDROOT
BRANCH   1   7
ATOM      7  S   UNL     1       2.322  -0.861   1.097  0.00  0.00    +0.061 S 
ATOM      8  O   UNL     1       2.586  -1.786   2.143  0.00  0.00    -0.153 OA
ATOM      9  O   UNL     1       2.594  -1.155  -0.266  0.00  0.00    -0.153 OA
BRANCH   7  10
ATOM     10  N   UNL     1       0.711  -0.489   1.189  0.00  0.00    -0.177 NA
BRANCH  10  12
ATOM     11  C   UNL     1      -0.019   1.526   0.010  0.00  0.00    +0.022 C 
ATOM     12  C   UNL     1       0.002  -0.004   0.002  0.00  0.00    +0.106 C 
ENDBRANCH  10  12
BRANCH  10  13
ATOM     13  C   UNL     1      -0.006  -0.646   2.457  0.00  0.00    +0.106 C 
ATOM     14  C   UNL     1      -0.694  -2.013   2.489  0.00  0.00    +0.022 C 
ENDBRANCH  10  13
ENDBRANCH   7  10
ENDBRANCH   1   7
BRANCH   5  15
ATOM     15  N   UNL     1       4.628   2.308   4.381  0.00  0.00    -0.251 NA
ATOM     16  C   UNL     1       5.042   1.341   5.164  0.00  0.00    +0.117 C 
BRANCH  16  17
ATOM     17  C   UNL     1       5.403   1.619   6.493  0.00  0.00    +0.002 C 
ATOM     18  C   UNL     1       5.373   2.853   7.131  0.00  0.00    +0.005 A 
ATOM     19  C   UNL     1       5.001   4.146   6.696  0.00  0.00    +0.010 A 
ATOM     20  C   UNL     1       5.075   5.192   7.555  0.00  0.00    +0.001 A 
ATOM     21  C   UNL     1       5.513   5.029   8.875  0.00  0.00    +0.002 A 
ATOM     22  C   UNL     1       5.886   3.824   9.362  0.00  0.00    +0.026 A 
ATOM     23  C   UNL     1       5.836   2.676   8.521  0.00  0.00    +0.043 A 
ATOM     24  N   UNL     1       6.138   1.419   8.748  0.00  0.00    -0.377 N 
ATOM     25  C   UNL     1       5.899   0.637   7.531  0.00  0.00    +0.109 C 
ATOM     26  C   UNL     1       4.839  -0.435   7.790  0.00  0.00    +0.035 C 
ATOM     27  H   UNL     1       6.464   1.063   9.589  0.00  0.00    +0.160 HD
ENDBRANCH  16  17
ENDBRANCH   5  15
BRANCH   4  28
ATOM     28  O   UNL     1       5.322   4.062   2.350  0.00  0.00    -0.505 OA
ATOM     29  H   UNL     1       4.762   4.825   2.547  0.00  0.00    +0.292 HD
ENDBRANCH   4  28
TORSDOF 7
