REMARK  Name = ZINC58636855
REMARK  3 active torsions:
REMARK  status: ('A' for Active; 'I' for Inactive)
REMARK    1  A    between atoms: N_4  and  C_6
REMARK    2  A    between atoms: C_7  and  C_18
REMARK    3  A    between atoms: N_10  and  C_11
REMARK                            x       y       z     vdW  Elec       q    Type
REMARK                         _______ _______ _______ _____ _____    ______ ____
ROOT
ATOM      1  C   UNL     1       1.262  -2.226  -0.507  0.00  0.00    +0.153 A 
ATOM      2  C   UNL     1       1.265  -2.768   0.773  0.00  0.00    +0.099 A 
ATOM      3  C   UNL     1       2.507  -3.421   0.945  0.00  0.00    +0.150 A 
ATOM      4  N   UNL     1       3.196  -3.280  -0.153  0.00  0.00    -0.172 NA
ATOM      5  N   UNL     1       2.444  -2.545  -1.076  0.00  0.00    -0.215 N 
ENDROOT
BRANCH   2   6
ATOM      6  C   UNL     1       0.181  -2.678   1.762  0.00  0.00    +0.252 C 
ATOM      7  O   UNL     1      -0.319  -1.600   2.021  0.00  0.00    -0.270 OA
ATOM      8  N   UNL     1      -0.260  -3.791   2.382  0.00  0.00    -0.294 N 
ATOM      9  C   UNL     1       0.396  -5.087   2.157  0.00  0.00    +0.108 C 
ATOM     10  C   UNL     1      -0.659  -6.109   1.721  0.00  0.00    +0.019 C 
ATOM     11  C   UNL     1      -1.791  -6.143   2.750  0.00  0.00    +0.007 C 
ATOM     12  C   UNL     1      -2.445  -4.764   2.833  0.00  0.00    +0.010 C 
ATOM     13  C   UNL     1      -1.406  -3.736   3.304  0.00  0.00    +0.079 C 
ATOM     14  C   UNL     1      -0.920  -4.101   4.709  0.00  0.00    +0.023 C 
ATOM     15  C   UNL     1      -2.105  -4.117   5.676  0.00  0.00    +0.002 C 
ATOM     16  C   UNL     1      -3.124  -5.161   5.213  0.00  0.00    +0.000 C 
ATOM     17  C   UNL     1      -3.612  -4.794   3.817  0.00  0.00    +0.005 C 
ENDBRANCH   2   6
BRANCH   5  18
ATOM     18  C   UNL     1       2.851  -2.196  -2.372  0.00  0.00    +0.068 A 
ATOM     19  C   UNL     1       1.920  -2.138  -3.400  0.00  0.00    +0.030 A 
ATOM     20  C   UNL     1       2.323  -1.794  -4.676  0.00  0.00    +0.040 A 
ATOM     21  C   UNL     1       3.654  -1.507  -4.929  0.00  0.00    +0.124 A 
ATOM     22  C   UNL     1       4.584  -1.565  -3.905  0.00  0.00    +0.040 A 
ATOM     23  C   UNL     1       4.184  -1.903  -2.626  0.00  0.00    +0.030 A 
ATOM     24  F   UNL     1       4.046  -1.171  -6.178  0.00  0.00    -0.205 F 
ENDBRANCH   5  18
BRANCH   1  28
ATOM     25  C   UNL     1      -1.776  -0.876  -1.732  0.00  0.00    +0.019 A 
ATOM     26  C   UNL     1      -0.839   0.061  -2.213  0.00  0.00    +0.019 A 
ATOM     27  C   UNL     1       0.382  -0.343  -1.808  0.00  0.00    +0.092 A 
ATOM     28  N   UNL     1       0.234  -1.498  -1.093  0.00  0.00    -0.307 N 
ATOM     29  C   UNL     1      -1.095  -1.819  -1.052  0.00  0.00    +0.092 A 
ENDBRANCH   1  28
TORSDOF 3
