REMARK  Name = ZINC33699331
REMARK  7 active torsions:
REMARK  status: ('A' for Active; 'I' for Inactive)
REMARK    1  A    between atoms: C_4  and  O_37
REMARK    2  A    between atoms: C_5  and  C_7
REMARK    3  A    between atoms: N_15  and  C_18
REMARK    4  A    between atoms: C_24  and  C_26
REMARK    5  A    between atoms: C_24  and  C_34
REMARK    6  A    between atoms: C_26  and  C_27
REMARK    7  A    between atoms: C_30  and  O_33
REMARK                            x       y       z     vdW  Elec       q    Type
REMARK                         _______ _______ _______ _____ _____    ______ ____
ROOT
ATOM      1  C   UNL     1      -3.920   4.224   4.743  0.00  0.00    -0.023 C 
ATOM      2  C   UNL     1      -2.811   4.064   3.789  0.00  0.00    +0.077 C 
ATOM      3  C   UNL     1      -1.548   4.267   4.717  0.00  0.00    +0.086 C 
ATOM      4  C   UNL     1      -0.544   4.351   3.599  0.00  0.00    +0.225 C 
ATOM      5  O   UNL     1       0.456   5.035   3.566  0.00  0.00    -0.275 OA
ATOM      6  N   UNL     1      -0.992   3.499   2.630  0.00  0.00    -0.239 N 
ATOM      7  C   UNL     1      -2.306   3.140   2.804  0.00  0.00    +0.225 C 
ATOM      8  O   UNL     1      -2.908   2.245   2.252  0.00  0.00    -0.275 OA
ATOM      9  C   UNL     1      -2.017   5.543   5.417  0.00  0.00    +0.052 C 
ATOM     10  N   UNL     1      -3.498   5.409   5.542  0.00  0.00    +0.396 N 
ATOM     11  H   UNL     1      -3.996   6.310   5.152  0.00  0.00    -0.083 HD
ATOM     12  H   UNL     1      -3.780   5.262   6.595  0.00  0.00    -0.083 HD
ENDROOT
BRANCH   1  17
ATOM     13  C   UNL     1      -6.806   6.017   3.096  0.00  0.00    +0.000 A 
ATOM     14  C   UNL     1      -7.602   4.959   2.698  0.00  0.00    +0.004 A 
ATOM     15  C   UNL     1      -7.209   3.661   2.959  0.00  0.00    +0.045 A 
ATOM     16  C   UNL     1      -6.014   3.419   3.623  0.00  0.00    +0.118 A 
ATOM     17  C   UNL     1      -5.218   4.482   4.022  0.00  0.00    -0.019 A 
ATOM     18  C   UNL     1      -5.618   5.779   3.762  0.00  0.00    +0.005 A 
BRANCH  16  19
ATOM     19  O   UNL     1      -5.626   2.143   3.882  0.00  0.00    -0.507 OA
ATOM     20  H   UNL     1      -4.679   1.952   4.408  0.00  0.00    +0.292 HD
ENDBRANCH  16  19
ENDBRANCH   1  17
BRANCH   6  21
ATOM     21  C   UNL     1      -0.159   3.015   1.526  0.00  0.00    +0.084 C 
ATOM     22  C   UNL     1      -0.067   1.489   1.587  0.00  0.00    +0.023 C 
ATOM     23  C   UNL     1       0.803   0.984   0.435  0.00  0.00    +0.002 C 
ATOM     24  C   UNL     1       0.179   1.405  -0.897  0.00  0.00    +0.000 C 
ATOM     25  C   UNL     1       0.088   2.931  -0.958  0.00  0.00    +0.002 C 
ATOM     26  C   UNL     1      -0.782   3.436   0.194  0.00  0.00    +0.023 C 
ENDBRANCH   6  21
BRANCH   9  27
ATOM     27  C   UNL     1      -1.670   6.751   4.585  0.00  0.00    +0.347 C 
ATOM     28  O   UNL     1      -0.630   7.336   4.774  0.00  0.00    -0.248 OA
ATOM     29  O   UNL     1      -2.517   7.177   3.635  0.00  0.00    -0.248 OA
ENDBRANCH   9  27
BRANCH   9  30
ATOM     30  C   UNL     1      -1.377   5.652   6.803  0.00  0.00    +0.035 C 
BRANCH  30  31
ATOM     31  C   UNL     1      -1.942   6.849   7.524  0.00  0.00    -0.048 A 
ATOM     32  C   UNL     1      -1.328   8.081   7.404  0.00  0.00    +0.007 A 
ATOM     33  C   UNL     1      -1.847   9.181   8.060  0.00  0.00    +0.045 A 
ATOM     34  C   UNL     1      -2.980   9.044   8.849  0.00  0.00    +0.117 A 
ATOM     35  C   UNL     1      -3.591   7.805   8.973  0.00  0.00    +0.045 A 
ATOM     36  C   UNL     1      -3.071   6.710   8.311  0.00  0.00    +0.007 A 
BRANCH  34  37
ATOM     37  O   UNL     1      -3.490  10.123   9.500  0.00  0.00    -0.507 OA
ATOM     38  H   UNL     1      -4.388  10.014  10.125  0.00  0.00    +0.292 HD
ENDBRANCH  34  37
ENDBRANCH  30  31
ENDBRANCH   9  30
TORSDOF 7
