REMARK  Name = ZINC20594251
REMARK  6 active torsions:
REMARK  status: ('A' for Active; 'I' for Inactive)
REMARK    1  A    between atoms: C_1  and  C_2
REMARK    2  A    between atoms: C_2  and  C_4
REMARK    3  A    between atoms: C_16  and  C_20
REMARK    4  A    between atoms: C_20  and  C_21
REMARK    5  A    between atoms: C_20  and  C_22
REMARK    6  A    between atoms: C_20  and  C_23
REMARK                            x       y       z     vdW  Elec       q    Type
REMARK                         _______ _______ _______ _____ _____    ______ ____
ROOT
ATOM      1  C   UNL     1       0.731  -0.503   1.223  0.00  0.00    +0.129 A 
ATOM      2  N   UNL     1       2.053  -0.799   1.136  0.00  0.00    -0.309 N 
ATOM      3  H   UNL     1       2.511  -0.685   0.288  0.00  0.00    +0.170 HD
ATOM      4  C   UNL     1       2.743  -1.247   2.202  0.00  0.00    +0.260 A 
ATOM      5  O   UNL     1       3.929  -1.508   2.107  0.00  0.00    -0.267 OA
ATOM      6  C   UNL     1       2.058  -1.412   3.450  0.00  0.00    +0.075 A 
ATOM      7  C   UNL     1       2.596  -1.878   4.727  0.00  0.00    -0.023 A 
ATOM      8  C   UNL     1       1.737  -1.946   5.766  0.00  0.00    -0.004 A 
ATOM      9  S   UNL     1       0.182  -1.401   5.112  0.00  0.00    -0.073 S 
ATOM     10  C   UNL     1       0.693  -1.082   3.442  0.00  0.00    +0.116 A 
ATOM     11  N   UNL     1       0.081  -0.639   2.348  0.00  0.00    -0.225 NA
ATOM     12  C   UNL     1       2.038  -2.386   7.166  0.00  0.00    +0.046 C 
ATOM     13  C   UNL     1       3.562  -2.401   7.352  0.00  0.00    -0.000 C 
ATOM     14  C   UNL     1       4.195  -3.128   6.162  0.00  0.00    +0.009 C 
ATOM     15  C   UNL     1       4.060  -2.275   4.900  0.00  0.00    +0.037 C 
ENDROOT
BRANCH  13  16
ATOM     16  C   UNL     1       3.914  -3.130   8.649  0.00  0.00    -0.035 C 
ATOM     17  C   UNL     1       3.396  -4.569   8.582  0.00  0.00    +0.011 C 
ATOM     18  C   UNL     1       5.433  -3.143   8.832  0.00  0.00    +0.011 C 
ATOM     19  C   UNL     1       3.264  -2.409   9.832  0.00  0.00    +0.011 C 
ENDBRANCH  13  16
BRANCH   1  21
ATOM     20  C   UNL     1      -0.019   1.526   0.010  0.00  0.00    +0.033 C 
ATOM     21  C   UNL     1       0.002  -0.004   0.002  0.00  0.00    +0.143 C 
ATOM     22 CL   UNL     1      -1.689  -0.628   0.015  0.00  0.00    -0.114 Cl
ENDBRANCH   1  21
TORSDOF 2
