REMARK  Name = ZINC59332898
REMARK  4 active torsions:
REMARK  status: ('A' for Active; 'I' for Inactive)
REMARK    1  A    between atoms: C_1  and  C_2
REMARK    2  A    between atoms: C_2  and  C_3
REMARK    3  A    between atoms: C_4  and  C_8
REMARK    4  A    between atoms: C_14  and  C_17
REMARK                            x       y       z     vdW  Elec       q    Type
REMARK                         _______ _______ _______ _____ _____    ______ ____
ROOT
ATOM      1  C   UNL     1      -1.381  -0.593  -2.777  0.00  0.00    +0.257 C 
ATOM      2  O   UNL     1      -2.191  -0.371  -1.897  0.00  0.00    -0.269 OA
ATOM      3  N   UNL     1      -1.801  -0.803  -4.041  0.00  0.00    -0.296 N 
ATOM      4  C   UNL     1      -0.866  -1.277  -5.070  0.00  0.00    +0.108 C 
ATOM      5  C   UNL     1      -1.450  -2.533  -5.725  0.00  0.00    +0.020 C 
ATOM      6  C   UNL     1      -2.856  -2.226  -6.246  0.00  0.00    +0.016 C 
ATOM      7  C   UNL     1      -3.759  -1.827  -5.076  0.00  0.00    +0.093 C 
ATOM      8  C   UNL     1      -3.203  -0.569  -4.413  0.00  0.00    +0.120 C 
ENDROOT
BRANCH   7   9
ATOM      9  C   UNL     1      -5.151  -1.557  -5.585  0.00  0.00    +0.223 C 
ATOM     10  O   UNL     1      -5.397  -1.672  -6.767  0.00  0.00    -0.275 OA
ATOM     11  N   UNL     1      -6.122  -1.188  -4.727  0.00  0.00    -0.270 N 
ATOM     12  C   UNL     1      -7.432  -1.036  -5.180  0.00  0.00    +0.125 A 
ATOM     13  C   UNL     1      -8.448  -0.764  -4.271  0.00  0.00    +0.045 A 
ATOM     14  C   UNL     1      -9.744  -0.616  -4.734  0.00  0.00    +0.020 A 
ATOM     15  C   UNL     1      -9.980  -0.746  -6.096  0.00  0.00    +0.036 A 
ATOM     16  C   UNL     1      -8.922  -1.017  -6.943  0.00  0.00    +0.128 A 
ATOM     17  N   UNL     1      -7.696  -1.148  -6.472  0.00  0.00    -0.239 NA
ATOM     18 BR   UNL     1     -11.730  -0.554  -6.786  0.00  0.00    -0.049 Br
ATOM     19  H   UNL     1      -5.910  -1.027  -3.795  0.00  0.00    +0.156 HD
ENDBRANCH   7   9
BRANCH   1  21
ATOM     20  C   UNL     1       0.702  -0.594  -1.233  0.00  0.00    +0.084 A 
ATOM     21  C   UNL     1       0.056  -0.631  -2.463  0.00  0.00    +0.117 A 
ATOM     22  S   UNL     1       1.466  -0.737  -3.553  0.00  0.00    +0.041 S 
ATOM     23  N   UNL     1       2.632  -0.725  -2.427  0.00  0.00    -0.110 NA
ATOM     24  N   UNL     1       2.010  -0.641  -1.306  0.00  0.00    -0.145 NA
BRANCH  20  26
ATOM     25  C   UNL     1      -0.242   0.969   0.445  0.00  0.00    +0.010 C 
ATOM     26  C   UNL     1      -0.039  -0.502   0.076  0.00  0.00    +0.055 C 
ENDBRANCH  20  26
ENDBRANCH   1  21
TORSDOF 3
