REMARK  Name = ZINC06624264
REMARK  5 active torsions:
REMARK  status: ('A' for Active; 'I' for Inactive)
REMARK    1  A    between atoms: C_1  and  C_2
REMARK    2  A    between atoms: C_6  and  O_33
REMARK    3  A    between atoms: C_12  and  C_13
REMARK    4  A    between atoms: C_13  and  C_14
REMARK    5  A    between atoms: C_14  and  C_15
REMARK                            x       y       z     vdW  Elec       q    Type
REMARK                         _______ _______ _______ _____ _____    ______ ____
ROOT
ATOM      1  C   UNL     1       1.182   8.239   1.476  0.00  0.00    +0.101 C 
ENDROOT
BRANCH   1   2
ATOM      2  C   UNL     1       1.224   9.746   1.484  0.00  0.00    +0.216 C 
ATOM      3  O   UNL     1       1.231  10.357   0.436  0.00  0.00    -0.276 OA
ATOM      4  N   UNL     1       1.254  10.413   2.654  0.00  0.00    -0.301 N 
ATOM      5  C   UNL     1       1.302  11.880   2.681  0.00  0.00    +0.113 C 
ATOM      6  C   UNL     1       2.414  12.361   3.594  0.00  0.00    +0.027 C 
ATOM      7  C   UNL     1       2.351  11.669   4.956  0.00  0.00    +0.018 C 
ATOM      8  C   UNL     1       2.473  10.159   4.734  0.00  0.00    +0.054 C 
ATOM      9  C   UNL     1       1.246   9.687   3.935  0.00  0.00    +0.117 C 
ATOM     10  C   UNL     1       3.701   9.862   3.906  0.00  0.00    +0.027 A 
ATOM     11  C   UNL     1       4.262   8.630   4.042  0.00  0.00    +0.022 A 
ATOM     12  C   UNL     1       5.362   8.258   3.262  0.00  0.00    +0.007 A 
ATOM     13  C   UNL     1       5.850   9.144   2.347  0.00  0.00    +0.070 A 
ATOM     14  C   UNL     1       5.252  10.406   2.234  0.00  0.00    +0.251 A 
ATOM     15  O   UNL     1       5.649  11.188   1.385  0.00  0.00    -0.268 OA
ATOM     16  N   UNL     1       4.235  10.768   3.055  0.00  0.00    -0.312 N 
ATOM     17  C   UNL     1       3.785  12.158   2.975  0.00  0.00    +0.130 C 
ENDBRANCH   1   2
BRANCH   1  18
ATOM     18  C   UNL     1       1.154   7.737   0.031  0.00  0.00    +0.052 C 
BRANCH  18  30
ATOM     19  C   UNL     1      -1.379   6.350   0.048  0.00  0.00    +0.045 C 
ATOM     20  C   UNL     1      -0.082   5.583   0.031  0.00  0.00    -0.030 A 
ATOM     21  C   UNL     1      -0.075   4.119   0.024  0.00  0.00    +0.021 A 
ATOM     22  C   UNL     1      -1.271   3.392   0.031  0.00  0.00    +0.015 A 
ATOM     23  C   UNL     1      -1.236   2.028   0.019  0.00  0.00    +0.046 A 
ATOM     24  C   UNL     1      -0.016   1.353   0.009  0.00  0.00    +0.120 A 
ATOM     25  C   UNL     1       1.177   2.056   0.002  0.00  0.00    +0.092 A 
ATOM     26  C   UNL     1       1.160   3.443   0.009  0.00  0.00    +0.143 A 
ATOM     27  O   UNL     1       2.311   4.148   0.001  0.00  0.00    -0.422 OA
ATOM     28  C   UNL     1       2.312   5.490   0.009  0.00  0.00    +0.341 A 
ATOM     29  O   UNL     1       3.375   6.083   0.002  0.00  0.00    -0.245 OA
ATOM     30  C   UNL     1       1.112   6.231   0.023  0.00  0.00    +0.041 A 
BRANCH  24  31
ATOM     31  O   UNL     1       0.002  -0.004   0.002  0.00  0.00    -0.507 OA
ATOM     32  H   UNL     1       0.016  -0.402   0.883  0.00  0.00    +0.292 HD
ENDBRANCH  24  31
ENDBRANCH  18  30
ENDBRANCH   1  18
TORSDOF 4
