REMARK  Name = ZINC49014130
REMARK  5 active torsions:
REMARK  status: ('A' for Active; 'I' for Inactive)
REMARK    1  A    between atoms: C_1  and  C_2
REMARK    2  A    between atoms: C_7  and  N_10
REMARK    3  A    between atoms: N_10  and  C_11
REMARK    4  A    between atoms: N_10  and  S_12
REMARK    5  A    between atoms: S_12  and  C_15
REMARK                            x       y       z     vdW  Elec       q    Type
REMARK                         _______ _______ _______ _____ _____    ______ ____
ROOT
ATOM      1  S   UNL     1       0.690  -3.495   3.512  0.00  0.00    +0.064 S 
ATOM      2  O   UNL     1       1.371  -3.342   4.750  0.00  0.00    -0.153 OA
ATOM      3  O   UNL     1      -0.699  -3.231   3.369  0.00  0.00    -0.153 OA
ENDROOT
BRANCH   1   4
ATOM      4  C   UNL     1       0.941  -5.163   3.002  0.00  0.00    +0.142 A 
ATOM      5  C   UNL     1       0.055  -5.779   2.132  0.00  0.00    +0.144 A 
ATOM      6  N   UNL     1       0.275  -7.033   1.771  0.00  0.00    -0.224 NA
ATOM      7  C   UNL     1       1.321  -7.694   2.228  0.00  0.00    +0.223 A 
ATOM      8  N   UNL     1       2.184  -7.139   3.058  0.00  0.00    -0.224 NA
ATOM      9  C   UNL     1       2.031  -5.887   3.457  0.00  0.00    +0.144 A 
ATOM     10 CL   UNL     1       1.568  -9.338   1.726  0.00  0.00    -0.041 Cl
ENDBRANCH   1   4
BRANCH   1  11
ATOM     11  N   UNL     1       1.471  -2.526   2.420  0.00  0.00    -0.176 NA
ATOM     12  C   UNL     1       2.871  -2.154   2.640  0.00  0.00    +0.132 C 
BRANCH  11  18
ATOM     13  C   UNL     1      -0.019   1.526   0.010  0.00  0.00    +0.007 C 
ATOM     14  C   UNL     1       0.002  -0.004   0.002  0.00  0.00    -0.013 C 
ATOM     15  C   UNL     1       0.718  -0.497  -1.257  0.00  0.00    +0.003 C 
ATOM     16  C   UNL     1       0.739  -2.027  -1.265  0.00  0.00    +0.002 C 
ATOM     17  C   UNL     1       1.479  -2.534  -0.026  0.00  0.00    +0.020 C 
ATOM     18  C   UNL     1       0.763  -2.041   1.233  0.00  0.00    +0.080 C 
ATOM     19  C   UNL     1       0.742  -0.511   1.242  0.00  0.00    +0.024 C 
ENDBRANCH  11  18
ENDBRANCH   1  11
TORSDOF 3
