REMARK  Name = ZINC02676364
REMARK  6 active torsions:
REMARK  status: ('A' for Active; 'I' for Inactive)
REMARK    1  A    between atoms: C_4  and  C_7
REMARK    2  A    between atoms: C_7  and  O_9
REMARK    3  A    between atoms: O_9  and  C_10
REMARK    4  A    between atoms: C_13  and  C_16
REMARK    5  A    between atoms: N_17  and  N_18
REMARK    6  A    between atoms: C_19  and  C_21
REMARK                            x       y       z     vdW  Elec       q    Type
REMARK                         _______ _______ _______ _____ _____    ______ ____
ROOT
ATOM      1  C   UNL     1       5.945  -0.795  -0.094  0.00  0.00    +0.132 A 
ATOM      2  C   UNL     1       5.789  -2.173  -0.168  0.00  0.00    +0.047 A 
ATOM      3  C   UNL     1       6.896  -2.992  -0.224  0.00  0.00    +0.013 A 
ATOM      4  C   UNL     1       8.177  -2.434  -0.195  0.00  0.00    -0.005 A 
ATOM      5  C   UNL     1       8.329  -1.047  -0.115  0.00  0.00    +0.013 A 
ATOM      6  C   UNL     1       7.216  -0.236  -0.065  0.00  0.00    +0.047 A 
ENDROOT
BRANCH   4   7
ATOM      7  C   UNL     1       9.364  -3.305  -0.249  0.00  0.00    +0.138 C 
ATOM      8  N   UNL     1       9.221  -4.594  -0.323  0.00  0.00    -0.187 NA
BRANCH   8   9
ATOM      9  N   UNL     1      10.350  -5.422  -0.374  0.00  0.00    -0.203 N 
ATOM     10  C   UNL     1      10.201  -6.760  -0.452  0.00  0.00    +0.263 C 
ATOM     11  O   UNL     1       9.087  -7.247  -0.476  0.00  0.00    -0.268 OA
ATOM     12  H   UNL     1      11.238  -5.033  -0.354  0.00  0.00    +0.178 HD
BRANCH  10  13
ATOM     13  C   UNL     1      11.391  -7.633  -0.506  0.00  0.00    +0.038 A 
ATOM     14  C   UNL     1      12.671  -7.076  -0.483  0.00  0.00    +0.014 A 
ATOM     15  C   UNL     1      13.778  -7.898  -0.529  0.00  0.00    +0.016 A 
ATOM     16  C   UNL     1      13.622  -9.271  -0.608  0.00  0.00    +0.018 A 
ATOM     17  C   UNL     1      12.355  -9.829  -0.636  0.00  0.00    +0.016 A 
ATOM     18  C   UNL     1      11.240  -9.019  -0.586  0.00  0.00    +0.014 A 
ATOM     19 BR   UNL     1      15.145 -10.390  -0.677  0.00  0.00    -0.050 Br
ENDBRANCH  10  13
ENDBRANCH   8   9
ENDBRANCH   4   7
BRANCH   1  20
ATOM     20  O   UNL     1       4.850   0.009  -0.045  0.00  0.00    -0.422 OA
BRANCH  20  21
ATOM     21  C   UNL     1       4.514   0.654  -1.179  0.00  0.00    +0.344 C 
ATOM     22  O   UNL     1       5.228   0.575  -2.158  0.00  0.00    -0.245 OA
BRANCH  21  26
ATOM     23  C   UNL     1       0.956   2.968  -1.328  0.00  0.00    +0.000 A 
ATOM     24  C   UNL     1       1.299   2.306  -0.163  0.00  0.00    +0.001 A 
ATOM     25  C   UNL     1       2.453   1.553  -0.107  0.00  0.00    +0.015 A 
ATOM     26  C   UNL     1       3.276   1.459  -1.231  0.00  0.00    +0.059 A 
ATOM     27  C   UNL     1       2.924   2.129  -2.404  0.00  0.00    +0.015 A 
ATOM     28  C   UNL     1       1.767   2.879  -2.446  0.00  0.00    +0.001 A 
ENDBRANCH  21  26
ENDBRANCH  20  21
ENDBRANCH   1  20
TORSDOF 6
