REMARK  Name = ZINC15669890
REMARK  4 active torsions:
REMARK  status: ('A' for Active; 'I' for Inactive)
REMARK    1  A    between atoms: C_1  and  C_2
REMARK    2  A    between atoms: C_5  and  N_8
REMARK    3  A    between atoms: C_11  and  C_18
REMARK    4  A    between atoms: C_19  and  C_21
REMARK                            x       y       z     vdW  Elec       q    Type
REMARK                         _______ _______ _______ _____ _____    ______ ____
ROOT
ATOM      1  N   UNL     1      -0.285   5.822   0.037  0.00  0.00    -0.216 N 
ATOM      2  C   UNL     1       0.011   4.496   0.027  0.00  0.00    +0.145 A 
ATOM      3  C   UNL     1      -1.205   3.810   0.035  0.00  0.00    +0.044 A 
ATOM      4  C   UNL     1      -1.208   2.396   0.021  0.00  0.00    -0.014 A 
ATOM      5  C   UNL     1      -0.021   1.732   0.012  0.00  0.00    +0.109 A 
ATOM      6  C   UNL     1       1.188   2.452   0.004  0.00  0.00    +0.269 A 
ATOM      7  O   UNL     1       2.248   1.849  -0.010  0.00  0.00    -0.266 OA
ATOM      8  N   UNL     1       1.189   3.799   0.011  0.00  0.00    -0.306 N 
ATOM      9  H   UNL     1       2.031   4.279   0.006  0.00  0.00    +0.170 HD
ATOM     10 CL   UNL     1       0.002  -0.004   0.002  0.00  0.00    -0.078 Cl
ATOM     11  C   UNL     1      -2.509   1.635   0.023  0.00  0.00    +0.046 C 
ATOM     12  C   UNL     1      -2.232   4.783   0.050  0.00  0.00    +0.070 A 
ATOM     13  N   UNL     1      -1.678   5.962   0.051  0.00  0.00    -0.169 NA
ATOM     14  C   UNL     1      -3.713   4.503   0.063  0.00  0.00    +0.068 C 
ENDROOT
BRANCH   1  19
ATOM     15  C   UNL     1       3.481  10.068   0.026  0.00  0.00    +0.044 C 
ATOM     16  C   UNL     1       2.481   8.940   0.029  0.00  0.00    -0.050 A 
ATOM     17  C   UNL     1       1.283   9.080  -0.646  0.00  0.00    +0.005 A 
ATOM     18  C   UNL     1       0.364   8.048  -0.646  0.00  0.00    +0.028 A 
ATOM     19  C   UNL     1       0.645   6.870   0.034  0.00  0.00    +0.068 A 
ATOM     20  C   UNL     1       1.847   6.736   0.716  0.00  0.00    +0.028 A 
ATOM     21  C   UNL     1       2.764   7.769   0.707  0.00  0.00    +0.005 A 
ENDBRANCH   1  19
TORSDOF 1
