REMARK  Name = ZINC03170224
REMARK  9 active torsions:
REMARK  status: ('A' for Active; 'I' for Inactive)
REMARK    1  A    between atoms: C_1  and  C_2
REMARK    2  A    between atoms: C_2  and  C_4
REMARK    3  A    between atoms: C_2  and  O_16
REMARK    4  A    between atoms: N_6  and  N_7
REMARK    5  A    between atoms: C_8  and  C_9
REMARK    6  A    between atoms: O_16  and  C_17
REMARK    7  A    between atoms: C_20  and  O_23
REMARK    8  A    between atoms: O_23  and  C_24
REMARK    9  A    between atoms: C_24  and  C_25
REMARK                            x       y       z     vdW  Elec       q    Type
REMARK                         _______ _______ _______ _____ _____    ______ ____
ROOT
ATOM      1  C   UNL     1       2.359  10.429  -0.093  0.00  0.00    +0.062 C 
ATOM      2  C   UNL     1       3.569  10.122   0.791  0.00  0.00    +0.257 C 
ENDROOT
BRANCH   2   3
ATOM      3  C   UNL     1       3.150   9.213   1.918  0.00  0.00    +0.273 C 
ATOM      4  O   UNL     1       3.666   8.121   2.040  0.00  0.00    -0.270 OA
ATOM      5  N   UNL     1       2.203   9.612   2.790  0.00  0.00    -0.204 N 
ATOM      6  H   UNL     1       1.792  10.485   2.692  0.00  0.00    +0.177 HD
BRANCH   5   7
ATOM      7  N   UNL     1       1.814   8.767   3.837  0.00  0.00    -0.188 NA
ATOM      8  C   UNL     1       0.902   9.152   4.676  0.00  0.00    +0.139 C 
BRANCH   8   9
ATOM      9  C   UNL     1       0.492   8.262   5.779  0.00  0.00    +0.013 A 
ATOM     10  C   UNL     1      -0.489   8.673   6.684  0.00  0.00    +0.011 A 
ATOM     11  C   UNL     1      -0.868   7.836   7.713  0.00  0.00    +0.001 A 
ATOM     12  C   UNL     1      -0.275   6.593   7.853  0.00  0.00    +0.001 A 
ATOM     13  C   UNL     1       0.693   6.177   6.957  0.00  0.00    +0.020 A 
ATOM     14  C   UNL     1       1.083   7.004   5.923  0.00  0.00    +0.050 A 
ATOM     15 CL   UNL     1       2.304   6.483   4.804  0.00  0.00    -0.083 Cl
ENDBRANCH   8   9
ENDBRANCH   5   7
ENDBRANCH   2   3
BRANCH   2  16
ATOM     16  O   UNL     1       4.579   9.479   0.011  0.00  0.00    -0.480 OA
BRANCH  16  17
ATOM     17  C   UNL     1       5.424  10.282  -0.689  0.00  0.00    +0.122 A 
ATOM     18  C   UNL     1       6.499   9.732  -1.371  0.00  0.00    +0.049 A 
ATOM     19  C   UNL     1       7.355  10.547  -2.085  0.00  0.00    +0.049 A 
ATOM     20  C   UNL     1       7.144  11.918  -2.112  0.00  0.00    +0.121 A 
ATOM     21  C   UNL     1       6.072  12.469  -1.426  0.00  0.00    +0.049 A 
ATOM     22  C   UNL     1       5.214  11.653  -0.716  0.00  0.00    +0.049 A 
BRANCH  20  23
ATOM     23  O   UNL     1       7.989  12.722  -2.812  0.00  0.00    -0.487 OA
BRANCH  23  24
ATOM     24  C   UNL     1       9.072  12.086  -3.495  0.00  0.00    +0.264 C 
BRANCH  24  25
ATOM     25  C   UNL     1       9.894  13.127  -4.210  0.00  0.00    -0.010 A 
ATOM     26  C   UNL     1       9.588  13.475  -5.513  0.00  0.00    +0.007 A 
ATOM     27  C   UNL     1      10.339  14.434  -6.167  0.00  0.00    +0.000 A 
ATOM     28  C   UNL     1      11.403  15.036  -5.522  0.00  0.00    +0.000 A 
ATOM     29  C   UNL     1      11.713  14.684  -4.222  0.00  0.00    +0.000 A 
ATOM     30  C   UNL     1      10.958  13.730  -3.566  0.00  0.00    +0.007 A 
ENDBRANCH  24  25
ENDBRANCH  23  24
ENDBRANCH  20  23
ENDBRANCH  16  17
ENDBRANCH   2  16
TORSDOF 8
