REMARK  Name = ZINC04997562
REMARK  3 active torsions:
REMARK  status: ('A' for Active; 'I' for Inactive)
REMARK    1  A    between atoms: C_11  and  S_13
REMARK    2  A    between atoms: S_13  and  C_14
REMARK    3  A    between atoms: C_14  and  C_15
REMARK                            x       y       z     vdW  Elec       q    Type
REMARK                         _______ _______ _______ _____ _____    ______ ____
ROOT
ATOM      1  C   UNL     1      -0.017   1.363   0.009  0.00  0.00    +0.001 A 
ATOM      2  C   UNL     1       1.168   2.089   0.002  0.00  0.00    +0.002 A 
ATOM      3  C   UNL     1       2.379   1.458  -0.013  0.00  0.00    +0.028 A 
ATOM      4  C   UNL     1       2.432   0.061  -0.021  0.00  0.00    +0.079 A 
ATOM      5  C   UNL     1       1.224  -0.674  -0.013  0.00  0.00    +0.065 A 
ATOM      6  C   UNL     1       0.002  -0.004   0.002  0.00  0.00    +0.015 A 
ATOM      7  C   UNL     1       1.305  -2.141  -0.021  0.00  0.00    +0.260 A 
ATOM      8  O   UNL     1       0.301  -2.829  -0.015  0.00  0.00    -0.267 OA
ATOM      9  N   UNL     1       2.538  -2.699  -0.036  0.00  0.00    -0.301 N 
ATOM     10  H   UNL     1       2.630  -3.664  -0.042  0.00  0.00    +0.171 HD
ATOM     11  C   UNL     1       3.654  -1.911  -0.043  0.00  0.00    +0.170 A 
ATOM     12  N   UNL     1       3.605  -0.602  -0.036  0.00  0.00    -0.223 NA
ENDROOT
BRANCH  11  13
ATOM     13  S   UNL     1       5.234  -2.693  -0.062  0.00  0.00    -0.083 S 
BRANCH  13  14
ATOM     14  C   UNL     1       6.407  -1.310  -0.066  0.00  0.00    +0.112 C 
BRANCH  14  15
ATOM     15  C   UNL     1       7.816  -1.846  -0.082  0.00  0.00    -0.037 A 
ATOM     16  C   UNL     1       8.470  -2.103   1.108  0.00  0.00    +0.005 A 
ATOM     17  C   UNL     1       9.762  -2.596   1.094  0.00  0.00    +0.015 A 
ATOM     18  C   UNL     1      10.399  -2.831  -0.111  0.00  0.00    +0.018 A 
ATOM     19  C   UNL     1       9.743  -2.574  -1.302  0.00  0.00    +0.015 A 
ATOM     20  C   UNL     1       8.450  -2.087  -1.287  0.00  0.00    +0.005 A 
ATOM     21 BR   UNL     1      12.166  -3.504  -0.131  0.00  0.00    -0.050 Br
ENDBRANCH  14  15
ENDBRANCH  13  14
ENDBRANCH  11  13
TORSDOF 3
