REMARK  Name = ZINC36629529
REMARK  9 active torsions:
REMARK  status: ('A' for Active; 'I' for Inactive)
REMARK    1  A    between atoms: C_1  and  C_2
REMARK    2  A    between atoms: C_2  and  O_3
REMARK    3  A    between atoms: O_3  and  C_4
REMARK    4  A    between atoms: C_4  and  C_6
REMARK    5  A    between atoms: C_10  and  N_11
REMARK    6  A    between atoms: C_12  and  C_14
REMARK    7  A    between atoms: N_29  and  C_32
REMARK    8  A    between atoms: C_32  and  C_33
REMARK    9  A    between atoms: C_32  and  C_34
REMARK                            x       y       z     vdW  Elec       q    Type
REMARK                         _______ _______ _______ _____ _____    ______ ____
ROOT
ATOM      1  C   UNL     1      -2.908  -2.348   0.044  0.00  0.00    +0.091 A 
ATOM      2  C   UNL     1      -3.595  -2.662  -1.193  0.00  0.00    -0.025 A 
ATOM      3  C   UNL     1      -4.825  -3.199  -1.025  0.00  0.00    -0.021 A 
ATOM      4  S   UNL     1      -5.042  -3.279   0.726  0.00  0.00    -0.079 S 
ATOM      5  C   UNL     1      -3.574  -2.635   1.228  0.00  0.00    +0.086 A 
ATOM      6  C   UNL     1      -5.762  -3.616  -2.115  0.00  0.00    -0.035 C 
ATOM      7  N   UNL     1      -5.305  -3.007  -3.377  0.00  0.00    +0.384 N 
ATOM      8  C   UNL     1      -3.875  -3.279  -3.568  0.00  0.00    -0.073 C 
ATOM      9  C   UNL     1      -3.042  -2.438  -2.594  0.00  0.00    +0.018 C 
ATOM     10  H   UNL     1      -5.456  -2.010  -3.342  0.00  0.00    -0.081 HD
ENDROOT
BRANCH   5  11
ATOM     11  N   UNL     1      -3.131  -2.434   2.525  0.00  0.00    -0.279 N 
ATOM     12  C   UNL     1      -3.916  -2.774   3.566  0.00  0.00    +0.230 C 
ATOM     13  O   UNL     1      -5.011  -3.256   3.367  0.00  0.00    -0.274 OA
ATOM     14  H   UNL     1      -2.255  -2.048   2.684  0.00  0.00    +0.155 HD
BRANCH  12  15
ATOM     15  C   UNL     1      -3.434  -2.556   4.977  0.00  0.00    +0.142 C 
ATOM     16  C   UNL     1      -2.158  -3.322   5.191  0.00  0.00    +0.011 A 
ATOM     17  C   UNL     1      -0.970  -2.817   4.692  0.00  0.00    +0.008 A 
ATOM     18  C   UNL     1       0.212  -3.506   4.878  0.00  0.00    +0.001 A 
ATOM     19  C   UNL     1       0.213  -4.706   5.565  0.00  0.00    +0.004 A 
ATOM     20  C   UNL     1      -0.968  -5.216   6.066  0.00  0.00    +0.046 A 
ATOM     21  C   UNL     1      -2.160  -4.524   5.880  0.00  0.00    +0.133 A 
ATOM     22  O   UNL     1      -3.309  -5.040   6.379  0.00  0.00    -0.455 OA
ATOM     23  C   UNL     1      -4.377  -4.234   6.593  0.00  0.00    +0.133 A 
ATOM     24  C   UNL     1      -4.493  -3.017   5.942  0.00  0.00    +0.011 A 
ATOM     25  C   UNL     1      -5.593  -2.211   6.177  0.00  0.00    +0.008 A 
ATOM     26  C   UNL     1      -6.576  -2.617   7.059  0.00  0.00    +0.001 A 
ATOM     27  C   UNL     1      -6.463  -3.831   7.711  0.00  0.00    +0.004 A 
ATOM     28  C   UNL     1      -5.367  -4.640   7.480  0.00  0.00    +0.046 A 
ENDBRANCH  12  15
ENDBRANCH   5  11
BRANCH   7  29
ATOM     29  C   UNL     1      -6.065  -3.576  -4.498  0.00  0.00    -0.074 C 
ATOM     30  C   UNL     1      -7.563  -3.411  -4.235  0.00  0.00    -0.014 C 
ATOM     31  C   UNL     1      -5.691  -2.848  -5.790  0.00  0.00    -0.014 C 
ENDBRANCH   7  29
BRANCH   1  32
ATOM     32  C   UNL     1      -1.567  -1.758   0.045  0.00  0.00    +0.342 C 
ATOM     33  O   UNL     1      -0.587  -2.478   0.051  0.00  0.00    -0.245 OA
BRANCH  32  34
ATOM     34  O   UNL     1      -1.420  -0.418   0.040  0.00  0.00    -0.461 OA
BRANCH  34  36
ATOM     35  C   UNL     1      -0.117   1.618   0.036  0.00  0.00    +0.048 C 
ATOM     36  C   UNL     1      -0.083   0.088   0.042  0.00  0.00    +0.229 C 
ENDBRANCH  34  36
ENDBRANCH  32  34
ENDBRANCH   1  32
TORSDOF 6
