REMARK  Name = ZINC06780249
REMARK  9 active torsions:
REMARK  status: ('A' for Active; 'I' for Inactive)
REMARK    1  A    between atoms: C_1  and  C_2
REMARK    2  A    between atoms: N_4  and  C_5
REMARK    3  A    between atoms: C_9  and  C_38
REMARK    4  A    between atoms: C_21  and  C_37
REMARK    5  A    between atoms: C_25  and  N_33
REMARK    6  A    between atoms: C_27  and  O_29
REMARK    7  A    between atoms: O_29  and  C_30
REMARK    8  A    between atoms: C_30  and  C_32
REMARK    9  A    between atoms: C_34  and  C_36
REMARK                            x       y       z     vdW  Elec       q    Type
REMARK                         _______ _______ _______ _____ _____    ______ ____
ROOT
ATOM      1  C   UNL     1      -3.314   8.538   7.348  0.00  0.00    +0.073 C 
ATOM      2  C   UNL     1      -4.370   7.637   6.704  0.00  0.00    +0.023 C 
ATOM      3  C   UNL     1      -4.789   8.226   5.356  0.00  0.00    +0.009 C 
ATOM      4  C   UNL     1      -3.570   8.321   4.438  0.00  0.00    -0.026 C 
ATOM      5  C   UNL     1      -2.513   9.220   5.082  0.00  0.00    -0.003 C 
ATOM      6  C   UNL     1      -2.094   8.630   6.430  0.00  0.00    +0.026 C 
ATOM      7  C   UNL     1      -1.294   9.313   4.164  0.00  0.00    +0.004 C 
ATOM      8  C   UNL     1      -0.715   7.911   3.957  0.00  0.00    +0.004 C 
ATOM      9  C   UNL     1      -1.768   7.017   3.300  0.00  0.00    -0.004 C 
ATOM     10  C   UNL     1      -2.987   6.923   4.216  0.00  0.00    -0.001 C 
ATOM     11  C   UNL     1      -4.039   6.040   3.535  0.00  0.00    +0.005 C 
ATOM     12  C   UNL     1      -3.467   4.634   3.382  0.00  0.00    +0.011 C 
ATOM     13  C   UNL     1      -2.240   4.657   2.479  0.00  0.00    +0.010 C 
ATOM     14  C   UNL     1      -1.191   5.656   2.997  0.00  0.00    +0.004 C 
ATOM     15  C   UNL     1      -0.620   4.963   4.247  0.00  0.00    +0.030 C 
ATOM     16  C   UNL     1      -0.534   3.477   3.828  0.00  0.00    +0.114 C 
ATOM     17  C   UNL     1      -1.547   3.284   2.683  0.00  0.00    +0.203 C 
ATOM     18  C   UNL     1      -2.583   4.908   1.009  0.00  0.00    +0.015 C 
ATOM     19  C   UNL     1      -3.990   8.917   3.093  0.00  0.00    +0.012 C 
ENDROOT
BRANCH   1  23
ATOM     20  C   UNL     1      -5.167  11.522   8.871  0.00  0.00    +0.109 C 
ATOM     21  C   UNL     1      -4.592  10.145   8.661  0.00  0.00    +0.210 C 
ATOM     22  O   UNL     1      -4.776   9.278   9.489  0.00  0.00    -0.276 OA
ATOM     23  N   UNL     1      -3.873   9.877   7.553  0.00  0.00    -0.313 N 
ATOM     24  H   UNL     1      -3.726  10.570   6.890  0.00  0.00    +0.149 HD
ENDBRANCH   1  23
BRANCH  16  25
ATOM     25  N   UNL     1       0.818   3.164   3.360  0.00  0.00    -0.309 N 
ATOM     26  C   UNL     1       1.762   2.773   4.239  0.00  0.00    +0.210 C 
ATOM     27  O   UNL     1       1.492   2.680   5.417  0.00  0.00    -0.276 OA
ATOM     28  C   UNL     1       3.153   2.452   3.757  0.00  0.00    +0.109 C 
ATOM     29  H   UNL     1       1.034   3.239   2.417  0.00  0.00    +0.149 HD
ENDBRANCH  16  25
BRANCH  17  30
ATOM     30  O   UNL     1      -0.857   2.889   1.469  0.00  0.00    -0.459 OA
BRANCH  30  31
ATOM     31  C   UNL     1      -0.718   1.572   1.248  0.00  0.00    +0.304 C 
ATOM     32  O   UNL     1      -1.159   0.776   2.043  0.00  0.00    -0.251 OA
ATOM     33  C   UNL     1      -0.013   1.086   0.008  0.00  0.00    +0.136 C 
ENDBRANCH  30  31
ENDBRANCH  17  30
TORSDOF 4
