REMARK  Name = ZINC12798150
REMARK  4 active torsions:
REMARK  status: ('A' for Active; 'I' for Inactive)
REMARK    1  A    between atoms: C_3  and  S_8
REMARK    2  A    between atoms: S_8  and  N_11
REMARK    3  A    between atoms: C_15  and  C_17
REMARK    4  A    between atoms: N_19  and  C_20
REMARK                            x       y       z     vdW  Elec       q    Type
REMARK                         _______ _______ _______ _____ _____    ______ ____
ROOT
ATOM      1  C   UNL     1      -0.014   1.209   0.011  0.00  0.00    +0.236 C 
ATOM      2  O   UNL     1       0.002  -0.004   0.013  0.00  0.00    -0.274 OA
ATOM      3  N   UNL     1       1.143   1.898   0.001  0.00  0.00    -0.284 N 
ATOM      4  H   UNL     1       1.131   2.866  -0.068  0.00  0.00    +0.155 HD
ENDROOT
BRANCH   3   5
ATOM      5  C   UNL     1       2.365   1.218   0.092  0.00  0.00    +0.037 A 
ATOM      6  C   UNL     1       3.429   1.790   0.776  0.00  0.00    +0.027 A 
ATOM      7  C   UNL     1       4.633   1.117   0.871  0.00  0.00    +0.051 A 
ATOM      8  C   UNL     1       4.785  -0.123   0.273  0.00  0.00    +0.167 A 
ATOM      9  C   UNL     1       3.720  -0.697  -0.419  0.00  0.00    +0.169 A 
ATOM     10  C   UNL     1       2.513  -0.025  -0.508  0.00  0.00    +0.072 A 
ATOM     11  O   UNL     1       4.120  -1.907  -0.911  0.00  0.00    -0.447 OA
ATOM     12  C   UNL     1       5.312  -2.241  -0.186  0.00  0.00    +0.254 C 
ATOM     13  O   UNL     1       5.853  -0.974   0.216  0.00  0.00    -0.448 OA
ATOM     14  C   UNL     1       6.297  -2.973  -1.092  0.00  0.00    +0.093 C 
ATOM     15  C   UNL     1       5.693  -4.308  -1.533  0.00  0.00    +0.008 C 
ATOM     16  C   UNL     1       5.383  -5.158  -0.299  0.00  0.00    +0.000 C 
ATOM     17  C   UNL     1       4.376  -4.423   0.588  0.00  0.00    +0.008 C 
ATOM     18  C   UNL     1       4.973  -3.087   1.036  0.00  0.00    +0.093 C 
ENDBRANCH   3   5
BRANCH   1  23
ATOM     19  N   UNL     1      -2.441   0.982   0.008  0.00  0.00    -0.165 NA
ATOM     20  C   UNL     1      -3.261   1.212  -1.195  0.00  0.00    +0.110 C 
ATOM     21  C   UNL     1      -2.303   1.892  -2.204  0.00  0.00    +0.019 C 
ATOM     22  C   UNL     1      -1.454   2.799  -1.267  0.00  0.00    +0.031 C 
ATOM     23  C   UNL     1      -1.330   1.945   0.012  0.00  0.00    +0.166 C 
BRANCH  19  24
ATOM     24  S   UNL     1      -2.724  -0.169   1.164  0.00  0.00    +0.062 S 
ATOM     25  O   UNL     1      -3.489  -1.192   0.540  0.00  0.00    -0.153 OA
ATOM     26  O   UNL     1      -1.477  -0.428   1.794  0.00  0.00    -0.153 OA
BRANCH  24  29
ATOM     27  C   UNL     1      -5.953   1.054   3.218  0.00  0.00    +0.040 A 
ATOM     28  C   UNL     1      -5.137   0.481   2.261  0.00  0.00    +0.031 A 
ATOM     29  C   UNL     1      -3.763   0.562   2.385  0.00  0.00    +0.106 A 
ATOM     30  C   UNL     1      -3.203   1.211   3.470  0.00  0.00    +0.031 A 
ATOM     31  C   UNL     1      -4.017   1.789   4.425  0.00  0.00    +0.040 A 
ATOM     32  C   UNL     1      -5.394   1.709   4.302  0.00  0.00    +0.124 A 
ATOM     33  F   UNL     1      -6.190   2.270   5.238  0.00  0.00    -0.205 F 
ENDBRANCH  24  29
ENDBRANCH  19  24
ENDBRANCH   1  23
TORSDOF 4
