REMARK  Name = ZINC16971300
REMARK  4 active torsions:
REMARK  status: ('A' for Active; 'I' for Inactive)
REMARK    1  A    between atoms: C_1  and  C_2
REMARK    2  A    between atoms: C_2  and  C_4
REMARK    3  A    between atoms: C_4  and  C_9
REMARK    4  A    between atoms: C_13  and  N_15
REMARK                            x       y       z     vdW  Elec       q    Type
REMARK                         _______ _______ _______ _____ _____    ______ ____
ROOT
ATOM      1  C   UNL     1      -0.221   3.865  -0.002  0.00  0.00    +0.014 A 
ATOM      2  C   UNL     1      -1.478   3.291  -0.042  0.00  0.00    +0.009 A 
ATOM      3  C   UNL     1      -1.610   1.916  -0.071  0.00  0.00    +0.003 A 
ATOM      4  C   UNL     1      -0.484   1.113  -0.051  0.00  0.00    +0.033 A 
ATOM      5  C   UNL     1       0.773   1.687  -0.011  0.00  0.00    +0.127 A 
ATOM      6  C   UNL     1       0.904   3.063   0.013  0.00  0.00    +0.041 A 
ENDROOT
BRANCH   1   7
ATOM      7  C   UNL     1      -0.078   5.365   0.024  0.00  0.00    +0.209 C 
ATOM      8  O   UNL     1      -1.183   5.968  -0.670  0.00  0.00    -0.342 OA
ATOM      9  C   UNL     1      -0.618   7.124  -1.333  0.00  0.00    +0.192 C 
ATOM     10  C   UNL     1       0.785   6.604  -1.733  0.00  0.00    +0.192 C 
ATOM     11  O   UNL     1       1.140   5.744  -0.631  0.00  0.00    -0.342 OA
BRANCH   7  13
ATOM     12  C   UNL     1      -1.398   5.539   2.138  0.00  0.00    +0.025 C 
ATOM     13  C   UNL     1      -0.056   5.854   1.473  0.00  0.00    +0.118 C 
ATOM     14 BR   UNL     1       1.388   4.946   2.450  0.00  0.00    -0.082 Br
ENDBRANCH   7  13
ENDBRANCH   1   7
BRANCH   5  15
ATOM     15  N   UNL     1       1.978   0.828   0.004  0.00  0.00    +0.056 N 
ATOM     16  O   UNL     1       1.862  -0.385  -0.017  0.00  0.00    -0.126 OA
ATOM     17  O   UNL     1       3.086   1.333   0.039  0.00  0.00    -0.126 OA
ENDBRANCH   5  15
TORSDOF 3
