REMARK  Name = ZINC47052743
REMARK  5 active torsions:
REMARK  status: ('A' for Active; 'I' for Inactive)
REMARK    1  A    between atoms: C_1  and  C_2
REMARK    2  A    between atoms: N_11  and  C_12
REMARK    3  A    between atoms: C_12  and  C_14
REMARK    4  A    between atoms: C_12  and  C_15
REMARK    5  A    between atoms: C_18  and  C_21
REMARK                            x       y       z     vdW  Elec       q    Type
REMARK                         _______ _______ _______ _____ _____    ______ ____
ROOT
ATOM      1  C   UNL     1      -0.017   1.526   0.009  0.00  0.00    +0.028 C 
ATOM      2  C   UNL     1       0.001  -0.004   0.003  0.00  0.00    +0.074 C 
ATOM      3  C   UNL     1      -1.429  -0.535   0.149  0.00  0.00    +0.022 C 
ATOM      4  C   UNL     1      -1.392  -2.059   0.282  0.00  0.00    +0.003 C 
ATOM      5  C   UNL     1      -0.604  -2.444   1.536  0.00  0.00    +0.019 C 
ATOM      6  C   UNL     1       0.835  -1.935   1.407  0.00  0.00    +0.109 C 
ATOM      7  N   UNL     1       0.806  -0.492   1.131  0.00  0.00    -0.283 N 
ATOM      8  C   UNL     1       1.502   0.368   1.901  0.00  0.00    +0.303 C 
ATOM      9  O   UNL     1       1.395   1.567   1.723  0.00  0.00    -0.253 OA
ATOM     10  N   UNL     1       2.316  -0.099   2.868  0.00  0.00    -0.293 N 
ATOM     11  H   UNL     1       2.458  -1.054   2.962  0.00  0.00    +0.151 HD
ENDROOT
BRANCH  10  12
ATOM     12  C   UNL     1       2.985   0.835   3.777  0.00  0.00    +0.102 C 
ATOM     13  C   UNL     1       2.047   1.178   4.936  0.00  0.00    +0.033 C 
BRANCH  12  14
ATOM     14  C   UNL     1       4.239   0.198   4.318  0.00  0.00    -0.027 A 
ATOM     15  C   UNL     1       4.237  -1.142   4.663  0.00  0.00    +0.007 A 
ATOM     16  C   UNL     1       5.382  -1.732   5.158  0.00  0.00    +0.019 A 
ATOM     17  C   UNL     1       6.544  -0.973   5.311  0.00  0.00    +0.052 A 
ATOM     18  C   UNL     1       6.539   0.379   4.960  0.00  0.00    +0.019 A 
ATOM     19  C   UNL     1       5.388   0.954   4.461  0.00  0.00    +0.007 A 
BRANCH  17  20
ATOM     20  C   UNL     1       7.736  -1.578   5.825  0.00  0.00    +0.099 C 
ATOM     21  N   UNL     1       8.681  -2.058   6.232  0.00  0.00    -0.191 NA
ENDBRANCH  17  20
ENDBRANCH  12  14
ENDBRANCH  10  12
TORSDOF 3
