REMARK  Name = ZINC37978211
REMARK  5 active torsions:
REMARK  status: ('A' for Active; 'I' for Inactive)
REMARK    1  A    between atoms: C_1  and  C_2
REMARK    2  A    between atoms: C_4  and  C_21
REMARK    3  A    between atoms: C_7  and  C_8
REMARK    4  A    between atoms: C_13  and  C_20
REMARK    5  A    between atoms: C_16  and  C_19
REMARK                            x       y       z     vdW  Elec       q    Type
REMARK                         _______ _______ _______ _____ _____    ______ ____
ROOT
ATOM      1  C   UNL     1       2.463  -0.486  -1.300  0.00  0.00    +0.045 C 
ATOM      2  C   UNL     1       1.200  -0.964  -0.630  0.00  0.00    -0.031 A 
ATOM      3  C   UNL     1      -0.041  -0.587  -1.108  0.00  0.00    +0.025 A 
ATOM      4  C   UNL     1      -1.184  -1.042  -0.473  0.00  0.00    +0.015 A 
ATOM      5  N   UNL     1      -1.112  -1.830   0.582  0.00  0.00    -0.346 N 
ATOM      6  C   UNL     1       0.049  -2.223   1.082  0.00  0.00    +0.114 A 
ATOM      7  C   UNL     1       1.255  -1.807   0.488  0.00  0.00    +0.104 A 
ATOM      8  N   UNL     1       0.077  -3.049   2.188  0.00  0.00    -0.315 N 
ATOM      9  C   UNL     1       0.021  -2.486   3.544  0.00  0.00    +0.109 C 
ATOM     10  C   UNL     1      -1.124  -3.158   4.310  0.00  0.00    +0.004 C 
ATOM     11  C   UNL     1      -0.940  -4.676   4.267  0.00  0.00    +0.009 C 
ATOM     12  C   UNL     1      -0.983  -5.156   2.814  0.00  0.00    +0.004 C 
ATOM     13  C   UNL     1       0.157  -4.508   2.031  0.00  0.00    +0.109 C 
ATOM     14  C   UNL     1      -0.832  -6.678   2.774  0.00  0.00    +0.009 C 
ATOM     15  C   UNL     1      -2.459  -2.786   3.661  0.00  0.00    +0.009 C 
ATOM     16  C   UNL     1      -2.535  -0.628  -0.996  0.00  0.00    +0.063 C 
ATOM     17  H   UNL     1      -1.933  -2.130   1.003  0.00  0.00    +0.167 HD
ENDROOT
BRANCH   7  18
ATOM     18  C   UNL     1       2.549  -2.244   1.034  0.00  0.00    +0.390 C 
ATOM     19  O   UNL     1       3.062  -1.628   1.958  0.00  0.00    -0.240 OA
ATOM     20  O   UNL     1       3.112  -3.223   0.564  0.00  0.00    -0.240 OA
ENDBRANCH   7  18
TORSDOF 1
