REMARK  Name = ZINC11817373
REMARK  6 active torsions:
REMARK  status: ('A' for Active; 'I' for Inactive)
REMARK    1  A    between atoms: C_1  and  C_2
REMARK    2  A    between atoms: C_2  and  O_3
REMARK    3  A    between atoms: O_3  and  C_4
REMARK    4  A    between atoms: C_4  and  C_6
REMARK    5  A    between atoms: C_6  and  N_7
REMARK    6  A    between atoms: C_15  and  C_18
REMARK                            x       y       z     vdW  Elec       q    Type
REMARK                         _______ _______ _______ _____ _____    ______ ____
ROOT
ATOM      1  N   UNL     1       3.489  -3.356  -1.722  0.00  0.00    -0.289 N 
ATOM      2  C   UNL     1       4.111  -2.296  -1.168  0.00  0.00    +0.303 C 
ATOM      3  O   UNL     1       5.267  -2.052  -1.453  0.00  0.00    -0.253 OA
ATOM      4  N   UNL     1       3.450  -1.506  -0.299  0.00  0.00    -0.281 N 
ATOM      5  C   UNL     1       4.141  -0.413   0.402  0.00  0.00    +0.117 C 
ATOM      6  C   UNL     1       3.538   0.930  -0.029  0.00  0.00    +0.096 C 
ATOM      7  C   UNL     1       2.037   0.814  -0.015  0.00  0.00    +0.144 A 
ATOM      8  C   UNL     1       1.366  -0.360  -0.017  0.00  0.00    +0.040 A 
ATOM      9  C   UNL     1       0.005   0.005  -0.005  0.00  0.00    +0.118 A 
ATOM     10  N   UNL     1      -0.009   1.320   0.004  0.00  0.00    -0.078 NA
ATOM     11  O   UNL     1       1.115   1.778  -0.000  0.00  0.00    -0.359 OA
ATOM     12  C   UNL     1       2.015  -1.715  -0.026  0.00  0.00    +0.150 C 
ATOM     13  H   UNL     1       2.547  -3.509  -1.551  0.00  0.00    +0.151 HD
ENDROOT
BRANCH   9  14
ATOM     14  C   UNL     1      -1.168  -0.905  -0.003  0.00  0.00    +0.004 A 
ATOM     15  C   UNL     1      -1.122  -2.106  -0.707  0.00  0.00    +0.011 A 
ATOM     16  C   UNL     1      -2.213  -2.951  -0.698  0.00  0.00    +0.020 A 
ATOM     17  C   UNL     1      -3.356  -2.601   0.001  0.00  0.00    +0.041 A 
ATOM     18  C   UNL     1      -3.408  -1.407   0.698  0.00  0.00    +0.020 A 
ATOM     19  C   UNL     1      -2.320  -0.558   0.699  0.00  0.00    +0.011 A 
ATOM     20 CL   UNL     1      -4.728  -3.665   0.003  0.00  0.00    -0.084 Cl
ENDBRANCH   9  14
BRANCH   1  21
ATOM     21  C   UNL     1       4.237  -4.277  -2.582  0.00  0.00    +0.226 C 
BRANCH  21  22
ATOM     22  C   UNL     1       3.318  -5.367  -3.069  0.00  0.00    +0.324 C 
ATOM     23  O   UNL     1       2.158  -5.375  -2.733  0.00  0.00    -0.249 OA
BRANCH  22  24
ATOM     24  O   UNL     1       3.789  -6.331  -3.876  0.00  0.00    -0.464 OA
BRANCH  24  26
ATOM     25  C   UNL     1       3.561  -8.353  -5.214  0.00  0.00    +0.048 C 
ATOM     26  C   UNL     1       2.848  -7.349  -4.307  0.00  0.00    +0.229 C 
ENDBRANCH  24  26
ENDBRANCH  22  24
ENDBRANCH  21  22
ENDBRANCH   1  21
TORSDOF 5
