REMARK  Name = ZINC64103099
REMARK  8 active torsions:
REMARK  status: ('A' for Active; 'I' for Inactive)
REMARK    1  A    between atoms: C_1  and  C_2
REMARK    2  A    between atoms: C_2  and  O_3
REMARK    3  A    between atoms: O_3  and  C_4
REMARK    4  A    between atoms: C_7  and  C_10
REMARK    5  A    between atoms: N_24  and  C_25
REMARK    6  A    between atoms: C_25  and  C_26
REMARK    7  A    between atoms: C_29  and  C_31
REMARK    8  A    between atoms: C_31  and  O_32
REMARK                            x       y       z     vdW  Elec       q    Type
REMARK                         _______ _______ _______ _____ _____    ______ ____
ROOT
ATOM      1  C   UNL     1       1.109  -6.040  -1.847  0.00  0.00    +0.114 C 
ATOM      2  C   UNL     1       2.509  -6.501  -1.433  0.00  0.00    +0.128 C 
ATOM      3  C   UNL     1       2.598  -7.976  -1.805  0.00  0.00    -0.035 C 
ATOM      4  C   UNL     1       2.959  -8.619  -0.703  0.00  0.00    -0.001 A 
ATOM      5  C   UNL     1       3.287 -10.033  -0.454  0.00  0.00    +0.010 A 
ATOM      6  C   UNL     1       3.610 -10.357   0.826  0.00  0.00    +0.001 A 
ATOM      7  C   UNL     1       3.639  -9.428   1.871  0.00  0.00    +0.002 A 
ATOM      8  C   UNL     1       3.357  -8.108   1.732  0.00  0.00    +0.026 A 
ATOM      9  C   UNL     1       3.010  -7.645   0.429  0.00  0.00    +0.043 A 
ATOM     10  N   UNL     1       2.721  -6.427   0.012  0.00  0.00    -0.376 N 
ATOM     11  C   UNL     1       2.217  -8.472  -3.179  0.00  0.00    +0.049 C 
ATOM     12  C   UNL     1       0.856  -7.830  -3.505  0.00  0.00    +0.090 C 
ATOM     13  N   UNL     1       0.907  -6.386  -3.263  0.00  0.00    -0.286 NA
ATOM     14  H   UNL     1       2.654  -5.627   0.555  0.00  0.00    +0.160 HD
ENDROOT
BRANCH   1  18
ATOM     15  C   UNL     1       0.777  -1.810  -1.336  0.00  0.00    +0.121 A 
ATOM     16  C   UNL     1       0.243  -2.669  -0.386  0.00  0.00    +0.046 A 
ATOM     17  C   UNL     1       0.351  -4.036  -0.554  0.00  0.00    +0.009 A 
ATOM     18  C   UNL     1       0.992  -4.548  -1.667  0.00  0.00    -0.028 A 
ATOM     19  C   UNL     1       1.525  -3.694  -2.615  0.00  0.00    +0.009 A 
ATOM     20  C   UNL     1       1.414  -2.327  -2.455  0.00  0.00    +0.046 A 
BRANCH  15  21
ATOM     21  O   UNL     1       0.671  -0.465  -1.174  0.00  0.00    -0.492 OA
BRANCH  21  23
ATOM     22  C   UNL     1      -0.019   1.526   0.010  0.00  0.00    +0.048 C 
ATOM     23  C   UNL     1       0.002  -0.004   0.002  0.00  0.00    +0.225 C 
ENDBRANCH  21  23
ENDBRANCH  15  21
ENDBRANCH   1  18
BRANCH  13  24
ATOM     24  C   UNL     1      -0.285  -5.718  -3.803  0.00  0.00    +0.159 C 
BRANCH  24  25
ATOM     25  C   UNL     1      -0.324  -5.893  -5.300  0.00  0.00    +0.119 A 
ATOM     26  C   UNL     1      -0.920  -6.903  -5.958  0.00  0.00    +0.046 A 
ATOM     27  C   UNL     1      -0.713  -6.672  -7.338  0.00  0.00    +0.047 A 
ATOM     28  C   UNL     1      -0.002  -5.535  -7.439  0.00  0.00    +0.131 A 
ATOM     29  O   UNL     1       0.226  -5.064  -6.202  0.00  0.00    -0.461 OA
BRANCH  28  30
ATOM     30  C   UNL     1       0.457  -4.894  -8.724  0.00  0.00    +0.230 C 
BRANCH  30  31
ATOM     31  O   UNL     1      -0.542  -3.982  -9.184  0.00  0.00    -0.387 OA
ATOM     32  H   UNL     1      -0.314  -3.531 -10.009  0.00  0.00    +0.210 HD
ENDBRANCH  30  31
ENDBRANCH  28  30
ENDBRANCH  24  25
ENDBRANCH  13  24
TORSDOF 7
