REMARK  Name = ZINC35478179
REMARK  3 active torsions:
REMARK  status: ('A' for Active; 'I' for Inactive)
REMARK    1  A    between atoms: C_6  and  C_7
REMARK    2  A    between atoms: C_9  and  C_12
REMARK    3  A    between atoms: C_18  and  C_20
REMARK                            x       y       z     vdW  Elec       q    Type
REMARK                         _______ _______ _______ _____ _____    ______ ____
ROOT
ATOM      1  C   UNL     1      -4.359  -2.781  -0.257  0.00  0.00    +0.081 C 
ATOM      2  C   UNL     1      -5.234  -3.110   0.955  0.00  0.00    +0.032 C 
ATOM      3  C   UNL     1      -5.157  -4.613   1.242  0.00  0.00    +0.108 C 
ATOM      4  N   UNL     1      -5.516  -5.347   0.021  0.00  0.00    -0.301 N 
ATOM      5  C   UNL     1      -4.798  -5.042  -1.224  0.00  0.00    +0.108 C 
ATOM      6  C   UNL     1      -4.879  -3.535  -1.484  0.00  0.00    +0.032 C 
ATOM      7  C   UNL     1      -6.487  -6.282   0.043  0.00  0.00    +0.219 C 
ATOM      8  O   UNL     1      -6.835  -6.819  -0.987  0.00  0.00    -0.275 OA
ENDROOT
BRANCH   1  11
ATOM      9  C   UNL     1      -3.784   0.763  -0.791  0.00  0.00    +0.202 A 
ATOM     10  N   UNL     1      -3.383  -0.491  -0.514  0.00  0.00    -0.191 NA
ATOM     11  C   UNL     1      -4.406  -1.298  -0.522  0.00  0.00    +0.231 A 
ATOM     12  O   UNL     1      -5.505  -0.588  -0.807  0.00  0.00    -0.337 OA
ATOM     13  N   UNL     1      -5.082   0.757  -0.974  0.00  0.00    -0.056 NA
BRANCH   9  19
ATOM     14  C   UNL     1      -3.446   3.205  -1.162  0.00  0.00    +0.013 A 
ATOM     15  C   UNL     1      -2.624   4.311  -1.234  0.00  0.00    +0.021 A 
ATOM     16  C   UNL     1      -1.263   4.180  -1.018  0.00  0.00    +0.041 A 
ATOM     17  C   UNL     1      -0.720   2.939  -0.729  0.00  0.00    +0.021 A 
ATOM     18  C   UNL     1      -1.534   1.828  -0.654  0.00  0.00    +0.013 A 
ATOM     19  C   UNL     1      -2.904   1.955  -0.871  0.00  0.00    +0.023 A 
ATOM     20 CL   UNL     1      -0.233   5.575  -1.111  0.00  0.00    -0.084 Cl
ENDBRANCH   9  19
ENDBRANCH   1  11
BRANCH   7  21
ATOM     21  C   UNL     1      -7.138  -6.661   1.348  0.00  0.00    +0.075 C 
ATOM     22  C   UNL     1      -6.290  -7.727   2.072  0.00  0.00    +0.013 C 
ATOM     23  C   UNL     1      -7.336  -8.663   2.728  0.00  0.00    +0.001 C 
ATOM     24  C   UNL     1      -8.454  -8.729   1.658  0.00  0.00    +0.001 C 
ATOM     25  C   UNL     1      -8.514  -7.299   1.084  0.00  0.00    +0.013 C 
ENDBRANCH   7  21
TORSDOF 3
