REMARK  Name = ZINC01463312
REMARK  9 active torsions:
REMARK  status: ('A' for Active; 'I' for Inactive)
REMARK    1  A    between atoms: C_1  and  C_2
REMARK    2  A    between atoms: C_2  and  O_3
REMARK    3  A    between atoms: O_3  and  C_4
REMARK    4  A    between atoms: C_4  and  C_6
REMARK    5  A    between atoms: C_7  and  C_27
REMARK    6  A    between atoms: C_11  and  C_20
REMARK    7  A    between atoms: C_12  and  O_19
REMARK    8  A    between atoms: C_20  and  N_55
REMARK    9  A    between atoms: C_23  and  C_26
REMARK                            x       y       z     vdW  Elec       q    Type
REMARK                         _______ _______ _______ _____ _____    ______ ____
ROOT
ATOM      1  C   UNL     1      -0.116   1.835   2.442  0.00  0.00    +0.108 A 
ATOM      2  C   UNL     1      -0.718   1.572   1.248  0.00  0.00    +0.117 A 
ATOM      3  O   UNL     1      -2.029   1.816   1.343  0.00  0.00    -0.459 OA
ATOM      4  C   UNL     1      -2.361   2.235   2.580  0.00  0.00    +0.144 A 
ATOM      5  C   UNL     1      -1.197   2.280   3.344  0.00  0.00    +0.040 A 
ATOM      6  C   UNL     1      -1.231   2.688   4.686  0.00  0.00    -0.010 A 
ATOM      7  C   UNL     1      -2.404   3.052   5.272  0.00  0.00    +0.127 A 
ATOM      8  C   UNL     1      -3.606   3.020   4.529  0.00  0.00    +0.027 A 
ATOM      9  C   UNL     1      -3.586   2.609   3.174  0.00  0.00    +0.028 A 
ATOM     10  C   UNL     1      -4.784   2.581   2.444  0.00  0.00    +0.012 A 
ATOM     11  C   UNL     1      -5.950   2.948   3.046  0.00  0.00    +0.001 A 
ATOM     12  C   UNL     1      -5.971   3.352   4.378  0.00  0.00    +0.001 A 
ATOM     13  C   UNL     1      -4.826   3.391   5.115  0.00  0.00    +0.012 A 
ATOM     14  C   UNL     1      -0.013   1.086   0.008  0.00  0.00    +0.087 C 
ENDROOT
BRANCH   1  15
ATOM     15  C   UNL     1       1.311   1.704   2.764  0.00  0.00    +0.343 C 
ATOM     16  O   UNL     1       2.061   2.646   2.597  0.00  0.00    -0.245 OA
BRANCH  15  17
ATOM     17  O   UNL     1       1.790   0.538   3.244  0.00  0.00    -0.461 OA
BRANCH  17  19
ATOM     18  C   UNL     1       3.564  -0.910   4.071  0.00  0.00    +0.048 C 
ATOM     19  C   UNL     1       3.210   0.481   3.540  0.00  0.00    +0.229 C 
ENDBRANCH  17  19
ENDBRANCH  15  17
ENDBRANCH   1  15
BRANCH   7  20
ATOM     20  O   UNL     1      -2.421   3.446   6.572  0.00  0.00    -0.506 OA
ATOM     21  H   UNL     1      -2.292   4.396   6.697  0.00  0.00    +0.292 HD
ENDBRANCH   7  20
BRANCH   6  22
ATOM     22  C   UNL     1       0.046   2.726   5.486  0.00  0.00    -0.039 C 
BRANCH  22  29
ATOM     23  C   UNL     1      -0.323   5.118   5.518  0.00  0.00    -0.078 C 
ATOM     24  C   UNL     1       0.329   6.472   5.229  0.00  0.00    -0.016 C 
ATOM     25  C   UNL     1       1.502   6.684   6.191  0.00  0.00    -0.018 C 
ATOM     26  C   UNL     1       2.497   5.531   6.032  0.00  0.00    -0.016 C 
ATOM     27  C   UNL     1       1.782   4.205   6.298  0.00  0.00    -0.078 C 
ATOM     28  C   UNL     1       2.196   8.008   5.867  0.00  0.00    +0.007 C 
ATOM     29  N   UNL     1       0.680   4.050   5.324  0.00  0.00    +0.382 N 
ATOM     30  H   UNL     1       1.063   4.122   4.374  0.00  0.00    -0.081 HD
ENDBRANCH  22  29
ENDBRANCH   6  22
TORSDOF 6
