REMARK  Name = ZINC47435567
REMARK  4 active torsions:
REMARK  status: ('A' for Active; 'I' for Inactive)
REMARK    1  A    between atoms: C_1  and  N_2
REMARK    2  A    between atoms: C_3  and  C_9
REMARK    3  A    between atoms: N_11  and  N_12
REMARK    4  A    between atoms: N_12  and  C_13
REMARK                            x       y       z     vdW  Elec       q    Type
REMARK                         _______ _______ _______ _____ _____    ______ ____
ROOT
ATOM      1  C   UNL     1       0.213  -0.342  -2.506  0.00  0.00    +0.277 C 
ATOM      2  O   UNL     1       0.153  -1.144  -3.420  0.00  0.00    -0.267 OA
ATOM      3  N   UNL     1       0.382   0.969  -2.769  0.00  0.00    -0.231 N 
ATOM      4  H   UNL     1       0.504   1.598  -2.041  0.00  0.00    +0.173 HD
ENDROOT
BRANCH   1   7
ATOM      5  C   UNL     1       0.070  -3.292  -1.568  0.00  0.00    +0.150 C 
ATOM      6  N   UNL     1       0.039  -2.114  -0.699  0.00  0.00    -0.329 N 
ATOM      7  C   UNL     1       0.103  -0.803  -1.119  0.00  0.00    +0.108 A 
ATOM      8  C   UNL     1       0.044  -0.003   0.004  0.00  0.00    +0.054 A 
ATOM      9  C   UNL     1      -0.057  -0.852   1.110  0.00  0.00    +0.078 A 
ATOM     10  C   UNL     1      -0.062  -2.130   0.654  0.00  0.00    +0.128 A 
ATOM     11 CL   UNL     1      -0.177  -3.554   1.641  0.00  0.00    -0.062 Cl
ATOM     12 CL   UNL     1      -0.161  -0.358   2.771  0.00  0.00    -0.080 Cl
ENDBRANCH   1   7
BRANCH   3  13
ATOM     13  N   UNL     1       0.380   1.423  -4.094  0.00  0.00    -0.264 N 
ATOM     14  H   UNL     1       0.257   0.794  -4.822  0.00  0.00    +0.170 HD
BRANCH  13  15
ATOM     15  C   UNL     1       0.554   2.783  -4.367  0.00  0.00    +0.045 A 
ATOM     16  C   UNL     1       0.736   3.684  -3.326  0.00  0.00    +0.027 A 
ATOM     17  C   UNL     1       0.908   5.027  -3.598  0.00  0.00    +0.040 A 
ATOM     18  C   UNL     1       0.900   5.476  -4.908  0.00  0.00    +0.124 A 
ATOM     19  C   UNL     1       0.720   4.579  -5.948  0.00  0.00    +0.040 A 
ATOM     20  C   UNL     1       0.552   3.235  -5.681  0.00  0.00    +0.027 A 
ATOM     21  F   UNL     1       1.068   6.790  -5.172  0.00  0.00    -0.205 F 
ENDBRANCH  13  15
ENDBRANCH   3  13
TORSDOF 3
