REMARK  Name = ZINC33122272
REMARK  9 active torsions:
REMARK  status: ('A' for Active; 'I' for Inactive)
REMARK    1  A    between atoms: C_1  and  C_2
REMARK    2  A    between atoms: C_5  and  S_9
REMARK    3  A    between atoms: C_6  and  C_8
REMARK    4  A    between atoms: S_9  and  N_12
REMARK    5  A    between atoms: N_12  and  C_13
REMARK    6  A    between atoms: C_16  and  S_19
REMARK    7  A    between atoms: S_19  and  C_20
REMARK    8  A    between atoms: C_21  and  C_30
REMARK    9  A    between atoms: C_22  and  C_29
REMARK                            x       y       z     vdW  Elec       q    Type
REMARK                         _______ _______ _______ _____ _____    ______ ____
ROOT
ATOM      1  C   UNL     1      -0.910   3.440  -1.513  0.00  0.00    +0.048 A 
ATOM      2  C   UNL     1      -1.336   4.174  -0.414  0.00  0.00    +0.025 A 
ATOM      3  C   UNL     1      -1.540   5.534  -0.529  0.00  0.00    +0.017 A 
ATOM      4  C   UNL     1      -1.330   6.167  -1.747  0.00  0.00    +0.014 A 
ATOM      5  C   UNL     1      -0.909   5.432  -2.849  0.00  0.00    +0.017 A 
ATOM      6  C   UNL     1      -0.701   4.072  -2.732  0.00  0.00    +0.025 A 
ENDROOT
BRANCH   1   7
ATOM      7  N   UNL     1      -0.698   2.062  -1.395  0.00  0.00    -0.216 N 
ATOM      8  H   UNL     1      -1.090   1.377  -2.162  0.00  0.00    +0.174 HD
BRANCH   7   9
ATOM      9  S   UNL     1       0.142   1.461  -0.101  0.00  0.00    +0.073 S 
ATOM     10  O   UNL     1      -0.446   2.027   1.063  0.00  0.00    -0.150 OA
ATOM     11  O   UNL     1       0.243   0.058  -0.298  0.00  0.00    -0.150 OA
BRANCH   9  16
ATOM     12  C   UNL     1       5.752   3.658  -0.440  0.00  0.00    +0.044 C 
ATOM     13  C   UNL     1       4.350   3.110  -0.356  0.00  0.00    -0.050 A 
ATOM     14  C   UNL     1       3.547   3.429   0.723  0.00  0.00    +0.005 A 
ATOM     15  C   UNL     1       2.262   2.925   0.801  0.00  0.00    +0.029 A 
ATOM     16  C   UNL     1       1.780   2.103  -0.200  0.00  0.00    +0.111 A 
ATOM     17  C   UNL     1       2.585   1.780  -1.276  0.00  0.00    -0.024 A 
ATOM     18  C   UNL     1       3.869   2.287  -1.357  0.00  0.00    +0.008 A 
ATOM     19  C   UNL     1       2.062   0.878  -2.365  0.00  0.00    +0.046 C 
ENDBRANCH   9  16
ENDBRANCH   7   9
ENDBRANCH   1   7
BRANCH   4  20
ATOM     20  S   UNL     1      -1.595   7.903  -1.896  0.00  0.00    -0.069 S 
BRANCH  20  21
ATOM     21  C   UNL     1      -2.096   8.278  -0.249  0.00  0.00    +0.111 A 
ATOM     22  C   UNL     1      -1.178   8.726   0.683  0.00  0.00    +0.003 A 
ATOM     23  C   UNL     1      -1.611   9.012   1.974  0.00  0.00    +0.048 A 
ATOM     24  N   UNL     1      -2.877   8.858   2.303  0.00  0.00    -0.216 NA
ATOM     25  C   UNL     1      -3.778   8.425   1.413  0.00  0.00    +0.254 A 
ATOM     26  N   UNL     1      -3.401   8.136   0.132  0.00  0.00    -0.190 N 
ATOM     27  N   UNL     1      -4.557   7.711  -0.535  0.00  0.00    -0.151 NA
ATOM     28  C   UNL     1      -5.541   7.766   0.330  0.00  0.00    +0.247 A 
ATOM     29  N   UNL     1      -5.083   8.193   1.500  0.00  0.00    -0.197 NA
ATOM     30  C   UNL     1      -0.625   9.503   3.003  0.00  0.00    +0.066 C 
ATOM     31  C   UNL     1       0.270   8.901   0.306  0.00  0.00    +0.048 C 
ENDBRANCH  20  21
ENDBRANCH   4  20
TORSDOF 5
