REMARK  Name = ZINC36922382
REMARK  5 active torsions:
REMARK  status: ('A' for Active; 'I' for Inactive)
REMARK    1  A    between atoms: C_1  and  C_2
REMARK    2  A    between atoms: C_2  and  C_4
REMARK    3  A    between atoms: C_2  and  N_12
REMARK    4  A    between atoms: N_9  and  C_11
REMARK    5  A    between atoms: N_12  and  C_13
REMARK                            x       y       z     vdW  Elec       q    Type
REMARK                         _______ _______ _______ _____ _____    ______ ____
ROOT
ATOM      1  N   UNL     1       0.711  -0.489   1.189  0.00  0.00    -0.340 N 
ATOM      2  H   UNL     1       1.654  -0.707   1.135  0.00  0.00    +0.146 HD
ENDROOT
BRANCH   1   3
ATOM      3  C   UNL     1       0.026  -0.639   2.401  0.00  0.00    +0.050 A 
ATOM      4  C   UNL     1      -1.326  -0.333   2.477  0.00  0.00    +0.073 A 
ATOM      5  C   UNL     1      -2.005  -0.482   3.676  0.00  0.00    +0.164 A 
ATOM      6  C   UNL     1      -1.330  -0.940   4.802  0.00  0.00    +0.164 A 
ATOM      7  C   UNL     1       0.021  -1.243   4.724  0.00  0.00    +0.071 A 
ATOM      8  C   UNL     1       0.697  -1.099   3.526  0.00  0.00    +0.065 A 
ATOM      9 CL   UNL     1       2.386  -1.488   3.431  0.00  0.00    -0.082 Cl
ATOM     10  O   UNL     1      -1.982  -1.100   5.988  0.00  0.00    -0.485 OA
ATOM     11  C   UNL     1      -3.242  -0.434   6.124  0.00  0.00    +0.270 C 
ATOM     12  C   UNL     1      -4.061  -0.692   4.852  0.00  0.00    +0.270 C 
ATOM     13  O   UNL     1      -3.329  -0.174   3.736  0.00  0.00    -0.485 OA
ENDBRANCH   1   3
BRANCH   1  15
ATOM     14  C   UNL     1      -0.019   1.526   0.010  0.00  0.00    +0.028 C 
ATOM     15  C   UNL     1       0.002  -0.004   0.002  0.00  0.00    +0.069 C 
BRANCH  15  16
ATOM     16  C   UNL     1       0.718  -0.497  -1.257  0.00  0.00    -0.008 C 
ATOM     17  C   UNL     1       0.738  -2.029  -1.267  0.00  0.00    +0.002 C 
ATOM     18  C   UNL     1       1.386  -2.513  -2.567  0.00  0.00    -0.018 C 
ATOM     19  C   UNL     1       0.620  -1.934  -3.759  0.00  0.00    -0.079 C 
ATOM     20  N   UNL     1       0.661  -0.468  -3.706  0.00  0.00    +0.378 N 
ATOM     21  C   UNL     1      -0.022   0.007  -2.497  0.00  0.00    -0.074 C 
ATOM     22  C   UNL     1      -0.009   0.082  -4.893  0.00  0.00    -0.096 C 
ATOM     23  H   UNL     1       1.621  -0.159  -3.691  0.00  0.00    -0.082 HD
ENDBRANCH  15  16
ENDBRANCH   1  15
TORSDOF 3
