REMARK  Name = ZINC05082962
REMARK  7 active torsions:
REMARK  status: ('A' for Active; 'I' for Inactive)
REMARK    1  A    between atoms: C_1  and  C_2
REMARK    2  A    between atoms: C_2  and  C_4
REMARK    3  A    between atoms: C_2  and  C_23
REMARK    4  A    between atoms: C_4  and  N_5
REMARK    5  A    between atoms: N_13  and  C_22
REMARK    6  A    between atoms: C_23  and  S_24
REMARK    7  A    between atoms: S_24  and  C_25
REMARK                            x       y       z     vdW  Elec       q    Type
REMARK                         _______ _______ _______ _____ _____    ______ ____
ROOT
ATOM      1  N   UNL     1      -0.397   2.642  -0.678  0.00  0.00    -0.306 N 
ATOM      2  C   UNL     1       0.461   1.612  -0.315  0.00  0.00    +0.153 A 
ATOM      3  C   UNL     1       0.362   0.209  -0.297  0.00  0.00    +0.280 A 
ATOM      4  O   UNL     1      -0.663  -0.341  -0.658  0.00  0.00    -0.265 OA
ATOM      5  N   UNL     1       1.416  -0.521   0.122  0.00  0.00    -0.273 N 
ATOM      6  H   UNL     1       1.350  -1.519   0.136  0.00  0.00    +0.173 HD
ATOM      7  C   UNL     1       2.554   0.072   0.523  0.00  0.00    +0.331 A 
ATOM      8  O   UNL     1       3.484  -0.619   0.894  0.00  0.00    -0.246 OA
ATOM      9  N   UNL     1       2.690   1.411   0.522  0.00  0.00    -0.280 N 
ATOM     10  C   UNL     1       1.643   2.215   0.102  0.00  0.00    +0.170 A 
ATOM     11  N   UNL     1       1.482   3.535  -0.009  0.00  0.00    -0.196 NA
ATOM     12  C   UNL     1       0.276   3.804  -0.468  0.00  0.00    +0.201 A 
ATOM     13  N   UNL     1      -0.222   5.065  -0.702  0.00  0.00    -0.301 N 
ATOM     14  C   UNL     1      -0.952   5.578   0.485  0.00  0.00    +0.108 C 
ATOM     15  C   UNL     1      -0.965   7.111   0.258  0.00  0.00    +0.020 C 
ATOM     16  C   UNL     1       0.425   7.380  -0.362  0.00  0.00    +0.020 C 
ATOM     17  C   UNL     1       0.872   6.029  -0.951  0.00  0.00    +0.108 C 
ATOM     18  C   UNL     1       3.947   2.019   0.967  0.00  0.00    +0.155 C 
ENDROOT
BRANCH   1  19
ATOM     19  C   UNL     1      -1.762   2.503  -1.190  0.00  0.00    +0.129 C 
BRANCH  19  21
ATOM     20  C   UNL     1      -1.030   1.120  -3.138  0.00  0.00    +0.010 C 
ATOM     21  C   UNL     1      -1.729   2.415  -2.717  0.00  0.00    +0.016 C 
BRANCH  21  22
ATOM     22  C   UNL     1      -3.159   2.422  -3.260  0.00  0.00    +0.079 C 
BRANCH  22  23
ATOM     23  S   UNL     1      -3.118   2.467  -5.072  0.00  0.00    -0.125 S 
BRANCH  23  24
ATOM     24  C   UNL     1      -4.817   2.471  -5.538  0.00  0.00    +0.008 A 
ATOM     25  C   UNL     1      -5.806   2.437  -4.562  0.00  0.00    +0.017 A 
ATOM     26  C   UNL     1      -7.137   2.446  -4.929  0.00  0.00    +0.039 A 
ATOM     27  C   UNL     1      -7.487   2.477  -6.269  0.00  0.00    +0.123 A 
ATOM     28  C   UNL     1      -6.504   2.505  -7.243  0.00  0.00    +0.039 A 
ATOM     29  C   UNL     1      -5.171   2.503  -6.881  0.00  0.00    +0.017 A 
ATOM     30  F   UNL     1      -8.790   2.481  -6.625  0.00  0.00    -0.205 F 
ENDBRANCH  23  24
ENDBRANCH  22  23
ENDBRANCH  21  22
ENDBRANCH  19  21
ENDBRANCH   1  19
TORSDOF 5
