REMARK  Name = ZINC33331959
REMARK  7 active torsions:
REMARK  status: ('A' for Active; 'I' for Inactive)
REMARK    1  A    between atoms: C_1  and  C_2
REMARK    2  A    between atoms: C_8  and  N_10
REMARK    3  A    between atoms: C_11  and  C_13
REMARK    4  A    between atoms: C_13  and  C_35
REMARK    5  A    between atoms: N_25  and  C_26
REMARK    6  A    between atoms: C_29  and  O_33
REMARK    7  A    between atoms: O_33  and  C_34
REMARK                            x       y       z     vdW  Elec       q    Type
REMARK                         _______ _______ _______ _____ _____    ______ ____
ROOT
ATOM      1  C   UNL     1      -3.706   3.717  -0.055  0.00  0.00    +0.133 C 
ATOM      2  C   UNL     1      -4.779   4.251   0.894  0.00  0.00    +0.158 C 
ATOM      3  N   UNL     1      -4.851   5.710   0.767  0.00  0.00    -0.331 N 
ATOM      4  C   UNL     1      -5.904   6.554   0.951  0.00  0.00    +0.088 A 
ATOM      5  C   UNL     1      -7.278   6.663   1.274  0.00  0.00    +0.067 A 
ATOM      6  C   UNL     1      -7.593   7.969   1.244  0.00  0.00    +0.198 A 
ATOM      7  O   UNL     1      -6.503   8.685   0.921  0.00  0.00    -0.461 OA
ATOM      8  C   UNL     1      -5.454   7.856   0.732  0.00  0.00    +0.153 A 
ATOM      9  C   UNL     1      -4.093   7.784   0.401  0.00  0.00    +0.079 A 
ATOM     10  C   UNL     1      -3.736   6.468   0.419  0.00  0.00    +0.109 A 
ATOM     11  C   UNL     1      -2.450   5.823   0.134  0.00  0.00    +0.268 C 
ATOM     12  O   UNL     1      -1.426   6.468   0.001  0.00  0.00    -0.268 OA
ATOM     13  N   UNL     1      -2.462   4.474   0.024  0.00  0.00    -0.250 N 
ATOM     14  C   UNL     1      -3.419   2.256   0.296  0.00  0.00    +0.044 C 
ENDROOT
BRANCH  13  15
ATOM     15  C   UNL     1      -1.244   3.784  -0.011  0.00  0.00    +0.039 A 
ATOM     16  C   UNL     1      -0.848   3.019   1.078  0.00  0.00    +0.027 A 
ATOM     17  C   UNL     1       0.354   2.340   1.044  0.00  0.00    +0.049 A 
ATOM     18  C   UNL     1       1.165   2.420  -0.078  0.00  0.00    +0.138 A 
ATOM     19  C   UNL     1       0.770   3.184  -1.167  0.00  0.00    +0.084 A 
ATOM     20  C   UNL     1      -0.429   3.869  -1.132  0.00  0.00    +0.047 A 
ATOM     21 CL   UNL     1       1.786   3.284  -2.571  0.00  0.00    -0.080 Cl
BRANCH  18  22
ATOM     22  O   UNL     1       2.348   1.750  -0.110  0.00  0.00    -0.494 OA
ATOM     23  C   UNL     1       2.691   0.983   1.046  0.00  0.00    +0.277 C 
ENDBRANCH  18  22
ENDBRANCH  13  15
BRANCH   1  25
ATOM     24  N   UNL     1      -3.369   3.802  -2.504  0.00  0.00    -0.310 N 
ATOM     25  C   UNL     1      -4.229   3.785  -1.466  0.00  0.00    +0.239 C 
ATOM     26  O   UNL     1      -5.425   3.824  -1.669  0.00  0.00    -0.273 OA
ATOM     27  H   UNL     1      -2.285   3.767  -2.320  0.00  0.00    +0.149 HD
BRANCH  24  34
ATOM     28  C   UNL     1      -2.481   5.896  -4.297  0.00  0.00    +0.009 C 
ATOM     29  C   UNL     1      -2.813   4.485  -4.785  0.00  0.00    +0.006 C 
ATOM     30  C   UNL     1      -1.550   3.623  -4.751  0.00  0.00    +0.005 C 
ATOM     31  C   UNL     1      -1.883   2.211  -5.240  0.00  0.00    +0.000 C 
ATOM     32  C   UNL     1      -2.947   1.594  -4.330  0.00  0.00    +0.002 C 
ATOM     33  C   UNL     1      -4.211   2.457  -4.365  0.00  0.00    +0.022 C 
ATOM     34  C   UNL     1      -3.878   3.868  -3.876  0.00  0.00    +0.076 C 
ENDBRANCH  24  34
ENDBRANCH   1  25
TORSDOF 4
