REMARK  Name = ZINC67244581
REMARK  9 active torsions:
REMARK  status: ('A' for Active; 'I' for Inactive)
REMARK    1  A    between atoms: C_1  and  C_2
REMARK    2  A    between atoms: C_2  and  O_3
REMARK    3  A    between atoms: O_3  and  C_4
REMARK    4  A    between atoms: C_4  and  C_6
REMARK    5  A    between atoms: C_10  and  S_12
REMARK    6  A    between atoms: S_12  and  N_15
REMARK    7  A    between atoms: C_17  and  N_26
REMARK    8  A    between atoms: N_26  and  C_27
REMARK    9  A    between atoms: N_26  and  C_28
REMARK                            x       y       z     vdW  Elec       q    Type
REMARK                         _______ _______ _______ _____ _____    ______ ____
ROOT
ATOM      1  S   UNL     1      -4.506  -6.093   0.027  0.00  0.00    +0.075 S 
ATOM      2  O   UNL     1      -3.314  -6.645   0.568  0.00  0.00    -0.150 OA
ATOM      3  O   UNL     1      -5.787  -6.347   0.589  0.00  0.00    -0.150 OA
ENDROOT
BRANCH   1   4
ATOM      4  N   UNL     1      -4.578  -6.578  -1.554  0.00  0.00    -0.204 N 
ATOM      5  C   UNL     1      -5.874  -6.743  -2.227  0.00  0.00    +0.117 C 
ATOM      6  C   UNL     1      -5.831  -8.061  -3.011  0.00  0.00    -0.046 C 
ATOM      7  C   UNL     1      -4.753  -7.960  -4.089  0.00  0.00    +0.023 C 
ATOM      8  C   UNL     1      -3.450  -7.501  -3.490  0.00  0.00    -0.026 A 
ATOM      9  C   UNL     1      -3.405  -6.833  -2.274  0.00  0.00    +0.054 A 
ATOM     10  C   UNL     1      -2.187  -6.413  -1.753  0.00  0.00    +0.025 A 
ATOM     11  C   UNL     1      -1.018  -6.658  -2.446  0.00  0.00    +0.002 A 
ATOM     12  C   UNL     1      -1.061  -7.320  -3.658  0.00  0.00    +0.000 A 
ATOM     13  C   UNL     1      -2.273  -7.749  -4.175  0.00  0.00    +0.005 A 
BRANCH   6  14
ATOM     14  N   UNL     1      -7.137  -8.303  -3.638  0.00  0.00    +0.379 N 
ATOM     15  C   UNL     1      -7.094  -9.566  -4.388  0.00  0.00    -0.096 C 
ATOM     16  C   UNL     1      -8.172  -8.386  -2.599  0.00  0.00    -0.096 C 
ATOM     17  H   UNL     1      -7.353  -7.545  -4.268  0.00  0.00    -0.082 HD
ENDBRANCH   6  14
ENDBRANCH   1   4
BRANCH   1  22
ATOM     18  C   UNL     1      -2.861  -2.417   0.016  0.00  0.00    +0.061 A 
ATOM     19  C   UNL     1      -3.984  -1.586   0.026  0.00  0.00    +0.015 A 
ATOM     20  C   UNL     1      -5.247  -2.139   0.036  0.00  0.00    +0.003 A 
ATOM     21  C   UNL     1      -5.404  -3.514   0.036  0.00  0.00    +0.029 A 
ATOM     22  C   UNL     1      -4.296  -4.343   0.026  0.00  0.00    +0.109 A 
ATOM     23  C   UNL     1      -3.026  -3.803   0.010  0.00  0.00    +0.043 A 
BRANCH  18  24
ATOM     24  C   UNL     1      -1.505  -1.831   0.005  0.00  0.00    +0.339 C 
ATOM     25  O   UNL     1      -0.530  -2.556  -0.009  0.00  0.00    -0.245 OA
BRANCH  24  26
ATOM     26  O   UNL     1      -1.349  -0.493   0.011  0.00  0.00    -0.461 OA
BRANCH  26  28
ATOM     27  C   UNL     1      -0.033   1.534   0.009  0.00  0.00    +0.048 C 
ATOM     28  C   UNL     1      -0.009   0.004  -0.000  0.00  0.00    +0.229 C 
ENDBRANCH  26  28
ENDBRANCH  24  26
ENDBRANCH  18  24
ENDBRANCH   1  22
TORSDOF 6
