REMARK  Name = ZINC05817606
REMARK  5 active torsions:
REMARK  status: ('A' for Active; 'I' for Inactive)
REMARK    1  A    between atoms: C_1  and  C_2
REMARK    2  A    between atoms: C_2  and  N_3
REMARK    3  A    between atoms: C_14  and  C_25
REMARK    4  A    between atoms: C_20  and  N_24
REMARK    5  A    between atoms: C_21  and  C_22
REMARK                            x       y       z     vdW  Elec       q    Type
REMARK                         _______ _______ _______ _____ _____    ______ ____
ROOT
ATOM      1  N   UNL     1       0.688  -0.476  -1.203  0.00  0.00    -0.270 N 
ATOM      2  C   UNL     1       0.052  -0.731  -2.406  0.00  0.00    +0.041 A 
ATOM      3  C   UNL     1      -1.298  -0.607  -2.738  0.00  0.00    +0.024 A 
ATOM      4  C   UNL     1      -1.665  -0.933  -4.034  0.00  0.00    +0.002 A 
ATOM      5  C   UNL     1      -0.744  -1.365  -4.967  0.00  0.00    +0.000 A 
ATOM      6  C   UNL     1       0.604  -1.494  -4.649  0.00  0.00    +0.007 A 
ATOM      7  C   UNL     1       0.976  -1.171  -3.362  0.00  0.00    -0.001 A 
ATOM      8  C   UNL     1       2.306  -1.187  -2.680  0.00  0.00    +0.145 C 
ATOM      9  C   UNL     1       2.015  -0.709  -1.274  0.00  0.00    +0.240 C 
ATOM     10  O   UNL     1       2.822  -0.565  -0.380  0.00  0.00    -0.274 OA
ATOM     11  C   UNL     1       3.278  -0.259  -3.352  0.00  0.00    +0.061 A 
ATOM     12  C   UNL     1       3.280   1.127  -3.418  0.00  0.00    +0.068 A 
ATOM     13  N   UNL     1       4.327   1.501  -4.115  0.00  0.00    -0.176 NA
ATOM     14  N   UNL     1       5.027   0.352  -4.516  0.00  0.00    -0.246 N 
ATOM     15  H   UNL     1       5.841   0.334  -5.043  0.00  0.00    +0.192 HD
ATOM     16  C   UNL     1       4.370  -0.717  -4.039  0.00  0.00    +0.223 A 
ATOM     17  O   UNL     1       4.654  -2.037  -4.162  0.00  0.00    -0.423 OA
ATOM     18  C   UNL     1       3.987  -2.904  -3.372  0.00  0.00    +0.201 C 
ATOM     19  C   UNL     1       2.889  -2.573  -2.653  0.00  0.00    +0.110 C 
ATOM     20  C   UNL     1       2.257   2.044  -2.798  0.00  0.00    +0.068 C 
ENDROOT
BRANCH  18  21
ATOM     21  N   UNL     1       4.450  -4.194  -3.291  0.00  0.00    -0.328 N 
ATOM     22  H   UNL     1       5.236  -4.460  -3.794  0.00  0.00    +0.145 HD
ATOM     23  H   UNL     1       3.992  -4.839  -2.730  0.00  0.00    +0.145 HD
ENDBRANCH  18  21
BRANCH   1  25
ATOM     24  C   UNL     1      -0.019   1.526   0.010  0.00  0.00    +0.025 C 
ATOM     25  C   UNL     1       0.002  -0.004   0.002  0.00  0.00    +0.110 C 
ENDBRANCH   1  25
BRANCH  19  26
ATOM     26  C   UNL     1       2.262  -3.574  -1.844  0.00  0.00    +0.102 C 
ATOM     27  N   UNL     1       1.765  -4.368  -1.202  0.00  0.00    -0.191 NA
ENDBRANCH  19  26
TORSDOF 3
