REMARK  Name = ZINC11997538
REMARK  4 active torsions:
REMARK  status: ('A' for Active; 'I' for Inactive)
REMARK    1  A    between atoms: C_4  and  N_8
REMARK    2  A    between atoms: N_8  and  S_9
REMARK    3  A    between atoms: S_9  and  C_12
REMARK    4  A    between atoms: C_15  and  N_18
REMARK                            x       y       z     vdW  Elec       q    Type
REMARK                         _______ _______ _______ _____ _____    ______ ____
ROOT
ATOM      1  C   UNL     1      -0.008   1.843   0.141  0.00  0.00    +0.109 A 
ATOM      2  C   UNL     1      -1.225   2.500   0.154  0.00  0.00    +0.030 A 
ATOM      3  C   UNL     1      -1.266   3.878   0.247  0.00  0.00    +0.027 A 
ATOM      4  C   UNL     1      -0.084   4.603   0.316  0.00  0.00    +0.059 A 
ATOM      5  C   UNL     1       1.136   3.941   0.297  0.00  0.00    +0.027 A 
ATOM      6  C   UNL     1       1.170   2.563   0.210  0.00  0.00    +0.030 A 
ENDROOT
BRANCH   4   7
ATOM      7  N   UNL     1      -0.122   5.999   0.405  0.00  0.00    -0.144 N 
ATOM      8  C   UNL     1       0.827   6.782   0.939  0.00  0.00    +0.240 C 
ATOM      9  O   UNL     1       1.852   6.304   1.377  0.00  0.00    -0.274 OA
ATOM     10  C   UNL     1       0.595   8.263   0.977  0.00  0.00    +0.122 C 
ATOM     11  C   UNL     1      -0.519   8.618  -0.043  0.00  0.00    +0.198 C 
ATOM     12  S   UNL     1      -1.365   6.987  -0.129  0.00  0.00    +0.052 S 
ATOM     13  O   UNL     1      -1.603   6.609  -1.478  0.00  0.00    -0.155 OA
ATOM     14  O   UNL     1      -2.383   6.891   0.857  0.00  0.00    -0.155 OA
ENDBRANCH   4   7
BRANCH   1  15
ATOM     15  S   UNL     1       0.040   0.085   0.030  0.00  0.00    +0.072 S 
ATOM     16  O   UNL     1      -1.229  -0.325  -0.462  0.00  0.00    -0.150 OA
ATOM     17  O   UNL     1       1.255  -0.247  -0.628  0.00  0.00    -0.150 OA
BRANCH  15  18
ATOM     18  N   UNL     1       0.162  -0.500   1.574  0.00  0.00    -0.213 N 
ATOM     19  H   UNL     1       0.967  -0.961   1.856  0.00  0.00    +0.174 HD
BRANCH  18  23
ATOM     20  C   UNL     1      -2.993   0.006   4.248  0.00  0.00    +0.003 A 
ATOM     21  C   UNL     1      -3.134  -0.847   3.168  0.00  0.00    +0.022 A 
ATOM     22  C   UNL     1      -2.090  -1.017   2.279  0.00  0.00    +0.065 A 
ATOM     23  C   UNL     1      -0.897  -0.331   2.471  0.00  0.00    +0.085 A 
ATOM     24  C   UNL     1      -0.757   0.520   3.561  0.00  0.00    +0.065 A 
ATOM     25  C   UNL     1      -1.808   0.690   4.443  0.00  0.00    +0.022 A 
ATOM     26 CL   UNL     1       0.734   1.374   3.811  0.00  0.00    -0.082 Cl
ATOM     27 CL   UNL     1      -2.268  -2.087   0.924  0.00  0.00    -0.082 Cl
ENDBRANCH  18  23
ENDBRANCH  15  18
ENDBRANCH   1  15
TORSDOF 4
