REMARK  Name = ZINC00150453
REMARK  8 active torsions:
REMARK  status: ('A' for Active; 'I' for Inactive)
REMARK    1  A    between atoms: C_1  and  C_2
REMARK    2  A    between atoms: C_2  and  C_3
REMARK    3  A    between atoms: C_2  and  C_4
REMARK    4  A    between atoms: C_2  and  C_5
REMARK    5  A    between atoms: N_16  and  C_19
REMARK    6  A    between atoms: C_19  and  C_20
REMARK    7  A    between atoms: C_20  and  O_22
REMARK    8  A    between atoms: O_22  and  C_23
REMARK                            x       y       z     vdW  Elec       q    Type
REMARK                         _______ _______ _______ _____ _____    ______ ____
ROOT
ATOM      1  C   UNL     1       0.718  -0.497  -1.257  0.00  0.00    -0.000 C 
ATOM      2  C   UNL     1       0.748  -2.029  -1.264  0.00  0.00    +0.009 C 
ATOM      3  C   UNL     1       1.237  -2.532  -2.621  0.00  0.00    +0.037 C 
ATOM      4  C   UNL     1       2.560  -1.848  -2.958  0.00  0.00    -0.023 A 
ATOM      5  C   UNL     1       2.925  -0.709  -2.325  0.00  0.00    -0.004 A 
ATOM      6  S   UNL     1       4.501  -0.277  -3.019  0.00  0.00    -0.073 S 
ATOM      7  C   UNL     1       4.665  -1.619  -4.153  0.00  0.00    +0.116 A 
ATOM      8  C   UNL     1       3.482  -2.365  -3.954  0.00  0.00    +0.076 A 
ATOM      9  C   UNL     1       3.315  -3.548  -4.749  0.00  0.00    +0.263 A 
ATOM     10  O   UNL     1       2.330  -4.260  -4.654  0.00  0.00    -0.267 OA
ATOM     11  N   UNL     1       4.322  -3.821  -5.613  0.00  0.00    -0.288 N 
ATOM     12  C   UNL     1       5.424  -3.043  -5.734  0.00  0.00    +0.203 A 
ATOM     13  N   UNL     1       5.613  -1.953  -5.024  0.00  0.00    -0.230 NA
ATOM     14  C   UNL     1       2.162   0.025  -1.267  0.00  0.00    +0.046 C 
ENDROOT
BRANCH   1  16
ATOM     15  C   UNL     1      -0.019   1.526   0.010  0.00  0.00    +0.011 C 
ATOM     16  C   UNL     1       0.002  -0.004   0.002  0.00  0.00    -0.035 C 
ATOM     17  C   UNL     1       0.742  -0.511   1.242  0.00  0.00    +0.011 C 
ATOM     18  C   UNL     1      -1.433  -0.534   0.013  0.00  0.00    +0.011 C 
ENDBRANCH   1  16
BRANCH  11  19
ATOM     19  C   UNL     1       4.214  -5.015  -6.455  0.00  0.00    +0.246 C 
BRANCH  19  20
ATOM     20  C   UNL     1       3.525  -4.658  -7.747  0.00  0.00    +0.327 C 
ATOM     21  O   UNL     1       3.161  -3.523  -7.944  0.00  0.00    -0.249 OA
BRANCH  20  22
ATOM     22  O   UNL     1       3.315  -5.601  -8.679  0.00  0.00    -0.467 OA
ATOM     23  C   UNL     1       2.646  -5.185  -9.898  0.00  0.00    +0.280 C 
ENDBRANCH  20  22
ENDBRANCH  19  20
ENDBRANCH  11  19
TORSDOF 4
