REMARK  Name = ZINC39992140
REMARK  7 active torsions:
REMARK  status: ('A' for Active; 'I' for Inactive)
REMARK    1  A    between atoms: C_1  and  C_2
REMARK    2  A    between atoms: C_2  and  N_3
REMARK    3  A    between atoms: C_4  and  C_6
REMARK    4  A    between atoms: C_8  and  N_17
REMARK    5  A    between atoms: C_18  and  C_20
REMARK    6  A    between atoms: C_20  and  C_31
REMARK    7  A    between atoms: C_21  and  C_22
REMARK                            x       y       z     vdW  Elec       q    Type
REMARK                         _______ _______ _______ _____ _____    ______ ____
ROOT
ATOM      1  N   UNL     1      -3.065  -0.782  -1.585  0.00  0.00    -0.298 N 
ATOM      2  C   UNL     1      -2.949  -0.641  -2.920  0.00  0.00    +0.255 C 
ATOM      3  O   UNL     1      -3.450  -1.462  -3.664  0.00  0.00    -0.269 OA
ATOM      4  H   UNL     1      -2.736  -0.087  -0.994  0.00  0.00    +0.150 HD
ENDROOT
BRANCH   1   6
ATOM      5  C   UNL     1      -2.945  -2.472   0.242  0.00  0.00    +0.132 C 
ATOM      6  C   UNL     1      -3.686  -1.986  -1.027  0.00  0.00    +0.152 C 
ATOM      7  S   UNL     1      -3.399  -3.456  -2.099  0.00  0.00    -0.106 S 
ATOM      8  C   UNL     1      -3.082  -4.650  -0.820  0.00  0.00    -0.013 C 
ATOM      9  C   UNL     1      -2.881  -3.977   0.303  0.00  0.00    -0.046 C 
ATOM     10  C   UNL     1      -2.591  -4.708   1.613  0.00  0.00    +0.032 C 
ATOM     11  C   UNL     1      -3.027  -6.166   1.481  0.00  0.00    +0.005 C 
ATOM     12  C   UNL     1      -2.396  -6.775   0.224  0.00  0.00    +0.005 C 
ATOM     13  C   UNL     1      -3.054  -6.142  -1.000  0.00  0.00    +0.042 C 
BRANCH   5  15
ATOM     14  N   UNL     1      -1.307  -0.672   0.688  0.00  0.00    -0.315 N 
ATOM     15  C   UNL     1      -1.543  -1.919   0.234  0.00  0.00    +0.223 C 
ATOM     16  O   UNL     1      -0.626  -2.597  -0.180  0.00  0.00    -0.275 OA
ATOM     17  H   UNL     1      -2.026  -0.157   1.085  0.00  0.00    +0.149 HD
BRANCH  14  19
ATOM     18  C   UNL     1       0.061   1.268   1.276  0.00  0.00    +0.024 C 
ATOM     19  C   UNL     1       0.035  -0.095   0.580  0.00  0.00    +0.101 C 
ENDBRANCH  14  19
ENDBRANCH   5  15
ENDBRANCH   1   6
BRANCH   2  20
ATOM     20  C   UNL     1      -2.217   0.509  -3.479  0.00  0.00    +0.114 C 
ATOM     21  C   UNL     1      -2.186   0.712  -4.850  0.00  0.00    +0.030 C 
BRANCH  21  22
ATOM     22  C   UNL     1      -1.490   1.804  -5.380  0.00  0.00    -0.018 C 
ATOM     23  C   UNL     1      -1.365   2.151  -6.721  0.00  0.00    +0.003 A 
ATOM     24  C   UNL     1      -1.855   1.573  -7.911  0.00  0.00    +0.010 A 
ATOM     25  C   UNL     1      -1.573   2.135  -9.110  0.00  0.00    +0.001 A 
ATOM     26  C   UNL     1      -0.797   3.295  -9.231  0.00  0.00    +0.002 A 
ATOM     27  C   UNL     1      -0.281   3.925  -8.151  0.00  0.00    +0.026 A 
ATOM     28  C   UNL     1      -0.542   3.378  -6.812  0.00  0.00    +0.043 A 
ATOM     29  N   UNL     1      -0.175   3.774  -5.622  0.00  0.00    -0.380 N 
ATOM     30  C   UNL     1      -0.720   2.858  -4.615  0.00  0.00    +0.149 C 
ATOM     31  H   UNL     1       0.369   4.554  -5.434  0.00  0.00    +0.160 HD
ENDBRANCH  21  22
BRANCH  20  32
ATOM     32  C   UNL     1      -1.537   1.418  -2.605  0.00  0.00    +0.104 C 
ATOM     33  N   UNL     1      -0.997   2.138  -1.913  0.00  0.00    -0.191 NA
ENDBRANCH  20  32
ENDBRANCH   2  20
TORSDOF 6
