REMARK  Name = ZINC00368811
REMARK  7 active torsions:
REMARK  status: ('A' for Active; 'I' for Inactive)
REMARK    1  A    between atoms: C_1  and  C_2
REMARK    2  A    between atoms: C_2  and  C_3
REMARK    3  A    between atoms: C_2  and  C_4
REMARK    4  A    between atoms: C_2  and  C_5
REMARK    5  A    between atoms: C_12  and  N_16
REMARK    6  A    between atoms: C_13  and  C_14
REMARK    7  A    between atoms: C_17  and  C_19
REMARK                            x       y       z     vdW  Elec       q    Type
REMARK                         _______ _______ _______ _____ _____    ______ ____
ROOT
ATOM      1  C   UNL     1      10.523  -0.345  -0.097  0.00  0.00    -0.000 C 
ATOM      2  C   UNL     1      10.467  -0.521  -1.617  0.00  0.00    +0.009 C 
ATOM      3  C   UNL     1       9.168  -1.226  -2.012  0.00  0.00    +0.037 C 
ATOM      4  C   UNL     1       7.996  -0.479  -1.387  0.00  0.00    -0.018 A 
ATOM      5  C   UNL     1       8.183   0.370  -0.352  0.00  0.00    -0.004 A 
ATOM      6  S   UNL     1       6.569   0.992   0.020  0.00  0.00    -0.077 S 
ATOM      7  C   UNL     1       5.655   0.130  -1.174  0.00  0.00    +0.090 A 
ATOM      8  C   UNL     1       6.621  -0.612  -1.836  0.00  0.00    +0.084 A 
ATOM      9  C   UNL     1       9.480   0.703   0.318  0.00  0.00    +0.047 C 
ENDROOT
BRANCH   1  11
ATOM     10  C   UNL     1      11.966   0.322   1.830  0.00  0.00    +0.011 C 
ATOM     11  C   UNL     1      11.918   0.130   0.313  0.00  0.00    -0.035 C 
ATOM     12  C   UNL     1      12.955  -0.917  -0.102  0.00  0.00    +0.011 C 
ATOM     13  C   UNL     1      12.229   1.458  -0.379  0.00  0.00    +0.011 C 
ENDBRANCH   1  11
BRANCH   7  14
ATOM     14  N   UNL     1       4.288   0.176  -1.413  0.00  0.00    -0.277 N 
ATOM     15  C   UNL     1       3.498   0.965  -0.657  0.00  0.00    +0.246 C 
ATOM     16  O   UNL     1       3.982   1.635   0.231  0.00  0.00    -0.273 OA
ATOM     17  H   UNL     1       3.902  -0.359  -2.123  0.00  0.00    +0.155 HD
BRANCH  15  18
ATOM     18  C   UNL     1       2.015   1.015  -0.917  0.00  0.00    +0.204 C 
ATOM     19  C   UNL     1       1.371  -0.357  -0.622  0.00  0.00    +0.043 C 
ATOM     20  C   UNL     1       0.002  -0.004   0.002  0.00  0.00    +0.031 C 
ATOM     21  C   UNL     1      -0.019   1.541   0.011  0.00  0.00    +0.161 C 
ATOM     22  O   UNL     1       1.372   1.929  -0.001  0.00  0.00    -0.367 OA
ENDBRANCH  15  18
ENDBRANCH   7  14
BRANCH   8  23
ATOM     23  C   UNL     1       6.275  -1.477  -2.924  0.00  0.00    +0.102 C 
ATOM     24  N   UNL     1       6.001  -2.163  -3.787  0.00  0.00    -0.191 NA
ENDBRANCH   8  23
TORSDOF 4
