REMARK  Name = ZINC07087373
REMARK  12 active torsions:
REMARK  status: ('A' for Active; 'I' for Inactive)
REMARK    1  A    between atoms: C_1  and  C_2
REMARK    2  A    between atoms: C_2  and  N_3
REMARK    3  A    between atoms: C_4  and  C_6
REMARK    4  A    between atoms: C_6  and  C_8
REMARK    5  A    between atoms: C_6  and  S_9
REMARK    6  A    between atoms: S_9  and  C_10
REMARK    7  A    between atoms: C_13  and  C_21
REMARK    8  A    between atoms: N_14  and  C_15
REMARK    9  A    between atoms: C_24  and  C_27
REMARK   10  A    between atoms: C_27  and  C_28
REMARK   11  A    between atoms: C_27  and  C_29
REMARK   12  A    between atoms: C_27  and  C_30
REMARK                            x       y       z     vdW  Elec       q    Type
REMARK                         _______ _______ _______ _____ _____    ______ ____
ROOT
ATOM      1  C   UNL     1      -4.768  -4.526   0.581  0.00  0.00    +0.193 A 
ATOM      2  N   UNL     1      -5.703  -3.606   0.672  0.00  0.00    -0.122 NA
ATOM      3  N   UNL     1      -6.820  -4.144   1.010  0.00  0.00    -0.128 NA
ATOM      4  C   UNL     1      -6.668  -5.439   1.154  0.00  0.00    +0.165 A 
ATOM      5  N   UNL     1      -5.350  -5.724   0.879  0.00  0.00    -0.299 N 
ENDROOT
BRANCH   5   6
ATOM      6  C   UNL     1      -4.705  -7.040   0.903  0.00  0.00    +0.091 C 
ATOM      7  C   UNL     1      -3.659  -7.075   2.018  0.00  0.00    +0.025 C 
ATOM      8  C   UNL     1      -2.986  -8.448   2.043  0.00  0.00    +0.002 C 
ATOM      9  C   UNL     1      -2.305  -8.707   0.698  0.00  0.00    +0.000 C 
ATOM     10  C   UNL     1      -3.351  -8.672  -0.418  0.00  0.00    +0.002 C 
ATOM     11  C   UNL     1      -4.025  -7.298  -0.443  0.00  0.00    +0.025 C 
ENDBRANCH   5   6
BRANCH   4  12
ATOM     12  C   UNL     1      -7.715  -6.410   1.536  0.00  0.00    +0.019 A 
ATOM     13  C   UNL     1      -7.383  -7.546   2.274  0.00  0.00    +0.012 A 
ATOM     14  C   UNL     1      -8.366  -8.448   2.627  0.00  0.00    +0.005 A 
ATOM     15  C   UNL     1      -9.679  -8.228   2.250  0.00  0.00    -0.042 A 
ATOM     16  C   UNL     1     -10.015  -7.104   1.517  0.00  0.00    +0.005 A 
ATOM     17  C   UNL     1      -9.043  -6.191   1.163  0.00  0.00    +0.012 A 
BRANCH  15  18
ATOM     18  C   UNL     1     -10.747  -9.217   2.639  0.00  0.00    -0.013 C 
ATOM     19  C   UNL     1     -10.811  -9.325   4.164  0.00  0.00    +0.015 C 
ATOM     20  C   UNL     1     -12.100  -8.743   2.104  0.00  0.00    +0.015 C 
ATOM     21  C   UNL     1     -10.414 -10.587   2.045  0.00  0.00    +0.015 C 
ENDBRANCH  15  18
ENDBRANCH   4  12
BRANCH   1  22
ATOM     22  S   UNL     1      -3.080  -4.262   0.149  0.00  0.00    -0.074 S 
BRANCH  22  23
ATOM     23  C   UNL     1      -2.970  -2.471  -0.117  0.00  0.00    +0.137 C 
ATOM     24  C   UNL     1      -3.829  -2.080  -1.321  0.00  0.00    +0.029 C 
BRANCH  23  26
ATOM     25  N   UNL     1      -1.113  -0.837  -0.110  0.00  0.00    -0.315 N 
ATOM     26  C   UNL     1      -1.536  -2.089  -0.377  0.00  0.00    +0.226 C 
ATOM     27  O   UNL     1      -0.763  -2.907  -0.828  0.00  0.00    -0.275 OA
ATOM     28  H   UNL     1      -1.731  -0.183   0.250  0.00  0.00    +0.149 HD
BRANCH  25  30
ATOM     29  C   UNL     1       0.498   0.998   0.023  0.00  0.00    +0.024 C 
ATOM     30  C   UNL     1       0.282  -0.466  -0.363  0.00  0.00    +0.101 C 
ENDBRANCH  25  30
ENDBRANCH  23  26
ENDBRANCH  22  23
ENDBRANCH   1  22
TORSDOF 7
