REMARK  Name = ZINC34778362
REMARK  7 active torsions:
REMARK  status: ('A' for Active; 'I' for Inactive)
REMARK    1  A    between atoms: C_1  and  C_2
REMARK    2  A    between atoms: N_6  and  C_24
REMARK    3  A    between atoms: N_9  and  C_16
REMARK    4  A    between atoms: C_12  and  C_13
REMARK    5  A    between atoms: C_13  and  C_15
REMARK    6  A    between atoms: C_16  and  C_17
REMARK    7  A    between atoms: C_24  and  C_25
REMARK                            x       y       z     vdW  Elec       q    Type
REMARK                         _______ _______ _______ _____ _____    ______ ____
ROOT
ATOM      1  C   UNL     1      -0.018   1.503   0.010  0.00  0.00    +0.046 C 
ATOM      2  C   UNL     1       0.002  -0.004   0.002  0.00  0.00    -0.018 A 
ATOM      3  C   UNL     1       0.006  -0.730  -1.193  0.00  0.00    +0.074 A 
ATOM      4  C   UNL     1      -0.009  -0.217  -2.585  0.00  0.00    +0.266 A 
ATOM      5  O   UNL     1      -0.026   0.981  -2.801  0.00  0.00    -0.267 OA
ATOM      6  N   UNL     1      -0.002  -1.092  -3.606  0.00  0.00    -0.251 N 
ATOM      7  C   UNL     1       0.017  -2.419  -3.400  0.00  0.00    +0.334 A 
ATOM      8  O   UNL     1       0.022  -3.168  -4.358  0.00  0.00    -0.246 OA
ATOM      9  N   UNL     1       0.031  -2.938  -2.159  0.00  0.00    -0.283 N 
ATOM     10  C   UNL     1       0.026  -2.127  -1.061  0.00  0.00    +0.098 A 
ATOM     11  S   UNL     1       0.039  -2.415   0.586  0.00  0.00    -0.067 S 
ATOM     12  C   UNL     1       0.024  -0.733   1.174  0.00  0.00    +0.060 A 
ENDROOT
BRANCH  12  13
ATOM     13  C   UNL     1       0.030  -0.264   2.504  0.00  0.00    +0.167 C 
ATOM     14  O   UNL     1       0.016   0.929   2.728  0.00  0.00    -0.292 OA
ATOM     15  C   UNL     1       0.055  -1.245   3.649  0.00  0.00    +0.092 C 
ENDBRANCH  12  13
BRANCH   9  16
ATOM     16  C   UNL     1       0.052  -4.393  -1.984  0.00  0.00    +0.162 C 
BRANCH  16  17
ATOM     17  C   UNL     1       1.479  -4.872  -1.932  0.00  0.00    -0.027 A 
ATOM     18  C   UNL     1       2.131  -5.230  -3.098  0.00  0.00    +0.007 A 
ATOM     19  C   UNL     1       3.441  -5.670  -3.051  0.00  0.00    +0.020 A 
ATOM     20  C   UNL     1       4.099  -5.752  -1.837  0.00  0.00    +0.041 A 
ATOM     21  C   UNL     1       3.446  -5.394  -0.670  0.00  0.00    +0.020 A 
ATOM     22  C   UNL     1       2.139  -4.949  -0.719  0.00  0.00    +0.007 A 
ATOM     23 CL   UNL     1       5.744  -6.305  -1.777  0.00  0.00    -0.084 Cl
ENDBRANCH  16  17
ENDBRANCH   9  16
BRANCH   6  24
ATOM     24  C   UNL     1      -0.017  -0.584  -4.980  0.00  0.00    +0.225 C 
BRANCH  24  25
ATOM     25  C   UNL     1       1.399  -0.391  -5.459  0.00  0.00    +0.236 C 
ATOM     26  O   UNL     1       2.329  -0.651  -4.725  0.00  0.00    -0.274 OA
ATOM     27  N   UNL     1       1.632   0.072  -6.703  0.00  0.00    -0.300 N 
ATOM     28  C   UNL     1       0.603   0.432  -7.691  0.00  0.00    +0.108 C 
ATOM     29  C   UNL     1       1.336   0.883  -8.972  0.00  0.00    +0.020 C 
ATOM     30  C   UNL     1       2.729   0.215  -8.829  0.00  0.00    +0.020 C 
ATOM     31  C   UNL     1       2.960   0.307  -7.298  0.00  0.00    +0.108 C 
ENDBRANCH  24  25
ENDBRANCH   6  24
TORSDOF 5
