REMARK  Name = ZINC63294586
REMARK  7 active torsions:
REMARK  status: ('A' for Active; 'I' for Inactive)
REMARK    1  A    between atoms: C_1  and  O_2
REMARK    2  A    between atoms: O_2  and  C_3
REMARK    3  A    between atoms: C_6  and  C_9
REMARK    4  A    between atoms: C_11  and  C_14
REMARK    5  A    between atoms: C_14  and  C_15
REMARK    6  A    between atoms: C_25  and  O_30
REMARK    7  A    between atoms: O_30  and  C_31
REMARK                            x       y       z     vdW  Elec       q    Type
REMARK                         _______ _______ _______ _____ _____    ______ ____
ROOT
ATOM      1  C   UNL     1       2.217  -6.411   5.804  0.00  0.00    +0.222 C 
ATOM      2  O   UNL     1       1.212  -5.759   5.612  0.00  0.00    -0.275 OA
ATOM      3  N   UNL     1       2.131  -7.742   5.996  0.00  0.00    -0.297 N 
ATOM      4  C   UNL     1       3.338  -8.540   6.235  0.00  0.00    +0.110 C 
ATOM      5  C   UNL     1       3.233  -9.299   7.562  0.00  0.00    +0.048 C 
ATOM      6  C   UNL     1       2.013 -10.222   7.506  0.00  0.00    +0.109 C 
ATOM      7  C   UNL     1       0.814  -9.348   7.160  0.00  0.00    -0.021 C 
ATOM      8  C   UNL     1      -0.083  -9.543   8.116  0.00  0.00    +0.004 A 
ATOM      9  C   UNL     1      -1.453  -9.040   8.298  0.00  0.00    +0.055 A 
ATOM     10  C   UNL     1      -2.106  -9.437   9.425  0.00  0.00    +0.121 A 
ATOM     11  C   UNL     1      -1.549 -10.282  10.397  0.00  0.00    +0.047 A 
ATOM     12  C   UNL     1      -0.299 -10.806  10.327  0.00  0.00    +0.029 A 
ATOM     13  C   UNL     1       0.504 -10.452   9.149  0.00  0.00    +0.043 A 
ATOM     14  N   UNL     1       1.721 -10.825   8.807  0.00  0.00    -0.377 N 
ATOM     15  C   UNL     1       0.817  -8.419   5.973  0.00  0.00    +0.141 C 
ATOM     16  H   UNL     1       2.321 -11.391   9.318  0.00  0.00    +0.160 HD
ENDROOT
BRANCH  10  17
ATOM     17  O   UNL     1      -3.373  -8.987   9.621  0.00  0.00    -0.495 OA
ATOM     18  C   UNL     1      -4.038  -9.418  10.810  0.00  0.00    +0.277 C 
ENDBRANCH  10  17
BRANCH   1  19
ATOM     19  C   UNL     1       3.562  -5.732   5.829  0.00  0.00    +0.151 C 
BRANCH  19  22
ATOM     20  C   UNL     1       2.576  -2.539   4.291  0.00  0.00    +0.109 A 
ATOM     21  N   UNL     1       2.747  -3.833   4.524  0.00  0.00    -0.243 NA
ATOM     22  C   UNL     1       3.384  -4.254   5.591  0.00  0.00    +0.058 A 
ATOM     23  C   UNL     1       3.881  -3.357   6.482  0.00  0.00    +0.071 A 
ATOM     24  S   UNL     1       3.394  -1.819   5.708  0.00  0.00    -0.075 S 
BRANCH  20  28
ATOM     25  C   UNL     1       0.626  -0.618   1.041  0.00  0.00    +0.120 A 
ATOM     26  C   UNL     1       1.202   0.142   2.050  0.00  0.00    +0.046 A 
ATOM     27  C   UNL     1       1.835  -0.477   3.106  0.00  0.00    +0.014 A 
ATOM     28  C   UNL     1       1.897  -1.871   3.160  0.00  0.00    +0.007 A 
ATOM     29  C   UNL     1       1.317  -2.631   2.144  0.00  0.00    +0.014 A 
ATOM     30  C   UNL     1       0.680  -2.005   1.094  0.00  0.00    +0.046 A 
BRANCH  25  32
ATOM     31  C   UNL     1      -0.017   1.425   0.010  0.00  0.00    +0.277 C 
ATOM     32  O   UNL     1       0.002  -0.004   0.002  0.00  0.00    -0.495 OA
ENDBRANCH  25  32
ENDBRANCH  20  28
ENDBRANCH  19  22
ENDBRANCH   1  19
TORSDOF 5
