REMARK  Name = ZINC11878199
REMARK  11 active torsions:
REMARK  status: ('A' for Active; 'I' for Inactive)
REMARK    1  A    between atoms: C_1  and  C_2
REMARK    2  A    between atoms: C_2  and  C_31
REMARK    3  A    between atoms: N_8  and  C_9
REMARK    4  A    between atoms: C_16  and  N_58
REMARK    5  A    between atoms: C_19  and  C_20
REMARK    6  A    between atoms: C_19  and  N_58
REMARK    7  A    between atoms: C_22  and  O_29
REMARK    8  A    between atoms: C_23  and  O_28
REMARK    9  A    between atoms: C_24  and  O_26
REMARK   10  A    between atoms: O_26  and  C_27
REMARK   11  A    between atoms: O_29  and  C_30
REMARK                            x       y       z     vdW  Elec       q    Type
REMARK                         _______ _______ _______ _____ _____    ______ ____
ROOT
ATOM      1  C   UNL     1       3.547  -0.905   2.229  0.00  0.00    +0.011 C 
ATOM      2  C   UNL     1       4.015  -0.731   0.783  0.00  0.00    -0.031 C 
ATOM      3  C   UNL     1       3.610   0.660   0.280  0.00  0.00    +0.062 C 
ATOM      4  C   UNL     1       2.111   0.690   0.117  0.00  0.00    +0.047 A 
ATOM      5  C   UNL     1       1.329  -0.418   0.067  0.00  0.00    -0.020 A 
ATOM      6  C   UNL     1       0.006  -0.005  -0.086  0.00  0.00    +0.137 A 
ATOM      7  N   UNL     1      -0.009   1.305  -0.127  0.00  0.00    -0.174 NA
ATOM      8  N   UNL     1       1.310   1.765  -0.001  0.00  0.00    -0.236 N 
ATOM      9  C   UNL     1       1.853  -1.829   0.163  0.00  0.00    -0.037 C 
ATOM     10  C   UNL     1       3.365  -1.802  -0.097  0.00  0.00    -0.005 C 
ATOM     11  C   UNL     1       5.537  -0.873   0.719  0.00  0.00    +0.011 C 
ENDROOT
BRANCH   8  12
ATOM     12  C   UNL     1       1.721   3.105   0.001  0.00  0.00    +0.068 A 
ATOM     13  C   UNL     1       0.987   4.057   0.696  0.00  0.00    +0.028 A 
ATOM     14  C   UNL     1       1.396   5.376   0.701  0.00  0.00    +0.005 A 
ATOM     15  C   UNL     1       2.530   5.753   0.005  0.00  0.00    +0.038 A 
ATOM     16  C   UNL     1       3.262   4.808  -0.694  0.00  0.00    +0.125 A 
ATOM     17  C   UNL     1       2.859   3.484  -0.698  0.00  0.00    +0.066 A 
ATOM     18  F   UNL     1       4.369   5.179  -1.374  0.00  0.00    -0.205 F 
ENDBRANCH   8  12
BRANCH   9  19
ATOM     19  N   UNL     1       1.198  -2.674  -0.854  0.00  0.00    +0.386 N 
ATOM     20  H   UNL     1       1.810  -3.466  -1.081  0.00  0.00    -0.085 HD
ATOM     21  H   UNL     1       1.030  -2.117  -1.700  0.00  0.00    -0.085 HD
BRANCH  19  22
ATOM     22  C   UNL     1      -0.089  -3.184  -0.343  0.00  0.00    -0.046 C 
BRANCH  22  23
ATOM     23  C   UNL     1      -0.734  -4.042  -1.401  0.00  0.00    -0.057 A 
ATOM     24  C   UNL     1      -1.591  -3.471  -2.323  0.00  0.00    +0.051 A 
ATOM     25  C   UNL     1      -2.183  -4.256  -3.301  0.00  0.00    +0.165 A 
ATOM     26  C   UNL     1      -1.922  -5.621  -3.346  0.00  0.00    +0.201 A 
ATOM     27  C   UNL     1      -1.064  -6.192  -2.414  0.00  0.00    +0.165 A 
ATOM     28  C   UNL     1      -0.472  -5.399  -1.442  0.00  0.00    +0.051 A 
BRANCH  27  29
ATOM     29  O   UNL     1      -0.806  -7.526  -2.453  0.00  0.00    -0.491 OA
ATOM     30  C   UNL     1       0.085  -8.045  -1.464  0.00  0.00    +0.277 C 
ENDBRANCH  27  29
BRANCH  26  31
ATOM     31  O   UNL     1      -2.506  -6.396  -4.301  0.00  0.00    -0.501 OA
ATOM     32  H   UNL     1      -3.359  -6.768  -4.038  0.00  0.00    +0.292 HD
ENDBRANCH  26  31
BRANCH  25  33
ATOM     33  O   UNL     1      -3.022  -3.693  -4.211  0.00  0.00    -0.491 OA
ATOM     34  C   UNL     1      -3.244  -2.285  -4.105  0.00  0.00    +0.277 C 
ENDBRANCH  25  33
ENDBRANCH  22  23
ENDBRANCH  19  22
ENDBRANCH   9  19
TORSDOF 7
