REMARK  Name = ZINC29049238
REMARK  7 active torsions:
REMARK  status: ('A' for Active; 'I' for Inactive)
REMARK    1  A    between atoms: C_1  and  O_2
REMARK    2  A    between atoms: O_2  and  C_3
REMARK    3  A    between atoms: C_8  and  C_9
REMARK    4  A    between atoms: C_9  and  C_11
REMARK    5  A    between atoms: C_9  and  N_27
REMARK    6  A    between atoms: C_11  and  N_12
REMARK    7  A    between atoms: C_13  and  C_15
REMARK                            x       y       z     vdW  Elec       q    Type
REMARK                         _______ _______ _______ _____ _____    ______ ____
ROOT
ATOM      1  C   UNL     1       4.809  -2.861   0.005  0.00  0.00    +0.094 C 
ENDROOT
BRANCH   1   2
ATOM      2  N   UNL     1       3.546  -2.126  -0.101  0.00  0.00    -0.311 N 
ATOM      3  C   UNL     1       3.545  -0.778  -0.062  0.00  0.00    +0.260 C 
ATOM      4  O   UNL     1       4.593  -0.173   0.062  0.00  0.00    -0.269 OA
ATOM      5  H   UNL     1       2.599  -2.673  -0.212  0.00  0.00    +0.149 HD
BRANCH   3   6
ATOM      6  C   UNL     1       2.274  -0.038  -0.168  0.00  0.00    +0.105 A 
ATOM      7  C   UNL     1       2.298   1.317  -0.126  0.00  0.00    +0.039 A 
ATOM      8  C   UNL     1       1.042   2.061  -0.232  0.00  0.00    -0.011 A 
ATOM      9  C   UNL     1       1.008   3.456  -0.194  0.00  0.00    +0.009 A 
ATOM     10  C   UNL     1      -0.200   4.109  -0.297  0.00  0.00    +0.001 A 
ATOM     11  C   UNL     1      -1.382   3.394  -0.438  0.00  0.00    +0.001 A 
ATOM     12  C   UNL     1      -1.373   2.016  -0.471  0.00  0.00    +0.014 A 
ATOM     13  C   UNL     1      -0.162   1.334  -0.374  0.00  0.00    +0.046 A 
ATOM     14  C   UNL     1      -0.096  -0.134  -0.410  0.00  0.00    +0.257 A 
ATOM     15  O   UNL     1      -1.113  -0.792  -0.533  0.00  0.00    -0.267 OA
ATOM     16  N   UNL     1       1.100  -0.746  -0.307  0.00  0.00    -0.318 N 
ATOM     17  H   UNL     1       1.120  -1.845  -0.337  0.00  0.00    +0.169 HD
ENDBRANCH   3   6
ENDBRANCH   1   2
BRANCH   1  18
ATOM     18  C   UNL     1       4.522  -4.362   0.060  0.00  0.00    -0.017 C 
BRANCH  18  24
ATOM     19  C   UNL     1       6.597  -5.480  -0.796  0.00  0.00    +0.122 A 
ATOM     20  C   UNL     1       7.782  -6.170  -0.585  0.00  0.00    +0.046 A 
ATOM     21  C   UNL     1       8.175  -6.489   0.700  0.00  0.00    +0.004 A 
ATOM     22  C   UNL     1       7.388  -6.121   1.776  0.00  0.00    +0.000 A 
ATOM     23  C   UNL     1       6.210  -5.429   1.569  0.00  0.00    +0.005 A 
ATOM     24  C   UNL     1       5.809  -5.112   0.285  0.00  0.00    -0.018 A 
BRANCH  19  26
ATOM     25  C   UNL     1       7.069  -5.575  -3.124  0.00  0.00    +0.277 C 
ATOM     26  O   UNL     1       6.208  -5.165  -2.059  0.00  0.00    -0.495 OA
ENDBRANCH  19  26
ENDBRANCH  18  24
BRANCH  18  27
ATOM     27  N   UNL     1       3.592  -4.644   1.162  0.00  0.00    +0.385 N 
ATOM     28  C   UNL     1       3.601  -6.087   1.511  0.00  0.00    -0.078 C 
ATOM     29  C   UNL     1       3.024  -6.108   2.949  0.00  0.00    -0.020 C 
ATOM     30  C   UNL     1       3.629  -4.834   3.582  0.00  0.00    -0.020 C 
ATOM     31  C   UNL     1       3.997  -3.929   2.392  0.00  0.00    -0.078 C 
ATOM     32  H   UNL     1       2.603  -4.314   0.811  0.00  0.00    -0.081 HD
ENDBRANCH  18  27
ENDBRANCH   1  18
TORSDOF 6
