REMARK  Name = ZINC31918330
REMARK  4 active torsions:
REMARK  status: ('A' for Active; 'I' for Inactive)
REMARK    1  A    between atoms: C_1  and  C_2
REMARK    2  A    between atoms: N_5  and  C_8
REMARK    3  A    between atoms: C_8  and  C_9
REMARK    4  A    between atoms: CA_10  and  C_19
REMARK                            x       y       z     vdW  Elec       q    Type
REMARK                         _______ _______ _______ _____ _____    ______ ____
ROOT
ATOM      1  C   UNL     1      -2.498   1.298   0.031  0.00  0.00    +0.041 A 
ATOM      2  CA  UNL     1      -3.300   2.404   0.045  0.00  0.00    +0.172 A 
ATOM      3  N   UNL     1      -2.509   3.494   0.043  0.00  0.00    -0.221 NA
ATOM      4  C   UNL     1      -1.244   3.109   0.030  0.00  0.00    +0.139 A 
ATOM      5  N   UNL     1      -1.210   1.737   0.017  0.00  0.00    -0.303 N 
ATOM      6  C   UNL     1      -0.013   1.076   0.008  0.00  0.00    +0.113 A 
ATOM      7  C   UNL     1       1.151   1.760   0.001  0.00  0.00    +0.058 A 
ATOM      8  C   UNL     1       1.147   3.167   0.008  0.00  0.00    +0.025 A 
ATOM      9  C   UNL     1      -0.035   3.837   0.022  0.00  0.00    +0.048 A 
ATOM     10 CL   UNL     1       2.658   0.900  -0.018  0.00  0.00    -0.082 Cl
ENDROOT
BRANCH   2  11
ATOM     11  C   UNL     1      -4.774   2.405   0.059  0.00  0.00    +0.406 C 
ATOM     12  O   UNL     1      -5.382   1.353   0.059  0.00  0.00    -0.239 OA
ATOM     13  OXT UNL     1      -5.447   3.572   0.072  0.00  0.00    -0.239 OA
ENDBRANCH   2  11
BRANCH   1  14
ATOM     14  C   UNL     1      -2.955  -0.139   0.027  0.00  0.00    -0.022 C 
BRANCH  14  19
ATOM     15  C   UNL     1      -2.929  -2.711   5.131  0.00  0.00    +0.007 C 
ATOM     16  C   UNL     1      -2.676  -2.376   3.660  0.00  0.00    -0.018 C 
ATOM     17  C   UNL     1      -4.010  -2.317   2.912  0.00  0.00    -0.016 C 
ATOM     18  C   UNL     1      -3.756  -1.922   1.455  0.00  0.00    -0.078 C 
ATOM     19  N   UNL     1      -3.091  -0.613   1.411  0.00  0.00    +0.383 N 
ATOM     20  C   UNL     1      -1.785  -0.658   2.082  0.00  0.00    -0.078 C 
ATOM     21  C   UNL     1      -1.981  -1.015   3.557  0.00  0.00    -0.016 C 
ATOM     22  H   UNL     1      -3.723   0.103   1.955  0.00  0.00    -0.081 HD
ENDBRANCH  14  19
ENDBRANCH   1  14
TORSDOF 3
