REMARK  Name = ZINC02691219
REMARK  8 active torsions:
REMARK  status: ('A' for Active; 'I' for Inactive)
REMARK    1  A    between atoms: C_1  and  O_2
REMARK    2  A    between atoms: O_2  and  C_3
REMARK    3  A    between atoms: C_8  and  O_9
REMARK    4  A    between atoms: O_9  and  C_10
REMARK    5  A    between atoms: N_11  and  C_25
REMARK    6  A    between atoms: C_13  and  C_16
REMARK    7  A    between atoms: C_16  and  C_18
REMARK    8  A    between atoms: C_25  and  C_26
REMARK                            x       y       z     vdW  Elec       q    Type
REMARK                         _______ _______ _______ _____ _____    ______ ____
ROOT
ATOM      1  C   UNL     1       6.116   2.156   0.129  0.00  0.00    +0.162 A 
ATOM      2  C   UNL     1       4.962   1.402   0.169  0.00  0.00    +0.063 A 
ATOM      3  C   UNL     1       3.719   2.039   0.129  0.00  0.00    +0.050 A 
ATOM      4  C   UNL     1       3.642   3.441   0.048  0.00  0.00    +0.057 A 
ATOM      5  C   UNL     1       4.815   4.186   0.009  0.00  0.00    +0.076 A 
ATOM      6  C   UNL     1       6.041   3.549   0.048  0.00  0.00    +0.163 A 
ATOM      7  N   UNL     1       2.414   4.068   0.006  0.00  0.00    -0.341 N 
ATOM      8  C   UNL     1       1.255   3.397   0.036  0.00  0.00    +0.102 A 
ATOM      9  C   UNL     1       1.205   2.020   0.121  0.00  0.00    +0.086 A 
ATOM     10  C   UNL     1       2.467   1.264   0.170  0.00  0.00    +0.200 A 
ATOM     11  O   UNL     1       2.476   0.047   0.240  0.00  0.00    -0.286 OA
ENDROOT
BRANCH   1  13
ATOM     12  C   UNL     1       7.332   0.116   0.250  0.00  0.00    +0.277 C 
ATOM     13  O   UNL     1       7.329   1.542   0.167  0.00  0.00    -0.491 OA
ENDBRANCH   1  13
BRANCH   6  14
ATOM     14  O   UNL     1       7.183   4.284   0.009  0.00  0.00    -0.491 OA
ATOM     15  C   UNL     1       7.039   5.703  -0.073  0.00  0.00    +0.277 C 
ENDBRANCH   6  14
BRANCH   9  16
ATOM     16  C   UNL     1      -0.087   1.320   0.158  0.00  0.00    +0.198 C 
ATOM     17  O   UNL     1      -0.746   1.206  -0.859  0.00  0.00    -0.286 OA
BRANCH  16  18
ATOM     18  C   UNL     1      -0.590   0.761   1.430  0.00  0.00    +0.023 A 
ATOM     19  C   UNL     1       0.110   0.985   2.618  0.00  0.00    +0.014 A 
ATOM     20  C   UNL     1      -0.366   0.466   3.803  0.00  0.00    +0.039 A 
ATOM     21  C   UNL     1      -1.531  -0.287   3.815  0.00  0.00    +0.123 A 
ATOM     22  C   UNL     1      -2.226  -0.516   2.637  0.00  0.00    +0.039 A 
ATOM     23  C   UNL     1      -1.763   0.003   1.448  0.00  0.00    +0.014 A 
ATOM     24  F   UNL     1      -1.990  -0.798   4.978  0.00  0.00    -0.205 F 
ENDBRANCH  16  18
ENDBRANCH   9  16
BRANCH   7  25
ATOM     25  C   UNL     1       2.376   5.530  -0.079  0.00  0.00    +0.157 C 
BRANCH  25  26
ATOM     26  C   UNL     1       2.428   5.950  -1.525  0.00  0.00    -0.028 A 
ATOM     27  C   UNL     1       3.634   6.312  -2.096  0.00  0.00    +0.007 A 
ATOM     28  C   UNL     1       3.684   6.693  -3.424  0.00  0.00    +0.020 A 
ATOM     29  C   UNL     1       2.525   6.722  -4.179  0.00  0.00    +0.041 A 
ATOM     30  C   UNL     1       1.317   6.365  -3.605  0.00  0.00    +0.020 A 
ATOM     31  C   UNL     1       1.270   5.979  -2.279  0.00  0.00    +0.007 A 
ATOM     32 CL   UNL     1       2.585   7.205  -5.845  0.00  0.00    -0.084 Cl
ENDBRANCH  25  26
ENDBRANCH   7  25
TORSDOF 6
