REMARK  Name = ZINC44368723
REMARK  5 active torsions:
REMARK  status: ('A' for Active; 'I' for Inactive)
REMARK    1  A    between atoms: C_1  and  C_2
REMARK    2  A    between atoms: C_2  and  N_8
REMARK    3  A    between atoms: N_8  and  S_9
REMARK    4  A    between atoms: S_9  and  C_12
REMARK    5  A    between atoms: C_14  and  N_19
REMARK                            x       y       z     vdW  Elec       q    Type
REMARK                         _______ _______ _______ _____ _____    ______ ____
ROOT
ATOM      1  S   UNL     1      -2.474  -0.225  -1.064  0.00  0.00    +0.060 S 
ATOM      2  O   UNL     1      -1.753  -0.667  -2.207  0.00  0.00    -0.153 OA
ATOM      3  O   UNL     1      -3.763  -0.725  -0.737  0.00  0.00    -0.153 OA
ENDROOT
BRANCH   1   4
ATOM      4  C   UNL     1      -2.635   1.523  -1.216  0.00  0.00    +0.126 A 
ATOM      5  C   UNL     1      -2.152   2.167  -2.340  0.00  0.00    +0.062 A 
ATOM      6  C   UNL     1      -2.278   3.538  -2.459  0.00  0.00    +0.128 A 
ATOM      7  C   UNL     1      -2.888   4.267  -1.455  0.00  0.00    +0.034 A 
ATOM      8  C   UNL     1      -3.372   3.624  -0.331  0.00  0.00    +0.024 A 
ATOM      9  C   UNL     1      -3.251   2.251  -0.214  0.00  0.00    +0.067 A 
ATOM     10 CL   UNL     1      -3.865   1.442   1.194  0.00  0.00    -0.082 Cl
BRANCH   6  11
ATOM     11  N   UNL     1      -1.760   4.227  -3.663  0.00  0.00    +0.056 N 
ATOM     12  O   UNL     1      -1.226   3.590  -4.541  0.00  0.00    -0.126 OA
ATOM     13  O   UNL     1      -1.870   5.426  -3.767  0.00  0.00    -0.126 OA
ENDBRANCH   6  11
ENDBRANCH   1   4
BRANCH   1  14
ATOM     14  N   UNL     1      -1.506  -0.515   0.248  0.00  0.00    -0.184 NA
ATOM     15  H   UNL     1      -1.875  -0.936   1.040  0.00  0.00    +0.149 HD
BRANCH  14  17
ATOM     16  C   UNL     1       0.032   1.341  -0.171  0.00  0.00    +0.029 C 
ATOM     17  C   UNL     1      -0.091  -0.135   0.212  0.00  0.00    +0.037 C 
ATOM     18  C   UNL     1       0.641  -0.993  -0.822  0.00  0.00    +0.023 C 
ATOM     19  C   UNL     1       0.518  -2.469  -0.438  0.00  0.00    +0.002 C 
ATOM     20  C   UNL     1       1.141  -2.692   0.942  0.00  0.00    +0.000 C 
ATOM     21  C   UNL     1       0.408  -1.834   1.975  0.00  0.00    +0.002 C 
ATOM     22  C   UNL     1       0.531  -0.358   1.592  0.00  0.00    +0.023 C 
ENDBRANCH  14  17
ENDBRANCH   1  14
TORSDOF 4
