REMARK  Name = ZINC61584311
REMARK  3 active torsions:
REMARK  status: ('A' for Active; 'I' for Inactive)
REMARK    1  A    between atoms: C_6  and  N_7
REMARK    2  A    between atoms: C_10  and  C_13
REMARK    3  A    between atoms: C_18  and  C_21
REMARK                            x       y       z     vdW  Elec       q    Type
REMARK                         _______ _______ _______ _____ _____    ______ ____
ROOT
ATOM      1  N   UNL     1      -1.200  -0.722   0.010  0.00  0.00    -0.271 N 
ATOM      2  C   UNL     1      -1.293  -2.182  -0.097  0.00  0.00    +0.115 C 
ATOM      3  C   UNL     1      -2.715  -2.541   0.388  0.00  0.00    +0.041 C 
ATOM      4  C   UNL     1      -3.486  -1.232   0.101  0.00  0.00    +0.163 C 
ATOM      5  C   UNL     1      -2.417  -0.162   0.122  0.00  0.00    +0.232 C 
ATOM      6  O   UNL     1      -2.627   1.029   0.224  0.00  0.00    -0.274 OA
ENDROOT
BRANCH   4   7
ATOM      7  C   UNL     1      -4.507  -0.974   1.179  0.00  0.00    +0.228 C 
ATOM      8  O   UNL     1      -4.625  -1.752   2.101  0.00  0.00    -0.275 OA
ATOM      9  N   UNL     1      -5.289   0.122   1.118  0.00  0.00    -0.301 N 
ATOM     10  C   UNL     1      -5.162   1.071   0.003  0.00  0.00    +0.109 C 
ATOM     11  C   UNL     1      -4.947   2.477   0.574  0.00  0.00    +0.037 C 
ATOM     12  C   UNL     1      -6.077   2.804   1.552  0.00  0.00    +0.094 C 
ATOM     13  C   UNL     1      -6.057   1.804   2.711  0.00  0.00    +0.037 C 
ATOM     14  C   UNL     1      -6.289   0.388   2.161  0.00  0.00    +0.109 C 
BRANCH  12  15
ATOM     15  C   UNL     1      -5.892   4.166   2.078  0.00  0.00    +0.066 C 
ATOM     16  N   UNL     1      -5.750   5.218   2.483  0.00  0.00    -0.196 NA
ENDBRANCH  12  15
ENDBRANCH   4   7
BRANCH   1  22
ATOM     17  C   UNL     1      -0.017   1.384  -0.005  0.00  0.00    +0.025 A 
ATOM     18  C   UNL     1       1.170   2.090  -0.012  0.00  0.00    +0.022 A 
ATOM     19  C   UNL     1       2.378   1.414  -0.013  0.00  0.00    +0.041 A 
ATOM     20  C   UNL     1       2.400   0.031  -0.007  0.00  0.00    +0.022 A 
ATOM     21  C   UNL     1       1.215  -0.679   0.001  0.00  0.00    +0.025 A 
ATOM     22  C   UNL     1       0.002  -0.004   0.002  0.00  0.00    +0.036 A 
ATOM     23 CL   UNL     1       3.869   2.304  -0.024  0.00  0.00    -0.084 Cl
ENDBRANCH   1  22
TORSDOF 3
