REMARK  Name = ZINC66947623
REMARK  7 active torsions:
REMARK  status: ('A' for Active; 'I' for Inactive)
REMARK    1  A    between atoms: C_1  and  C_2
REMARK    2  A    between atoms: N_11  and  C_15
REMARK    3  A    between atoms: C_15  and  C_16
REMARK    4  A    between atoms: C_23  and  C_25
REMARK    5  A    between atoms: C_25  and  N_26
REMARK    6  A    between atoms: N_26  and  C_27
REMARK    7  A    between atoms: N_26  and  C_28
REMARK                            x       y       z     vdW  Elec       q    Type
REMARK                         _______ _______ _______ _____ _____    ______ ____
ROOT
ATOM      1  C   UNL     1       1.332   1.952  -0.034  0.00  0.00    +0.010 C 
ATOM      2  C   UNL     1       1.362   0.426  -0.126  0.00  0.00    +0.018 C 
ATOM      3  C   UNL     1       2.296   0.002  -1.263  0.00  0.00    +0.006 C 
ATOM      4  C   UNL     1       2.340  -1.526  -1.341  0.00  0.00    +0.000 C 
ATOM      5  C   UNL     1       2.868  -2.092  -0.021  0.00  0.00    +0.003 C 
ATOM      6  C   UNL     1       1.937  -1.675   1.120  0.00  0.00    +0.035 C 
ATOM      7  C   UNL     1       1.867  -0.153   1.191  0.00  0.00    +0.115 C 
ATOM      8  C   UNL     1       0.980   0.281   2.334  0.00  0.00    +0.247 C 
ATOM      9  O   UNL     1      -0.200   0.043   2.478  0.00  0.00    -0.273 OA
ATOM     10  N   UNL     1       1.777   0.990   3.160  0.00  0.00    -0.215 N 
ATOM     11  C   UNL     1       3.031   1.058   2.696  0.00  0.00    +0.310 C 
ATOM     12  O   UNL     1       3.931   1.643   3.266  0.00  0.00    -0.252 OA
ATOM     13  N   UNL     1       3.183   0.406   1.528  0.00  0.00    -0.285 N 
ATOM     14  H   UNL     1       3.999   0.323   1.011  0.00  0.00    +0.151 HD
ENDROOT
BRANCH  10  15
ATOM     15  C   UNL     1       1.326   1.608   4.410  0.00  0.00    +0.213 C 
BRANCH  15  16
ATOM     16  C   UNL     1       1.497   0.631   5.544  0.00  0.00    +0.234 C 
ATOM     17  O   UNL     1       1.951  -0.473   5.330  0.00  0.00    -0.274 OA
ATOM     18  N   UNL     1       1.146   0.984   6.796  0.00  0.00    -0.299 N 
ATOM     19  C   UNL     1       0.696   2.351   7.090  0.00  0.00    +0.108 C 
ATOM     20  C   UNL     1       1.542   2.913   8.236  0.00  0.00    +0.019 C 
ATOM     21  C   UNL     1       1.474   1.959   9.431  0.00  0.00    +0.003 C 
ATOM     22  C   UNL     1       2.047   0.597   9.031  0.00  0.00    +0.021 C 
ATOM     23  C   UNL     1       1.201   0.007   7.892  0.00  0.00    +0.059 C 
BRANCH  23  24
ATOM     24  C   UNL     1       1.842  -1.289   7.393  0.00  0.00    -0.057 C 
BRANCH  24  25
ATOM     25  N   UNL     1       1.875  -2.271   8.485  0.00  0.00    +0.377 N 
ATOM     26  C   UNL     1       0.502  -2.656   8.838  0.00  0.00    -0.097 C 
ATOM     27  C   UNL     1       2.621  -3.461   8.051  0.00  0.00    -0.097 C 
ATOM     28  H   UNL     1       2.328  -1.865   9.290  0.00  0.00    -0.083 HD
ENDBRANCH  24  25
ENDBRANCH  23  24
ENDBRANCH  15  16
ENDBRANCH  10  15
TORSDOF 4
