REMARK  Name = ZINC39697681
REMARK  4 active torsions:
REMARK  status: ('A' for Active; 'I' for Inactive)
REMARK    1  A    between atoms: C_6  and  C_7
REMARK    2  A    between atoms: C_7  and  C_9
REMARK    3  A    between atoms: C_9  and  S_10
REMARK    4  A    between atoms: S_10  and  C_11
REMARK                            x       y       z     vdW  Elec       q    Type
REMARK                         _______ _______ _______ _____ _____    ______ ____
ROOT
ATOM      1  C   UNL     1      -2.739  -4.651   0.004  0.00  0.00    +0.187 C 
ATOM      2  N   UNL     1      -1.575  -5.250  -0.005  0.00  0.00    -0.226 NA
ATOM      3  C   UNL     1      -1.852  -6.681  -0.118  0.00  0.00    +0.280 C 
ATOM      4  C   UNL     1      -3.374  -6.736   0.005  0.00  0.00    +0.152 C 
ATOM      5  N   UNL     1      -3.780  -5.528   0.010  0.00  0.00    -0.218 NA
ATOM      6  C   UNL     1      -4.039  -8.044   0.229  0.00  0.00    +0.269 C 
ATOM      7  N   UNL     1      -3.244  -8.920   0.919  0.00  0.00    -0.253 N 
ATOM      8  C   UNL     1      -2.041  -8.493   1.433  0.00  0.00    +0.182 C 
ATOM      9  N   UNL     1      -1.333  -7.481   0.992  0.00  0.00    -0.223 NA
ATOM     10  N   UNL     1      -1.524  -9.200   2.493  0.00  0.00    -0.331 N 
ATOM     11  O   UNL     1      -5.161  -8.308  -0.155  0.00  0.00    -0.268 OA
ATOM     12  H   UNL     1      -2.005  -9.964   2.847  0.00  0.00    +0.145 HD
ATOM     13  H   UNL     1      -0.678  -8.934   2.886  0.00  0.00    +0.145 HD
ATOM     14  H   UNL     1      -3.529  -9.839   1.045  0.00  0.00    +0.158 HD
ENDROOT
BRANCH   1  15
ATOM     15  S   UNL     1      -2.935  -2.900   0.016  0.00  0.00    -0.078 S 
BRANCH  15  16
ATOM     16  C   UNL     1      -1.235  -2.267   0.002  0.00  0.00    +0.157 C 
BRANCH  16  17
ATOM     17  C   UNL     1      -1.260  -0.760   0.011  0.00  0.00    +0.173 C 
ATOM     18  O   UNL     1      -2.319  -0.171   0.024  0.00  0.00    -0.291 OA
BRANCH  17  24
ATOM     19  C   UNL     1      -0.017   1.395   0.010  0.00  0.00    +0.013 A 
ATOM     20  C   UNL     1       1.169   2.097   0.002  0.00  0.00    +0.020 A 
ATOM     21  C   UNL     1       2.378   1.420  -0.013  0.00  0.00    +0.041 A 
ATOM     22  C   UNL     1       2.405   0.035  -0.021  0.00  0.00    +0.020 A 
ATOM     23  C   UNL     1       1.227  -0.680  -0.013  0.00  0.00    +0.013 A 
ATOM     24  C   UNL     1       0.002  -0.004   0.002  0.00  0.00    +0.018 A 
ATOM     25 CL   UNL     1       3.867   2.313  -0.023  0.00  0.00    -0.084 Cl
ENDBRANCH  17  24
ENDBRANCH  16  17
ENDBRANCH  15  16
ENDBRANCH   1  15
TORSDOF 4
