REMARK  Name = ZINC07268044
REMARK  10 active torsions:
REMARK  status: ('A' for Active; 'I' for Inactive)
REMARK    1  A    between atoms: C_1  and  C_2
REMARK    2  A    between atoms: C_2  and  C_3
REMARK    3  A    between atoms: C_3  and  C_5
REMARK    4  A    between atoms: C_3  and  C_6
REMARK    5  A    between atoms: C_9  and  S_12
REMARK    6  A    between atoms: S_12  and  N_15
REMARK    7  A    between atoms: C_20  and  C_22
REMARK    8  A    between atoms: C_20  and  C_23
REMARK    9  A    between atoms: C_20  and  N_64
REMARK   10  A    between atoms: N_25  and  C_26
REMARK                            x       y       z     vdW  Elec       q    Type
REMARK                         _______ _______ _______ _____ _____    ______ ____
ROOT
ATOM      1  N   UNL     1      -1.230   2.812   8.338  0.00  0.00    -0.180 NA
ATOM      2  C   UNL     1       0.116   2.220   8.386  0.00  0.00    +0.091 C 
ATOM      3  C   UNL     1       0.851   2.577   7.090  0.00  0.00    -0.060 C 
ATOM      4  C   UNL     1      -1.237   2.905   5.901  0.00  0.00    -0.060 C 
ATOM      5  C   UNL     1      -2.058   2.562   7.149  0.00  0.00    +0.091 C 
ATOM      6  N   UNL     1       0.028   2.140   5.941  0.00  0.00    +0.389 N 
ATOM      7  H   UNL     1      -0.189   1.142   6.047  0.00  0.00    -0.081 HD
ENDROOT
BRANCH   1   8
ATOM      8  S   UNL     1      -1.796   3.737   9.589  0.00  0.00    +0.061 S 
ATOM      9  O   UNL     1      -3.215   3.682   9.525  0.00  0.00    -0.153 OA
ATOM     10  O   UNL     1      -1.070   3.345  10.745  0.00  0.00    -0.153 OA
BRANCH   8  14
ATOM     11  C   UNL     1      -0.628   8.024   8.722  0.00  0.00    -0.044 A 
ATOM     12  C   UNL     1      -1.837   7.532   8.267  0.00  0.00    +0.006 A 
ATOM     13  C   UNL     1      -2.194   6.223   8.532  0.00  0.00    +0.029 A 
ATOM     14  C   UNL     1      -1.342   5.406   9.251  0.00  0.00    +0.105 A 
ATOM     15  C   UNL     1      -0.135   5.900   9.710  0.00  0.00    +0.029 A 
ATOM     16  C   UNL     1       0.224   7.207   9.442  0.00  0.00    +0.006 A 
BRANCH  11  17
ATOM     17  C   UNL     1      -0.239   9.451   8.433  0.00  0.00    +0.016 C 
ATOM     18  C   UNL     1      -0.035  10.201   9.751  0.00  0.00    +0.012 C 
BRANCH  17  20
ATOM     19  C   UNL     1       1.390  10.912   7.228  0.00  0.00    +0.004 C 
ATOM     20  C   UNL     1       1.061   9.472   7.628  0.00  0.00    +0.004 C 
ENDBRANCH  17  20
ENDBRANCH  11  17
ENDBRANCH   8  14
ENDBRANCH   1   8
BRANCH   6  21
ATOM     21  C   UNL     1       0.776   2.337   4.682  0.00  0.00    +0.016 C 
ATOM     22  C   UNL     1       1.426   3.721   4.653  0.00  0.00    -0.004 C 
BRANCH  21  23
ATOM     23  C   UNL     1       1.844   1.278   4.584  0.00  0.00    +0.199 C 
ATOM     24  O   UNL     1       2.157   0.640   5.567  0.00  0.00    -0.278 OA
ATOM     25  N   UNL     1       2.452   1.041   3.405  0.00  0.00    -0.314 N 
ATOM     26  H   UNL     1       2.202   1.551   2.619  0.00  0.00    +0.149 HD
BRANCH  25  27
ATOM     27  C   UNL     1       3.491   0.012   3.311  0.00  0.00    +0.073 C 
ATOM     28  C   UNL     1       4.445   0.314   2.137  0.00  0.00    +0.022 C 
ATOM     29  C   UNL     1       4.804  -1.040   1.500  0.00  0.00    +0.002 C 
ATOM     30  C   UNL     1       4.055  -2.119   2.310  0.00  0.00    +0.002 C 
ATOM     31  C   UNL     1       2.866  -1.359   2.948  0.00  0.00    +0.022 C 
ENDBRANCH  25  27
ENDBRANCH  21  23
ENDBRANCH   6  21
TORSDOF 7
