REMARK  Name = ZINC66632694
REMARK  7 active torsions:
REMARK  status: ('A' for Active; 'I' for Inactive)
REMARK    1  A    between atoms: C_1  and  C_2
REMARK    2  A    between atoms: C_2  and  C_3
REMARK    3  A    between atoms: C_2  and  C_4
REMARK    4  A    between atoms: C_4  and  N_5
REMARK    5  A    between atoms: N_8  and  N_9
REMARK    6  A    between atoms: C_10  and  C_12
REMARK    7  A    between atoms: C_24  and  C_26
REMARK                            x       y       z     vdW  Elec       q    Type
REMARK                         _______ _______ _______ _____ _____    ______ ____
ROOT
ATOM      1  C   UNL     1      -3.480   1.475  -5.689  0.00  0.00    +0.164 C 
ATOM      2  C   UNL     1      -2.677   0.429  -6.511  0.00  0.00    +0.037 C 
ATOM      3  C   UNL     1      -2.658   1.074  -7.906  0.00  0.00    +0.012 C 
ATOM      4  C   UNL     1      -2.511   0.104  -9.066  0.00  0.00    +0.005 C 
ATOM      5  C   UNL     1      -2.645   0.918 -10.362  0.00  0.00    +0.000 C 
ATOM      6  C   UNL     1      -3.981   1.652 -10.426  0.00  0.00    +0.002 C 
ATOM      7  C   UNL     1      -4.196   2.534  -9.184  0.00  0.00    +0.023 C 
ATOM      8  C   UNL     1      -4.099   1.651  -7.962  0.00  0.00    +0.080 C 
ATOM      9  N   UNL     1      -4.289   2.260  -6.651  0.00  0.00    -0.283 N 
ATOM     10  C   UNL     1      -5.055   3.332  -6.365  0.00  0.00    +0.247 C 
ATOM     11  O   UNL     1      -5.610   3.939  -7.260  0.00  0.00    -0.270 OA
ENDROOT
BRANCH  10  12
ATOM     12  C   UNL     1      -5.220   3.769  -4.962  0.00  0.00    +0.037 A 
ATOM     13  C   UNL     1      -4.115   3.826  -4.111  0.00  0.00    +0.013 A 
ATOM     14  C   UNL     1      -4.276   4.236  -2.804  0.00  0.00    +0.001 A 
ATOM     15  C   UNL     1      -5.529   4.589  -2.335  0.00  0.00    +0.000 A 
ATOM     16  C   UNL     1      -6.628   4.535  -3.174  0.00  0.00    +0.001 A 
ATOM     17  C   UNL     1      -6.480   4.133  -4.485  0.00  0.00    +0.013 A 
ENDBRANCH  10  12
BRANCH   1  19
ATOM     18  N   UNL     1      -3.888   0.309  -3.546  0.00  0.00    -0.232 N 
ATOM     19  C   UNL     1      -4.385   0.773  -4.710  0.00  0.00    +0.250 C 
ATOM     20  O   UNL     1      -5.561   0.625  -4.969  0.00  0.00    -0.272 OA
ATOM     21  H   UNL     1      -2.948   0.428  -3.339  0.00  0.00    +0.173 HD
BRANCH  18  25
ATOM     22  N   UNL     1      -2.925  -0.642  -1.184  0.00  0.00    -0.298 N 
ATOM     23  C   UNL     1      -4.232  -0.806  -1.471  0.00  0.00    +0.316 C 
ATOM     24  O   UNL     1      -4.962  -1.373  -0.681  0.00  0.00    -0.251 OA
ATOM     25  N   UNL     1      -4.729  -0.343  -2.635  0.00  0.00    -0.218 N 
ATOM     26  H   UNL     1      -2.343  -0.191  -1.814  0.00  0.00    +0.150 HD
ATOM     27  H   UNL     1      -5.669  -0.461  -2.842  0.00  0.00    +0.174 HD
BRANCH  22  28
ATOM     28  C   UNL     1      -2.385  -1.146   0.081  0.00  0.00    +0.108 C 
BRANCH  28  30
ATOM     29  C   UNL     1      -0.689   0.684   0.207  0.00  0.00    +0.009 C 
ATOM     30  C   UNL     1      -0.890  -0.832   0.158  0.00  0.00    -0.000 C 
ATOM     31  C   UNL     1      -0.299  -1.466   1.419  0.00  0.00    +0.009 C 
ENDBRANCH  28  30
ENDBRANCH  22  28
ENDBRANCH  18  25
ENDBRANCH   1  19
TORSDOF 5
