REMARK  Name = ZINC46086847
REMARK  10 active torsions:
REMARK  status: ('A' for Active; 'I' for Inactive)
REMARK    1  A    between atoms: C_1  and  C_2
REMARK    2  A    between atoms: C_2  and  C_3
REMARK    3  A    between atoms: C_2  and  C_4
REMARK    4  A    between atoms: C_2  and  C_5
REMARK    5  A    between atoms: C_15  and  C_17
REMARK    6  A    between atoms: C_19  and  C_22
REMARK    7  A    between atoms: C_25  and  O_30
REMARK    8  A    between atoms: C_26  and  O_28
REMARK    9  A    between atoms: O_28  and  C_29
REMARK   10  A    between atoms: O_30  and  C_31
REMARK                            x       y       z     vdW  Elec       q    Type
REMARK                         _______ _______ _______ _____ _____    ______ ____
ROOT
ATOM      1  C   UNL     1       0.718  -0.497  -1.257  0.00  0.00    -0.000 C 
ATOM      2  C   UNL     1       0.746  -2.029  -1.264  0.00  0.00    +0.010 C 
ATOM      3  C   UNL     1       1.235  -2.539  -2.622  0.00  0.00    +0.056 C 
ATOM      4  C   UNL     1       2.554  -1.856  -2.954  0.00  0.00    +0.054 A 
ATOM      5  C   UNL     1       2.920  -0.714  -2.317  0.00  0.00    +0.015 A 
ATOM      6  S   UNL     1       4.489  -0.348  -3.051  0.00  0.00    -0.057 S 
ATOM      7  C   UNL     1       4.553  -1.665  -4.100  0.00  0.00    +0.165 A 
ATOM      8  N   UNL     1       3.426  -2.297  -3.855  0.00  0.00    -0.229 NA
ATOM      9  N   UNL     1       5.553  -2.002  -5.003  0.00  0.00    -0.259 N 
ATOM     10  C   UNL     1       5.428  -3.105  -5.767  0.00  0.00    +0.271 C 
ATOM     11  O   UNL     1       4.440  -3.806  -5.665  0.00  0.00    -0.268 OA
ATOM     12  C   UNL     1       2.163   0.028  -1.267  0.00  0.00    +0.048 C 
ATOM     13  H   UNL     1       6.341  -1.442  -5.085  0.00  0.00    +0.157 HD
ENDROOT
BRANCH  10  14
ATOM     14  C   UNL     1       6.495  -3.464  -6.732  0.00  0.00    +0.169 A 
ATOM     15  C   UNL     1       6.493  -4.582  -7.594  0.00  0.00    +0.086 A 
ATOM     16  C   UNL     1       7.645  -4.556  -8.316  0.00  0.00    +0.168 A 
ATOM     17  O   UNL     1       8.349  -3.474  -7.934  0.00  0.00    -0.354 OA
ATOM     18  N   UNL     1       7.605  -2.795  -6.938  0.00  0.00    -0.073 NA
BRANCH  16  19
ATOM     19  C   UNL     1       8.052  -5.541  -9.339  0.00  0.00    +0.024 A 
ATOM     20  C   UNL     1       7.219  -6.619  -9.643  0.00  0.00    +0.015 A 
ATOM     21  C   UNL     1       7.601  -7.538 -10.598  0.00  0.00    +0.050 A 
ATOM     22  C   UNL     1       8.812  -7.393 -11.260  0.00  0.00    +0.162 A 
ATOM     23  C   UNL     1       9.648  -6.319 -10.961  0.00  0.00    +0.162 A 
ATOM     24  C   UNL     1       9.269  -5.392 -10.008  0.00  0.00    +0.061 A 
BRANCH  23  25
ATOM     25  O   UNL     1      10.834  -6.180 -11.611  0.00  0.00    -0.491 OA
ATOM     26  C   UNL     1      11.641  -5.056 -11.255  0.00  0.00    +0.277 C 
ENDBRANCH  23  25
BRANCH  22  27
ATOM     27  O   UNL     1       9.183  -8.301 -12.200  0.00  0.00    -0.491 OA
ATOM     28  C   UNL     1       8.279  -9.377 -12.456  0.00  0.00    +0.277 C 
ENDBRANCH  22  27
ENDBRANCH  16  19
ENDBRANCH  10  14
BRANCH   1  30
ATOM     29  C   UNL     1      -0.019   1.526   0.010  0.00  0.00    +0.011 C 
ATOM     30  C   UNL     1       0.002  -0.004   0.002  0.00  0.00    -0.035 C 
ATOM     31  C   UNL     1       0.742  -0.511   1.242  0.00  0.00    +0.011 C 
ATOM     32  C   UNL     1      -1.433  -0.534   0.013  0.00  0.00    +0.011 C 
ENDBRANCH   1  30
TORSDOF 5
