REMARK  Name = ZINC00098720
REMARK  4 active torsions:
REMARK  status: ('A' for Active; 'I' for Inactive)
REMARK    1  A    between atoms: C_1  and  C_2
REMARK    2  A    between atoms: C_2  and  C_3
REMARK    3  A    between atoms: C_16  and  C_19
REMARK    4  A    between atoms: C_22  and  N_25
REMARK                            x       y       z     vdW  Elec       q    Type
REMARK                         _______ _______ _______ _____ _____    ______ ____
ROOT
ATOM      1  C   UNL     1       4.103   1.750   2.704  0.00  0.00    -0.047 A 
ATOM      2  C   UNL     1       3.349   1.589   3.852  0.00  0.00    +0.005 A 
ATOM      3  C   UNL     1       1.974   1.510   3.761  0.00  0.00    +0.023 A 
ATOM      4  C   UNL     1       1.353   1.593   2.520  0.00  0.00    +0.031 A 
ATOM      5  C   UNL     1       2.105   1.751   1.369  0.00  0.00    -0.019 A 
ATOM      6  C   UNL     1       3.487   1.830   1.472  0.00  0.00    +0.009 A 
ATOM      7  C   UNL     1       1.491   1.842  -0.002  0.00  0.00    +0.049 C 
ATOM      8  C   UNL     1       2.057   0.698  -0.832  0.00  0.00    -0.023 C 
ATOM      9  C   UNL     1       1.234  -0.321  -0.827  0.00  0.00    -0.030 C 
ATOM     10  C   UNL     1       0.002  -0.004   0.002  0.00  0.00    +0.033 C 
ATOM     11  C   UNL     1      -0.019   1.543   0.011  0.00  0.00    +0.029 C 
ATOM     12  C   UNL     1      -0.698   2.072   1.260  0.00  0.00    +0.105 C 
ATOM     13  N   UNL     1      -0.042   1.515   2.448  0.00  0.00    -0.336 N 
ATOM     14  H   UNL     1      -0.558   1.106   3.160  0.00  0.00    +0.147 HD
ENDROOT
BRANCH  12  15
ATOM     15  C   UNL     1      -0.595   3.576   1.288  0.00  0.00    -0.027 A 
ATOM     16  C   UNL     1       0.573   4.181   1.714  0.00  0.00    +0.008 A 
ATOM     17  C   UNL     1       0.668   5.560   1.736  0.00  0.00    +0.033 A 
ATOM     18  C   UNL     1      -0.407   6.333   1.340  0.00  0.00    +0.126 A 
ATOM     19  C   UNL     1      -1.576   5.728   0.919  0.00  0.00    +0.033 A 
ATOM     20  C   UNL     1      -1.671   4.349   0.893  0.00  0.00    +0.008 A 
BRANCH  18  21
ATOM     21  N   UNL     1      -0.306   7.810   1.367  0.00  0.00    +0.056 N 
ATOM     22  O   UNL     1      -1.253   8.492   1.018  0.00  0.00    -0.126 OA
ATOM     23  O   UNL     1       0.725   8.343   1.738  0.00  0.00    -0.126 OA
ENDBRANCH  18  21
ENDBRANCH  12  15
BRANCH   1  25
ATOM     24  C   UNL     1       6.205   0.434   2.692  0.00  0.00    +0.009 C 
ATOM     25  C   UNL     1       5.605   1.837   2.799  0.00  0.00    +0.032 C 
ENDBRANCH   1  25
TORSDOF 3
