REMARK  Name = ZINC00093055
REMARK  2 active torsions:
REMARK  status: ('A' for Active; 'I' for Inactive)
REMARK    1  A    between atoms: C_9  and  C_12
REMARK    2  A    between atoms: C_17  and  N_21
REMARK                            x       y       z     vdW  Elec       q    Type
REMARK                         _______ _______ _______ _____ _____    ______ ____
ROOT
ATOM      1  C   UNL     1       4.831  -2.728  -0.151  0.00  0.00    +0.015 A 
ATOM      2  C   UNL     1       5.498  -2.295  -1.230  0.00  0.00    +0.055 A 
ATOM      3  S   UNL     1       6.948  -3.332  -1.268  0.00  0.00    -0.077 S 
ATOM      4  C   UNL     1       6.618  -4.319   0.167  0.00  0.00    +0.114 A 
ATOM      5  C   UNL     1       5.389  -3.810   0.641  0.00  0.00    +0.054 A 
ATOM      6  C   UNL     1       4.883  -4.433   1.814  0.00  0.00    +0.133 A 
ATOM      7  N   UNL     1       5.573  -5.415   2.373  0.00  0.00    -0.220 NA
ATOM      8  C   UNL     1       6.722  -5.838   1.876  0.00  0.00    +0.224 A 
ATOM      9  N   UNL     1       7.237  -5.306   0.785  0.00  0.00    -0.228 NA
ENDROOT
BRANCH   1  18
ATOM     10  C   UNL     1      -0.037   1.344   0.008  0.00  0.00    +0.004 A 
ATOM     11  C   UNL     1       1.157   2.036   0.093  0.00  0.00    +0.004 A 
ATOM     12  C   UNL     1       2.357   1.352   0.079  0.00  0.00    +0.049 A 
ATOM     13  C   UNL     1       2.368  -0.032  -0.021  0.00  0.00    +0.163 A 
ATOM     14  C   UNL     1       1.168  -0.728  -0.104  0.00  0.00    +0.162 A 
ATOM     15  C   UNL     1      -0.034  -0.035  -0.091  0.00  0.00    +0.049 A 
ATOM     16  O   UNL     1       1.155  -2.086  -0.195  0.00  0.00    -0.484 OA
ATOM     17  C   UNL     1       2.381  -2.717  -0.580  0.00  0.00    +0.278 C 
ATOM     18  C   UNL     1       3.520  -2.095   0.240  0.00  0.00    +0.242 C 
ATOM     19  O   UNL     1       3.558  -0.692  -0.038  0.00  0.00    -0.477 OA
ENDBRANCH   1  18
BRANCH   6  20
ATOM     20  N   UNL     1       3.684  -4.019   2.366  0.00  0.00    -0.315 N 
ATOM     21  C   UNL     1       3.521  -2.936   3.347  0.00  0.00    +0.106 C 
ATOM     22  C   UNL     1       2.018  -2.851   3.690  0.00  0.00    +0.020 C 
ATOM     23  C   UNL     1       1.495  -4.262   3.311  0.00  0.00    +0.020 C 
ATOM     24  C   UNL     1       2.357  -4.586   2.062  0.00  0.00    +0.106 C 
ENDBRANCH   6  20
TORSDOF 2
