REMARK  Name = ZINC17879199
REMARK  5 active torsions:
REMARK  status: ('A' for Active; 'I' for Inactive)
REMARK    1  A    between atoms: C_4  and  N_7
REMARK    2  A    between atoms: C_8  and  S_12
REMARK    3  A    between atoms: S_12  and  C_13
REMARK    4  A    between atoms: C_13  and  C_14
REMARK    5  A    between atoms: N_18  and  C_21
REMARK                            x       y       z     vdW  Elec       q    Type
REMARK                         _______ _______ _______ _____ _____    ______ ____
ROOT
ATOM      1  C   UNL     1       3.007  -5.165   2.885  0.00  0.00    +0.049 A 
ATOM      2  C   UNL     1       2.499  -6.349   2.489  0.00  0.00    +0.095 A 
ATOM      3  C   UNL     1       1.789  -6.909   3.577  0.00  0.00    +0.272 A 
ATOM      4  O   UNL     1       1.200  -7.975   3.579  0.00  0.00    -0.266 OA
ATOM      5  N   UNL     1       1.883  -6.049   4.612  0.00  0.00    -0.219 N 
ATOM      6  N   UNL     1       2.651  -4.956   4.187  0.00  0.00    -0.293 N 
ATOM      7  H   UNL     1       2.886  -4.183   4.724  0.00  0.00    +0.187 HD
ENDROOT
BRANCH   5   8
ATOM      8  C   UNL     1       1.321  -6.219   5.881  0.00  0.00    +0.067 A 
ATOM      9  C   UNL     1       1.493  -5.245   6.855  0.00  0.00    +0.029 A 
ATOM     10  C   UNL     1       0.936  -5.415   8.107  0.00  0.00    +0.022 A 
ATOM     11  C   UNL     1       0.207  -6.557   8.392  0.00  0.00    +0.041 A 
ATOM     12  C   UNL     1       0.034  -7.529   7.423  0.00  0.00    +0.022 A 
ATOM     13  C   UNL     1       0.584  -7.361   6.168  0.00  0.00    +0.029 A 
ATOM     14 CL   UNL     1      -0.490  -6.769   9.967  0.00  0.00    -0.084 Cl
ENDBRANCH   5   8
BRANCH   1  15
ATOM     15  C   UNL     1       3.835  -4.234   2.038  0.00  0.00    +0.132 C 
BRANCH  15  16
ATOM     16  S   UNL     1       2.824  -2.812   1.538  0.00  0.00    -0.078 S 
BRANCH  16  18
ATOM     17  N   UNL     1       3.624  -0.652  -0.037  0.00  0.00    -0.187 N 
ATOM     18  C   UNL     1       3.918  -1.831   0.567  0.00  0.00    +0.214 A 
ATOM     19  N   UNL     1       5.176  -2.102   0.291  0.00  0.00    -0.101 NA
ATOM     20  N   UNL     1       5.685  -1.178  -0.441  0.00  0.00    -0.022 NA
ATOM     21  N   UNL     1       4.809  -0.266  -0.689  0.00  0.00    -0.038 NA
BRANCH  17  25
ATOM     22  C   UNL     1      -0.017   1.379   0.010  0.00  0.00    +0.000 A 
ATOM     23  C   UNL     1       1.170   2.089   0.002  0.00  0.00    +0.002 A 
ATOM     24  C   UNL     1       2.377   1.419  -0.013  0.00  0.00    +0.028 A 
ATOM     25  C   UNL     1       2.399   0.031  -0.021  0.00  0.00    +0.070 A 
ATOM     26  C   UNL     1       1.207  -0.680  -0.013  0.00  0.00    +0.028 A 
ATOM     27  C   UNL     1       0.002  -0.004   0.002  0.00  0.00    +0.002 A 
ENDBRANCH  17  25
ENDBRANCH  16  18
ENDBRANCH  15  16
ENDBRANCH   1  15
TORSDOF 5
