REMARK  Name = ZINC66262349
REMARK  5 active torsions:
REMARK  status: ('A' for Active; 'I' for Inactive)
REMARK    1  A    between atoms: C_1  and  C_2
REMARK    2  A    between atoms: C_4  and  C_7
REMARK    3  A    between atoms: C_7  and  C_9
REMARK    4  A    between atoms: C_7  and  S_10
REMARK    5  A    between atoms: S_10  and  C_11
REMARK                            x       y       z     vdW  Elec       q    Type
REMARK                         _______ _______ _______ _____ _____    ______ ____
ROOT
ATOM      1  C   UNL     1       1.268  -5.611  -2.475  0.00  0.00    +0.031 A 
ATOM      2  C   UNL     1       0.642  -5.309  -3.678  0.00  0.00    +0.065 A 
ATOM      3  C   UNL     1       0.726  -6.192  -4.743  0.00  0.00    +0.163 A 
ATOM      4  C   UNL     1       1.438  -7.378  -4.608  0.00  0.00    +0.164 A 
ATOM      5  C   UNL     1       2.061  -7.678  -3.405  0.00  0.00    +0.070 A 
ATOM      6  C   UNL     1       1.982  -6.796  -2.343  0.00  0.00    +0.058 A 
ATOM      7 CL   UNL     1       2.769  -7.172  -0.843  0.00  0.00    -0.082 Cl
ATOM      8  O   UNL     1       1.537  -8.253  -5.647  0.00  0.00    -0.485 OA
ATOM      9  C   UNL     1       0.593  -8.098  -6.712  0.00  0.00    +0.270 C 
ATOM     10  C   UNL     1       0.521  -6.609  -7.076  0.00  0.00    +0.270 C 
ATOM     11  O   UNL     1       0.103  -5.883  -5.914  0.00  0.00    -0.485 OA
ENDROOT
BRANCH   1  12
ATOM     12  S   UNL     1       1.164  -4.489  -1.121  0.00  0.00    -0.111 S 
BRANCH  12  13
ATOM     13  C   UNL     1       0.313  -3.044  -1.813  0.00  0.00    +0.137 C 
ATOM     14  C   UNL     1      -0.039  -2.071  -0.685  0.00  0.00    +0.029 C 
BRANCH  13  18
ATOM     15  C   UNL     1       1.901  -0.753  -5.975  0.00  0.00    +0.091 C 
ATOM     16  C   UNL     1       1.916  -1.365  -4.598  0.00  0.00    +0.169 A 
ATOM     17  N   UNL     1       0.866  -1.923  -3.984  0.00  0.00    -0.195 NA
ATOM     18  C   UNL     1       1.216  -2.357  -2.805  0.00  0.00    +0.240 A 
ATOM     19  O   UNL     1       2.515  -2.086  -2.627  0.00  0.00    -0.337 OA
ATOM     20  N   UNL     1       2.953  -1.443  -3.815  0.00  0.00    -0.062 NA
ENDBRANCH  13  18
ENDBRANCH  12  13
ENDBRANCH   1  12
TORSDOF 3
