REMARK  Name = ZINC60060117
REMARK  7 active torsions:
REMARK  status: ('A' for Active; 'I' for Inactive)
REMARK    1  A    between atoms: C_1  and  C_2
REMARK    2  A    between atoms: C_5  and  S_9
REMARK    3  A    between atoms: C_7  and  C_8
REMARK    4  A    between atoms: S_9  and  N_12
REMARK    5  A    between atoms: C_19  and  S_21
REMARK    6  A    between atoms: S_21  and  N_24
REMARK    7  A    between atoms: N_24  and  C_25
REMARK                            x       y       z     vdW  Elec       q    Type
REMARK                         _______ _______ _______ _____ _____    ______ ____
ROOT
ATOM      1  N   UNL     1       1.651  -4.999  -0.034  0.00  0.00    -0.202 N 
ATOM      2  C   UNL     1       2.451  -5.225  -1.241  0.00  0.00    +0.136 C 
ATOM      3  C   UNL     1       3.841  -5.640  -0.731  0.00  0.00    +0.058 C 
ATOM      4  C   UNL     1       3.715  -5.617   0.776  0.00  0.00    -0.021 A 
ATOM      5  C   UNL     1       2.424  -5.232   1.104  0.00  0.00    +0.055 A 
ATOM      6  C   UNL     1       2.069  -5.133   2.451  0.00  0.00    +0.027 A 
ATOM      7  C   UNL     1       2.993  -5.409   3.436  0.00  0.00    +0.030 A 
ATOM      8  C   UNL     1       4.279  -5.788   3.098  0.00  0.00    +0.106 A 
ATOM      9  C   UNL     1       4.636  -5.898   1.766  0.00  0.00    +0.034 A 
ENDROOT
BRANCH   1  10
ATOM     10  S   UNL     1       0.063  -4.530  -0.023  0.00  0.00    +0.075 S 
ATOM     11  O   UNL     1      -0.476  -4.950   1.223  0.00  0.00    -0.150 OA
ATOM     12  O   UNL     1      -0.490  -4.937  -1.267  0.00  0.00    -0.150 OA
BRANCH  10  17
ATOM     13  C   UNL     1      -0.018   1.503   0.010  0.00  0.00    +0.044 C 
ATOM     14  C   UNL     1       0.002  -0.004   0.002  0.00  0.00    -0.047 A 
ATOM     15  C   UNL     1       0.006  -0.689  -1.199  0.00  0.00    +0.005 A 
ATOM     16  C   UNL     1       0.025  -2.071  -1.207  0.00  0.00    +0.029 A 
ATOM     17  C   UNL     1       0.040  -2.768  -0.013  0.00  0.00    +0.109 A 
ATOM     18  C   UNL     1       0.037  -2.084   1.188  0.00  0.00    +0.032 A 
ATOM     19  C   UNL     1       0.023  -0.702   1.195  0.00  0.00    -0.046 A 
ATOM     20  C   UNL     1       0.025   0.045   2.504  0.00  0.00    +0.044 C 
ENDBRANCH  10  17
ENDBRANCH   1  10
BRANCH   8  21
ATOM     21  S   UNL     1       5.457  -6.140   4.360  0.00  0.00    +0.058 S 
ATOM     22  O   UNL     1       6.741  -5.943   3.784  0.00  0.00    -0.153 OA
ATOM     23  O   UNL     1       5.028  -5.443   5.521  0.00  0.00    -0.153 OA
BRANCH  21  24
ATOM     24  N   UNL     1       5.336  -7.755   4.705  0.00  0.00    -0.193 NA
ATOM     25  C   UNL     1       5.686  -8.750   3.689  0.00  0.00    +0.127 C 
ATOM     26  H   UNL     1       5.034  -8.043   5.581  0.00  0.00    +0.148 HD
ENDBRANCH  21  24
ENDBRANCH   8  21
TORSDOF 4
