REMARK  Name = ZINC24824084
REMARK  13 active torsions:
REMARK  status: ('A' for Active; 'I' for Inactive)
REMARK    1  A    between atoms: C_1  and  C_2
REMARK    2  A    between atoms: C_3  and  C_15
REMARK    3  A    between atoms: C_4  and  C_14
REMARK    4  A    between atoms: C_8  and  O_12
REMARK    5  A    between atoms: N_10  and  C_11
REMARK    6  A    between atoms: O_12  and  C_13
REMARK    7  A    between atoms: C_15  and  C_16
REMARK    8  A    between atoms: C_16  and  C_17
REMARK    9  A    between atoms: N_19  and  C_20
REMARK   10  A    between atoms: C_20  and  C_21
REMARK   11  A    between atoms: C_21  and  C_22
REMARK   12  A    between atoms: C_22  and  N_23
REMARK   13  A    between atoms: C_26  and  C_29
REMARK                            x       y       z     vdW  Elec       q    Type
REMARK                         _______ _______ _______ _____ _____    ______ ____
ROOT
ATOM      1  C   UNL     1      -1.417   0.230   2.959  0.00  0.00    +0.100 C 
ENDROOT
BRANCH   1   2
ATOM      2  C   UNL     1      -1.414   0.952   4.282  0.00  0.00    +0.213 C 
ATOM      3  O   UNL     1      -0.363   1.256   4.804  0.00  0.00    -0.276 OA
ATOM      4  N   UNL     1      -2.580   1.258   4.884  0.00  0.00    -0.315 N 
ATOM      5  H   UNL     1      -3.534   0.981   4.410  0.00  0.00    +0.149 HD
BRANCH   4   6
ATOM      6  C   UNL     1      -2.578   1.959   6.171  0.00  0.00    +0.102 C 
BRANCH   6   7
ATOM      7  C   UNL     1      -4.020   2.183   6.632  0.00  0.00    +0.000 C 
BRANCH   7   8
ATOM      8  C   UNL     1      -4.018   2.915   7.975  0.00  0.00    -0.077 C 
BRANCH   8   9
ATOM      9  N   UNL     1      -5.402   3.130   8.418  0.00  0.00    +0.380 N 
ATOM     10  C   UNL     1      -6.107   4.049   7.515  0.00  0.00    -0.079 C 
ATOM     11  C   UNL     1      -7.580   4.135   7.920  0.00  0.00    -0.016 C 
ATOM     12  C   UNL     1      -7.678   4.634   9.365  0.00  0.00    -0.018 C 
ATOM     13  C   UNL     1      -6.895   3.687  10.278  0.00  0.00    -0.016 C 
ATOM     14  C   UNL     1      -5.442   3.614   9.804  0.00  0.00    -0.079 C 
ATOM     15  C   UNL     1      -9.145   4.665   9.797  0.00  0.00    +0.007 C 
ATOM     16  H   UNL     1      -5.923   2.162   8.386  0.00  0.00    -0.082 HD
ENDBRANCH   8   9
ENDBRANCH   7   8
ENDBRANCH   6   7
ENDBRANCH   4   6
ENDBRANCH   1   2
BRANCH   1  17
ATOM     17  C   UNL     1       0.025   0.006   2.497  0.00  0.00    +0.046 C 
BRANCH  17  20
ATOM     18  C   UNL     1      -0.018   1.503   0.010  0.00  0.00    +0.045 C 
ATOM     19  C   UNL     1       0.002  -0.004   0.002  0.00  0.00    -0.030 A 
ATOM     20  C   UNL     1       0.023  -0.715   1.174  0.00  0.00    -0.022 A 
ATOM     21  C   UNL     1       0.041  -2.101   1.136  0.00  0.00    +0.044 A 
ATOM     22  N   UNL     1       0.040  -2.759  -0.004  0.00  0.00    -0.232 NA
ATOM     23  C   UNL     1       0.020  -2.125  -1.170  0.00  0.00    +0.162 A 
ATOM     24  C   UNL     1      -0.005  -0.716  -1.202  0.00  0.00    +0.085 A 
ATOM     25  C   UNL     1      -0.031  -0.335  -2.613  0.00  0.00    +0.243 A 
ATOM     26  N   UNL     1      -0.026  -1.433  -3.317  0.00  0.00    -0.131 NA
ATOM     27  N   UNL     1       0.013  -2.546  -2.471  0.00  0.00    -0.246 N 
ATOM     28  C   UNL     1       0.029  -3.944  -2.910  0.00  0.00    +0.175 C 
ATOM     29  C   UNL     1       0.065  -2.873   2.430  0.00  0.00    +0.066 C 
BRANCH  25  30
ATOM     30  O   UNL     1      -0.056   0.933  -3.102  0.00  0.00    -0.478 OA
ATOM     31  C   UNL     1      -0.078   1.080  -4.523  0.00  0.00    +0.279 C 
ENDBRANCH  25  30
ENDBRANCH  17  20
ENDBRANCH   1  17
TORSDOF 8
