REMARK  Name = ZINC04972533
REMARK  4 active torsions:
REMARK  status: ('A' for Active; 'I' for Inactive)
REMARK    1  A    between atoms: C_1  and  O_2
REMARK    2  A    between atoms: O_2  and  C_3
REMARK    3  A    between atoms: C_12  and  C_22
REMARK    4  A    between atoms: C_19  and  O_21
REMARK                            x       y       z     vdW  Elec       q    Type
REMARK                         _______ _______ _______ _____ _____    ______ ____
ROOT
ATOM      1  C   UNL     1       1.125   2.079  -0.009  0.00  0.00    +0.124 A 
ATOM      2  C   UNL     1      -0.071   1.359  -0.016  0.00  0.00    +0.049 A 
ATOM      3  C   UNL     1      -0.035  -0.007  -0.022  0.00  0.00    -0.036 A 
ATOM      4  C   UNL     1       1.209  -0.591   0.052  0.00  0.00    +0.011 A 
ATOM      5  C   UNL     1       2.425   0.086  -0.078  0.00  0.00    +0.129 A 
ATOM      6  C   UNL     1       2.382   1.473  -0.059  0.00  0.00    +0.091 A 
ATOM      7  O   UNL     1       3.432  -0.828  -0.190  0.00  0.00    -0.485 OA
ATOM      8  C   UNL     1       2.807  -2.011  -0.716  0.00  0.00    +0.216 C 
ATOM      9  C   UNL     1       1.530  -2.049   0.183  0.00  0.00    +0.059 C 
ATOM     10  C   UNL     1       0.478  -2.930  -0.473  0.00  0.00    +0.007 C 
ATOM     11  C   UNL     1      -0.632  -2.106  -1.113  0.00  0.00    +0.009 C 
ATOM     12  C   UNL     1      -1.157  -1.000  -0.170  0.00  0.00    +0.036 C 
ATOM     13  C   UNL     1       1.206  -3.791  -1.514  0.00  0.00    +0.007 C 
ATOM     14  C   UNL     1       2.462  -4.427  -0.908  0.00  0.00    +0.035 C 
ATOM     15  C   UNL     1       3.495  -3.343  -0.539  0.00  0.00    +0.156 C 
ENDROOT
BRANCH   1  17
ATOM     16  C   UNL     1       2.305   4.142   0.055  0.00  0.00    +0.277 C 
ATOM     17  O   UNL     1       1.063   3.435   0.049  0.00  0.00    -0.495 OA
ENDBRANCH   1  17
BRANCH  15  18
ATOM     18  O   UNL     1       3.911  -3.502   0.819  0.00  0.00    -0.388 OA
ATOM     19  H   UNL     1       4.428  -4.303   0.980  0.00  0.00    +0.210 HD
ENDBRANCH  15  18
BRANCH   9  20
ATOM     20  C   UNL     1       1.824  -2.469   1.600  0.00  0.00    -0.019 C 
ATOM     21  C   UNL     1       1.740  -1.595   2.573  0.00  0.00    +0.005 C 
ENDBRANCH   9  20
TORSDOF 3
