REMARK  Name = ZINC64053723
REMARK  11 active torsions:
REMARK  status: ('A' for Active; 'I' for Inactive)
REMARK    1  A    between atoms: C_1  and  O_2
REMARK    2  A    between atoms: O_2  and  C_3
REMARK    3  A    between atoms: C_6  and  C_11
REMARK    4  A    between atoms: C_7  and  O_9
REMARK    5  A    between atoms: O_9  and  C_10
REMARK    6  A    between atoms: C_11  and  N_12
REMARK    7  A    between atoms: C_18  and  C_20
REMARK    8  A    between atoms: C_20  and  C_21
REMARK    9  A    between atoms: N_23  and  C_24
REMARK   10  A    between atoms: C_24  and  C_25
REMARK   11  A    between atoms: C_25  and  C_26
REMARK                            x       y       z     vdW  Elec       q    Type
REMARK                         _______ _______ _______ _____ _____    ______ ____
ROOT
ATOM      1  N   UNL     1       4.035  -3.045   3.782  0.00  0.00    +0.391 N 
ATOM      2  C   UNL     1       4.810  -1.854   3.400  0.00  0.00    -0.058 C 
ATOM      3  C   UNL     1       6.195  -2.297   2.925  0.00  0.00    +0.085 C 
ATOM      4  N   UNL     1       6.798  -3.187   3.914  0.00  0.00    -0.318 N 
ATOM      5  C   UNL     1       6.083  -3.799   4.865  0.00  0.00    +0.200 C 
ATOM      6  O   UNL     1       6.654  -4.541   5.635  0.00  0.00    -0.278 OA
ATOM      7  C   UNL     1       4.601  -3.603   5.017  0.00  0.00    +0.028 C 
ATOM      8  H   UNL     1       7.755  -3.340   3.880  0.00  0.00    +0.149 HD
ATOM      9  H   UNL     1       4.086  -3.733   3.046  0.00  0.00    -0.080 HD
ENDROOT
BRANCH   1  10
ATOM     10  C   UNL     1       2.634  -2.669   4.009  0.00  0.00    -0.038 C 
BRANCH  10  14
ATOM     11  C   UNL     1       0.878  -1.417   0.316  0.00  0.00    +0.124 A 
ATOM     12  C   UNL     1       1.318  -0.474   1.234  0.00  0.00    +0.046 A 
ATOM     13  C   UNL     1       1.884  -0.881   2.427  0.00  0.00    +0.009 A 
ATOM     14  C   UNL     1       2.015  -2.228   2.708  0.00  0.00    -0.022 A 
ATOM     15  C   UNL     1       1.577  -3.175   1.793  0.00  0.00    +0.125 A 
ATOM     16  C   UNL     1       1.003  -2.768   0.598  0.00  0.00    +0.091 A 
BRANCH  11  18
ATOM     17  C   UNL     1       0.225   0.392  -1.082  0.00  0.00    +0.277 C 
ATOM     18  O   UNL     1       0.321  -1.016  -0.857  0.00  0.00    -0.495 OA
ENDBRANCH  11  18
BRANCH  15  19
ATOM     19  O   UNL     1       1.706  -4.499   2.070  0.00  0.00    -0.495 OA
ATOM     20  C   UNL     1       1.233  -5.417   1.083  0.00  0.00    +0.277 C 
ENDBRANCH  15  19
ENDBRANCH  10  14
ENDBRANCH   1  10
BRANCH   7  21
ATOM     21  C   UNL     1       3.939  -4.951   5.313  0.00  0.00    +0.089 C 
BRANCH  21  22
ATOM     22  C   UNL     1       4.232  -5.912   4.190  0.00  0.00    +0.212 C 
ATOM     23  O   UNL     1       4.989  -5.591   3.299  0.00  0.00    -0.276 OA
ATOM     24  N   UNL     1       3.651  -7.128   4.176  0.00  0.00    -0.315 N 
ATOM     25  H   UNL     1       3.045  -7.385   4.888  0.00  0.00    +0.149 HD
BRANCH  24  26
ATOM     26  C   UNL     1       3.935  -8.062   3.083  0.00  0.00    +0.108 C 
BRANCH  26  27
ATOM     27  C   UNL     1       3.155  -9.360   3.306  0.00  0.00    +0.052 C 
BRANCH  27  28
ATOM     28  C   UNL     1       3.447 -10.321   2.183  0.00  0.00    -0.040 C 
ATOM     29  C   UNL     1       4.371 -11.308   2.177  0.00  0.00    -0.001 A 
ATOM     30  C   UNL     1       5.344 -11.765   3.177  0.00  0.00    +0.010 A 
ATOM     31  C   UNL     1       6.156 -12.803   2.875  0.00  0.00    +0.001 A 
ATOM     32  C   UNL     1       6.092 -13.453   1.634  0.00  0.00    +0.002 A 
ATOM     33  C   UNL     1       5.224 -13.091   0.666  0.00  0.00    +0.026 A 
ATOM     34  C   UNL     1       4.323 -12.011   0.875  0.00  0.00    +0.043 A 
ATOM     35  N   UNL     1       3.405 -11.479   0.106  0.00  0.00    -0.380 N 
ATOM     36  C   UNL     1       2.761 -10.381   0.836  0.00  0.00    +0.144 C 
ATOM     37  H   UNL     1       3.184 -11.766  -0.794  0.00  0.00    +0.160 HD
ENDBRANCH  27  28
ENDBRANCH  26  27
ENDBRANCH  24  26
ENDBRANCH  21  22
ENDBRANCH   7  21
TORSDOF 9
