REMARK  Name = ZINC02498385
REMARK  4 active torsions:
REMARK  status: ('A' for Active; 'I' for Inactive)
REMARK    1  A    between atoms: C_1  and  C_2
REMARK    2  A    between atoms: C_2  and  C_3
REMARK    3  A    between atoms: C_10  and  C_12
REMARK    4  A    between atoms: C_19  and  C_26
REMARK                            x       y       z     vdW  Elec       q    Type
REMARK                         _______ _______ _______ _____ _____    ______ ____
ROOT
ATOM      1  C   UNL     1      -1.825   1.276  -3.485  0.00  0.00    +0.077 A 
ATOM      2  C   UNL     1      -2.991   1.980  -3.539  0.00  0.00    +0.036 A 
ATOM      3  C   UNL     1      -3.585   2.253  -4.775  0.00  0.00    +0.073 A 
ATOM      4  C   UNL     1      -2.895   1.754  -5.910  0.00  0.00    +0.116 A 
ATOM      5  S   UNL     1      -1.476   0.953  -5.205  0.00  0.00    -0.064 S 
ATOM      6  N   UNL     1      -3.340   1.938  -7.135  0.00  0.00    -0.222 NA
ATOM      7  C   UNL     1      -4.469   2.606  -7.363  0.00  0.00    +0.144 A 
ATOM      8  C   UNL     1      -4.912   2.782  -8.688  0.00  0.00    -0.008 A 
ATOM      9  C   UNL     1      -6.067   3.465  -8.922  0.00  0.00    +0.008 A 
ATOM     10  C   UNL     1      -6.795   3.983  -7.841  0.00  0.00    +0.019 A 
ATOM     11  C   UNL     1      -6.356   3.807  -6.577  0.00  0.00    +0.096 A 
ATOM     12  N   UNL     1      -5.200   3.122  -6.325  0.00  0.00    -0.267 N 
ATOM     13  C   UNL     1      -4.795   2.967  -5.050  0.00  0.00    +0.267 A 
ATOM     14  O   UNL     1      -5.455   3.430  -4.136  0.00  0.00    -0.267 OA
ATOM     15  C   UNL     1      -4.116   2.218  -9.836  0.00  0.00    +0.047 C 
ENDROOT
BRANCH   1  22
ATOM     16  C   UNL     1       0.141  -0.799  -0.988  0.00  0.00    +0.076 C 
ATOM     17  C   UNL     1      -0.513  -2.085  -0.474  0.00  0.00    +0.022 C 
ATOM     18  C   UNL     1      -0.530  -3.127  -1.594  0.00  0.00    +0.003 C 
ATOM     19  C   UNL     1      -1.357  -2.601  -2.770  0.00  0.00    +0.019 C 
ATOM     20  C   UNL     1      -0.712  -1.321  -3.310  0.00  0.00    +0.108 C 
ATOM     21  N   UNL     1      -0.556  -0.364  -2.206  0.00  0.00    -0.294 N 
ATOM     22  C   UNL     1      -1.047   0.887  -2.307  0.00  0.00    +0.254 C 
ATOM     23  O   UNL     1      -0.843   1.694  -1.418  0.00  0.00    -0.269 OA
BRANCH  16  25
ATOM     24  C   UNL     1       0.686  -0.199   1.375  0.00  0.00    +0.006 C 
ATOM     25  C   UNL     1       0.037   0.292   0.080  0.00  0.00    +0.019 C 
ENDBRANCH  16  25
ENDBRANCH   1  22
TORSDOF 2
