REMARK  Name = ZINC15733155
REMARK  1 active torsions:
REMARK  status: ('A' for Active; 'I' for Inactive)
REMARK    1  A    between atoms: C_11  and  C_13
REMARK                            x       y       z     vdW  Elec       q    Type
REMARK                         _______ _______ _______ _____ _____    ______ ____
ROOT
ATOM      1  C   UNL     1       1.175   1.793   0.001  0.00  0.00    +0.002 A 
ATOM      2  C   UNL     1      -0.013   1.076   0.008  0.00  0.00    +0.001 A 
ATOM      3  C   UNL     1      -1.215   1.758   0.017  0.00  0.00    +0.017 A 
ATOM      4  C   UNL     1      -1.216   3.131   0.030  0.00  0.00    +0.041 A 
ATOM      5  C   UNL     1      -0.026   3.894   0.022  0.00  0.00    +0.080 A 
ATOM      6  C   UNL     1       1.185   3.163   0.007  0.00  0.00    +0.029 A 
ATOM      7  N   UNL     1      -0.191   5.234   0.031  0.00  0.00    -0.225 NA
ATOM      8  C   UNL     1      -1.376   5.799   0.046  0.00  0.00    +0.166 A 
ATOM      9  S   UNL     1      -2.471   4.387   0.049  0.00  0.00    -0.052 S 
ATOM     10  N   UNL     1      -1.695   7.146   0.056  0.00  0.00    -0.259 N 
ATOM     11  C   UNL     1      -2.987   7.532   0.071  0.00  0.00    +0.272 C 
ATOM     12  O   UNL     1      -3.870   6.699   0.075  0.00  0.00    -0.268 OA
ATOM     13  H   UNL     1      -0.990   7.812   0.052  0.00  0.00    +0.157 HD
ENDROOT
BRANCH  11  14
ATOM     14  C   UNL     1      -3.329   8.975   0.081  0.00  0.00    +0.172 A 
ATOM     15  C   UNL     1      -4.614   9.537   0.097  0.00  0.00    +0.032 A 
ATOM     16  C   UNL     1      -4.377  10.893   0.123  0.00  0.00    +0.172 A 
ATOM     17  O   UNL     1      -3.066  11.061   0.093  0.00  0.00    -0.354 OA
ATOM     18  N   UNL     1      -2.487   9.990   0.084  0.00  0.00    -0.073 NA
ATOM     19  C   UNL     1      -5.529  11.829   0.186  0.00  0.00    +0.030 A 
ATOM     20  C   UNL     1      -5.517  13.210  -0.013  0.00  0.00    +0.019 A 
ATOM     21  C   UNL     1      -6.689  13.879   0.065  0.00  0.00    +0.046 A 
ATOM     22  S   UNL     1      -7.853  12.576   0.430  0.00  0.00    -0.101 S 
ATOM     23  C   UNL     1      -6.756  11.254   0.468  0.00  0.00    +0.001 A 
ATOM     24  C   UNL     1      -7.003   9.811   0.761  0.00  0.00    +0.048 C 
ATOM     25  C   UNL     1      -5.976   8.916   0.057  0.00  0.00    +0.046 C 
ENDBRANCH  11  14
TORSDOF 1
