REMARK  Name = ZINC65588944
REMARK  4 active torsions:
REMARK  status: ('A' for Active; 'I' for Inactive)
REMARK    1  A    between atoms: C_1  and  C_2
REMARK    2  A    between atoms: C_7  and  C_23
REMARK    3  A    between atoms: C_8  and  N_11
REMARK    4  A    between atoms: C_12  and  C_14
REMARK                            x       y       z     vdW  Elec       q    Type
REMARK                         _______ _______ _______ _____ _____    ______ ____
ROOT
ATOM      1  C   UNL     1      -2.574   0.747   0.176  0.00  0.00    +0.045 C 
ATOM      2  C   UNL     1      -1.772  -0.527   0.117  0.00  0.00    -0.034 A 
ATOM      3  C   UNL     1      -1.540  -1.151  -1.122  0.00  0.00    +0.008 A 
ATOM      4  C   UNL     1      -0.816  -2.300  -1.174  0.00  0.00    +0.047 A 
ATOM      5  C   UNL     1      -0.307  -2.853   0.020  0.00  0.00    +0.140 A 
ATOM      6  N   UNL     1       0.414  -3.937   0.256  0.00  0.00    -0.226 NA
ATOM      7  C   UNL     1       0.651  -4.035   1.575  0.00  0.00    +0.112 A 
ATOM      8  C   UNL     1       0.051  -2.961   2.198  0.00  0.00    +0.138 A 
ATOM      9  N   UNL     1      -0.550  -2.220   1.217  0.00  0.00    -0.287 N 
ATOM     10  C   UNL     1      -1.276  -1.061   1.252  0.00  0.00    +0.097 A 
ENDROOT
BRANCH   7  11
ATOM     11  C   UNL     1       1.422  -5.110   2.244  0.00  0.00    +0.004 A 
ATOM     12  C   UNL     1       2.204  -4.819   3.361  0.00  0.00    +0.010 A 
ATOM     13  C   UNL     1       2.920  -5.823   3.980  0.00  0.00    +0.001 A 
ATOM     14  C   UNL     1       2.863  -7.117   3.493  0.00  0.00    +0.000 A 
ATOM     15  C   UNL     1       2.090  -7.412   2.385  0.00  0.00    +0.001 A 
ATOM     16  C   UNL     1       1.364  -6.417   1.762  0.00  0.00    +0.010 A 
ENDBRANCH   7  11
BRANCH   8  17
ATOM     17  N   UNL     1       0.055  -2.683   3.565  0.00  0.00    -0.264 N 
ATOM     18  C   UNL     1       0.712  -1.602   4.031  0.00  0.00    +0.269 C 
ATOM     19  O   UNL     1       1.226  -0.821   3.253  0.00  0.00    -0.268 OA
ATOM     20  H   UNL     1      -0.415  -3.267   4.180  0.00  0.00    +0.157 HD
BRANCH  18  21
ATOM     21  C   UNL     1       0.808  -1.367   5.484  0.00  0.00    +0.144 A 
ATOM     22  C   UNL     1       1.436  -0.314   6.086  0.00  0.00    +0.125 A 
ATOM     23  N   UNL     1       1.291  -0.476   7.431  0.00  0.00    -0.306 N 
ATOM     24  C   UNL     1       1.713   0.267   8.497  0.00  0.00    +0.093 A 
ATOM     25  C   UNL     1       1.432  -0.121   9.758  0.00  0.00    +0.018 A 
ATOM     26  C   UNL     1       0.699  -1.297   9.993  0.00  0.00    +0.005 A 
ATOM     27  C   UNL     1       0.272  -2.046   8.943  0.00  0.00    +0.047 A 
ATOM     28  C   UNL     1       0.574  -1.630   7.628  0.00  0.00    +0.138 A 
ATOM     29  N   UNL     1       0.286  -2.150   6.447  0.00  0.00    -0.223 NA
ENDBRANCH  18  21
ENDBRANCH   8  17
TORSDOF 3
