REMARK  Name = ZINC40631088
REMARK  3 active torsions:
REMARK  status: ('A' for Active; 'I' for Inactive)
REMARK    1  A    between atoms: C_6  and  N_7
REMARK    2  A    between atoms: C_14  and  C_16
REMARK    3  A    between atoms: C_22  and  C_24
REMARK                            x       y       z     vdW  Elec       q    Type
REMARK                         _______ _______ _______ _____ _____    ______ ____
ROOT
ATOM      1  C   UNL     1      -0.050   1.330  -0.117  0.00  0.00    +0.033 A 
ATOM      2  C   UNL     1       1.128   2.050  -0.173  0.00  0.00    +0.007 A 
ATOM      3  C   UNL     1       2.348   1.394  -0.168  0.00  0.00    -0.026 A 
ATOM      4  C   UNL     1       2.380   0.010  -0.104  0.00  0.00    +0.042 A 
ATOM      5  C   UNL     1       1.194  -0.712  -0.050  0.00  0.00    +0.056 A 
ATOM      6  C   UNL     1      -0.018  -0.051  -0.057  0.00  0.00    +0.128 A 
ATOM      7  N   UNL     1       3.600  -0.680  -0.088  0.00  0.00    -0.270 N 
ATOM      8  C   UNL     1       4.830   0.044  -0.440  0.00  0.00    +0.114 C 
ATOM      9  C   UNL     1       4.800   1.397   0.283  0.00  0.00    +0.024 C 
ATOM     10  C   UNL     1       3.613   2.208  -0.235  0.00  0.00    +0.038 C 
ATOM     11  C   UNL     1       3.645  -1.985   0.245  0.00  0.00    +0.240 C 
ATOM     12  O   UNL     1       2.645  -2.545   0.642  0.00  0.00    -0.273 OA
ENDROOT
BRANCH  11  13
ATOM     13  C   UNL     1       4.939  -2.749   0.126  0.00  0.00    +0.163 C 
ATOM     14  C   UNL     1       5.744  -2.627   1.437  0.00  0.00    +0.033 C 
ATOM     15  C   UNL     1       5.385  -3.937   2.188  0.00  0.00    +0.021 C 
ATOM     16  C   UNL     1       5.270  -4.945   1.017  0.00  0.00    +0.109 C 
ATOM     17  N   UNL     1       4.658  -4.177  -0.087  0.00  0.00    -0.283 N 
ATOM     18  C   UNL     1       3.959  -4.695  -1.116  0.00  0.00    +0.320 C 
ATOM     19  O   UNL     1       3.499  -3.963  -1.967  0.00  0.00    -0.266 OA
BRANCH  18  20
ATOM     20  C   UNL     1       3.747  -6.184  -1.209  0.00  0.00    +0.470 C 
ATOM     21  F   UNL     1       2.998  -6.478  -2.353  0.00  0.00    -0.162 F 
ATOM     22  F   UNL     1       4.987  -6.827  -1.285  0.00  0.00    -0.162 F 
ATOM     23  F   UNL     1       3.060  -6.629  -0.075  0.00  0.00    -0.162 F 
ENDBRANCH  18  20
ENDBRANCH  11  13
BRANCH   6  24
ATOM     24  N   UNL     1      -1.282  -0.819   0.002  0.00  0.00    +0.056 N 
ATOM     25  O   UNL     1      -2.343  -0.239  -0.004  0.00  0.00    -0.126 OA
ATOM     26  O   UNL     1      -1.254  -2.026   0.055  0.00  0.00    -0.126 OA
ENDBRANCH   6  24
TORSDOF 3
