REMARK  Name = ZINC07778484
REMARK  5 active torsions:
REMARK  status: ('A' for Active; 'I' for Inactive)
REMARK    1  A    between atoms: C_1  and  C_2
REMARK    2  A    between atoms: C_10  and  C_16
REMARK    3  A    between atoms: C_16  and  O_18
REMARK    4  A    between atoms: O_18  and  C_19
REMARK    5  A    between atoms: C_19  and  C_20
REMARK                            x       y       z     vdW  Elec       q    Type
REMARK                         _______ _______ _______ _____ _____    ______ ____
ROOT
ATOM      1  C   UNL     1       1.941  -5.774   0.134  0.00  0.00    +0.008 C 
ATOM      2  C   UNL     1       1.080  -4.535   0.387  0.00  0.00    -0.009 C 
ATOM      3  C   UNL     1      -0.206  -4.630  -0.438  0.00  0.00    +0.009 C 
ATOM      4  C   UNL     1      -1.176  -3.525  -0.004  0.00  0.00    +0.054 C 
ATOM      5  C   UNL     1      -0.435  -2.208  -0.004  0.00  0.00    +0.020 A 
ATOM      6  C   UNL     1       0.908  -2.107  -0.015  0.00  0.00    -0.019 A 
ATOM      7  C   UNL     1       1.237  -0.685  -0.013  0.00  0.00    +0.004 A 
ATOM      8  C   UNL     1       2.428   0.037  -0.021  0.00  0.00    +0.025 A 
ATOM      9  C   UNL     1       2.385   1.428  -0.013  0.00  0.00    +0.060 A 
ATOM     10  C   UNL     1       1.150   2.093   0.002  0.00  0.00    +0.017 A 
ATOM     11  C   UNL     1      -0.017   1.389   0.010  0.00  0.00    +0.027 A 
ATOM     12  C   UNL     1       0.002  -0.004   0.002  0.00  0.00    +0.047 A 
ATOM     13  N   UNL     1      -0.988  -0.958   0.006  0.00  0.00    -0.358 N 
ATOM     14  H   UNL     1      -1.940  -0.771   0.015  0.00  0.00    +0.166 HD
ATOM     15  C   UNL     1       1.856  -3.278  -0.026  0.00  0.00    +0.040 C 
ENDROOT
BRANCH   9  16
ATOM     16  C   UNL     1       3.640   2.204  -0.021  0.00  0.00    +0.340 C 
ATOM     17  O   UNL     1       4.710   1.629  -0.035  0.00  0.00    -0.245 OA
BRANCH  16  18
ATOM     18  O   UNL     1       3.599   3.551  -0.013  0.00  0.00    -0.455 OA
BRANCH  18  19
ATOM     19  C   UNL     1       4.872   4.249  -0.022  0.00  0.00    +0.288 C 
BRANCH  19  20
ATOM     20  C   UNL     1       4.630   5.736  -0.012  0.00  0.00    +0.087 A 
ATOM     21  C   UNL     1       5.023   6.504   1.064  0.00  0.00    +0.097 A 
ATOM     22  C   UNL     1       4.790   7.879   1.056  0.00  0.00    +0.259 A 
ATOM     23  O   UNL     1       5.135   8.563   2.006  0.00  0.00    -0.267 OA
ATOM     24  N   UNL     1       4.174   8.460  -0.017  0.00  0.00    -0.262 N 
ATOM     25  C   UNL     1       3.876   9.792  -0.172  0.00  0.00    +0.104 A 
ATOM     26  C   UNL     1       3.269  10.238  -1.272  0.00  0.00    +0.067 A 
ATOM     27  S   UNL     1       3.065   8.734  -2.212  0.00  0.00    -0.058 S 
ATOM     28  C   UNL     1       3.817   7.624  -1.042  0.00  0.00    +0.180 A 
ATOM     29  N   UNL     1       4.038   6.333  -1.043  0.00  0.00    -0.224 NA
ENDBRANCH  19  20
ENDBRANCH  18  19
ENDBRANCH  16  18
ENDBRANCH   9  16
TORSDOF 4
