REMARK  Name = ZINC47999912
REMARK  8 active torsions:
REMARK  status: ('A' for Active; 'I' for Inactive)
REMARK    1  A    between atoms: C_1  and  C_2
REMARK    2  A    between atoms: N_8  and  C_9
REMARK    3  A    between atoms: C_9  and  C_10
REMARK    4  A    between atoms: C_10  and  C_11
REMARK    5  A    between atoms: C_11  and  C_12
REMARK    6  A    between atoms: C_12  and  N_13
REMARK    7  A    between atoms: C_14  and  C_16
REMARK    8  A    between atoms: C_16  and  N_18
REMARK                            x       y       z     vdW  Elec       q    Type
REMARK                         _______ _______ _______ _____ _____    ______ ____
ROOT
ATOM      1  N   UNL     1       6.221   0.443   3.874  0.00  0.00    -0.308 N 
ATOM      2  C   UNL     1       7.026   0.217   4.931  0.00  0.00    +0.301 C 
ATOM      3  O   UNL     1       6.635  -0.459   5.859  0.00  0.00    -0.265 OA
ATOM      4  H   UNL     1       6.533   0.983   3.132  0.00  0.00    +0.149 HD
ENDROOT
BRANCH   2   5
ATOM      5  C   UNL     1       8.400   0.799   4.959  0.00  0.00    +0.324 C 
ATOM      6  O   UNL     1       8.793   1.478   4.027  0.00  0.00    -0.263 OA
BRANCH   5   7
ATOM      7  N   UNL     1       9.196   0.576   6.002  0.00  0.00    -0.148 NA
ATOM      8  C   UNL     1      10.422   1.096   6.027  0.00  0.00    +0.164 A 
ATOM      9  N   UNL     1      11.360   0.968   6.999  0.00  0.00    -0.335 N 
ATOM     10  C   UNL     1      12.589   1.581   6.854  0.00  0.00    +0.055 A 
ATOM     11  C   UNL     1      13.688   1.580   7.724  0.00  0.00    +0.027 A 
ATOM     12  C   UNL     1      14.838   2.260   7.401  0.00  0.00    +0.002 A 
ATOM     13  C   UNL     1      14.946   2.963   6.212  0.00  0.00    +0.001 A 
ATOM     14  C   UNL     1      13.876   2.980   5.335  0.00  0.00    +0.017 A 
ATOM     15  C   UNL     1      12.725   2.301   5.657  0.00  0.00    +0.039 A 
ATOM     16  S   UNL     1      11.160   2.053   4.859  0.00  0.00    -0.052 S 
ATOM     17  H   UNL     1      11.168   0.446   7.794  0.00  0.00    +0.168 HD
ENDBRANCH   5   7
ENDBRANCH   2   5
BRANCH   1  18
ATOM     18  C   UNL     1       4.872  -0.129   3.846  0.00  0.00    +0.104 C 
BRANCH  18  19
ATOM     19  C   UNL     1       4.173   0.276   2.547  0.00  0.00    +0.017 C 
BRANCH  19  20
ATOM     20  C   UNL     1       2.764  -0.321   2.518  0.00  0.00    -0.017 C 
BRANCH  20  21
ATOM     21  C   UNL     1       2.066   0.083   1.218  0.00  0.00    -0.078 C 
BRANCH  21  28
ATOM     22  C   UNL     1      -0.019   1.526   0.010  0.00  0.00    -0.013 C 
ATOM     23  C   UNL     1       0.002  -0.004   0.002  0.00  0.00    -0.072 C 
ATOM     24  C   UNL     1      -1.434  -0.533   0.011  0.00  0.00    -0.016 C 
ATOM     25  C   UNL     1      -1.408  -2.064   0.003  0.00  0.00    -0.003 C 
ATOM     26  C   UNL     1      -0.600  -2.558   1.206  0.00  0.00    -0.019 C 
ATOM     27  C   UNL     1       0.805  -1.954   1.152  0.00  0.00    -0.078 C 
ATOM     28  N   UNL     1       0.713  -0.490   1.191  0.00  0.00    +0.381 N 
ATOM     29  H   UNL     1       0.213  -0.206   2.020  0.00  0.00    -0.081 HD
ENDBRANCH  21  28
ENDBRANCH  20  21
ENDBRANCH  19  20
ENDBRANCH  18  19
ENDBRANCH   1  18
TORSDOF 7
