REMARK  Name = ZINC15835813
REMARK  4 active torsions:
REMARK  status: ('A' for Active; 'I' for Inactive)
REMARK    1  A    between atoms: C_1  and  C_2
REMARK    2  A    between atoms: C_7  and  C_8
REMARK    3  A    between atoms: C_11  and  C_13
REMARK    4  A    between atoms: N_14  and  N_15
REMARK                            x       y       z     vdW  Elec       q    Type
REMARK                         _______ _______ _______ _____ _____    ______ ____
ROOT
ATOM      1  C   UNL     1       1.468   2.465  -4.814  0.00  0.00    +0.177 C 
ATOM      2  N   UNL     1       0.759   1.427  -4.473  0.00  0.00    -0.175 NA
ENDROOT
BRANCH   2   3
ATOM      3  N   UNL     1       1.307   0.449  -3.634  0.00  0.00    -0.127 N 
ATOM      4  C   UNL     1       2.248  -0.411  -4.041  0.00  0.00    +0.246 C 
ATOM      5  O   UNL     1       2.731  -0.451  -5.153  0.00  0.00    -0.273 OA
ATOM      6  C   UNL     1       2.614  -1.327  -2.893  0.00  0.00    +0.097 C 
ATOM      7  C   UNL     1       2.274  -2.775  -3.279  0.00  0.00    +0.027 C 
ATOM      8  C   UNL     1       0.776  -2.818  -3.556  0.00  0.00    -0.026 C 
ATOM      9  C   UNL     1       0.002  -2.401  -2.561  0.00  0.00    -0.026 C 
ATOM     10  C   UNL     1       0.759  -1.956  -1.290  0.00  0.00    +0.027 C 
ATOM     11  C   UNL     1       1.727  -0.848  -1.732  0.00  0.00    +0.097 C 
ATOM     12  C   UNL     1       0.932   0.297  -2.357  0.00  0.00    +0.246 C 
ATOM     13  O   UNL     1       0.098   0.965  -1.785  0.00  0.00    -0.273 OA
ATOM     14  C   UNL     1       1.629  -3.161  -0.843  0.00  0.00    +0.001 C 
ATOM     15  C   UNL     1       2.508  -3.643  -2.013  0.00  0.00    +0.001 C 
ATOM     16  C   UNL     1       3.139  -2.920  -0.789  0.00  0.00    +0.009 C 
ENDBRANCH   2   3
BRANCH   1  20
ATOM     17  C   UNL     1       4.515   2.480  -2.868  0.00  0.00    +0.136 A 
ATOM     18  C   UNL     1       4.780   3.531  -3.695  0.00  0.00    +0.050 A 
ATOM     19  C   UNL     1       3.674   3.676  -4.543  0.00  0.00    +0.051 A 
ATOM     20  C   UNL     1       2.773   2.695  -4.192  0.00  0.00    +0.148 A 
ATOM     21  O   UNL     1       3.300   1.987  -3.173  0.00  0.00    -0.454 OA
BRANCH  17  28
ATOM     22  C   UNL     1       3.561   2.328  -0.141  0.00  0.00    +0.044 C 
ATOM     23  C   UNL     1       4.961   1.893  -0.489  0.00  0.00    -0.040 A 
ATOM     24  C   UNL     1       5.801   1.413   0.494  0.00  0.00    +0.005 A 
ATOM     25  C   UNL     1       7.088   1.018   0.178  0.00  0.00    +0.020 A 
ATOM     26  C   UNL     1       7.542   1.097  -1.128  0.00  0.00    +0.042 A 
ATOM     27  C   UNL     1       6.711   1.571  -2.123  0.00  0.00    +0.031 A 
ATOM     28  C   UNL     1       5.410   1.971  -1.810  0.00  0.00    +0.022 A 
ATOM     29 CL   UNL     1       9.160   0.599  -1.515  0.00  0.00    -0.084 Cl
ENDBRANCH  17  28
ENDBRANCH   1  20
TORSDOF 3
