REMARK  Name = ZINC51675177
REMARK  6 active torsions:
REMARK  status: ('A' for Active; 'I' for Inactive)
REMARK    1  A    between atoms: C_4  and  C_7
REMARK    2  A    between atoms: C_7  and  C_9
REMARK    3  A    between atoms: C_7  and  N_26
REMARK    4  A    between atoms: C_9  and  N_10
REMARK    5  A    between atoms: C_17  and  C_20
REMARK    6  A    between atoms: N_22  and  C_23
REMARK                            x       y       z     vdW  Elec       q    Type
REMARK                         _______ _______ _______ _____ _____    ______ ____
ROOT
ATOM      1  N   UNL     1       5.177  -2.004   1.255  0.00  0.00    -0.300 N 
ATOM      2  C   UNL     1       5.564  -2.577   2.411  0.00  0.00    +0.302 C 
ATOM      3  O   UNL     1       5.033  -2.256   3.457  0.00  0.00    -0.253 OA
ATOM      4  N   UNL     1       6.540  -3.507   2.409  0.00  0.00    -0.285 N 
ATOM      5  C   UNL     1       6.896  -4.221   3.643  0.00  0.00    +0.109 C 
ATOM      6  C   UNL     1       6.829  -5.728   3.377  0.00  0.00    +0.020 C 
ATOM      7  C   UNL     1       7.713  -6.070   2.175  0.00  0.00    +0.016 C 
ATOM      8  C   UNL     1       7.197  -5.337   0.935  0.00  0.00    +0.092 C 
ATOM      9  C   UNL     1       7.264  -3.829   1.172  0.00  0.00    +0.122 C 
ATOM     10  H   UNL     1       5.645  -2.211   0.430  0.00  0.00    +0.150 HD
ENDROOT
BRANCH   8  11
ATOM     11  C   UNL     1       8.049  -5.699  -0.255  0.00  0.00    +0.218 C 
ATOM     12  O   UNL     1       8.977  -6.468  -0.124  0.00  0.00    -0.275 OA
ATOM     13  N   UNL     1       7.778  -5.169  -1.464  0.00  0.00    -0.312 N 
ATOM     14  H   UNL     1       7.035  -4.554  -1.568  0.00  0.00    +0.149 HD
BRANCH  13  15
ATOM     15  C   UNL     1       8.606  -5.521  -2.620  0.00  0.00    +0.073 C 
ATOM     16  C   UNL     1       9.026  -4.389  -3.559  0.00  0.00    +0.024 C 
ATOM     17  C   UNL     1       7.970  -5.402  -4.006  0.00  0.00    +0.024 C 
ENDBRANCH  13  15
ENDBRANCH   8  11
BRANCH   1  18
ATOM     18  C   UNL     1       4.050  -1.068   1.242  0.00  0.00    +0.095 C 
BRANCH  18  19
ATOM     19  C   UNL     1       3.743  -0.659  -0.200  0.00  0.00    -0.020 C 
BRANCH  19  23
ATOM     20  C   UNL     1       7.039   1.545  -1.789  0.00  0.00    +0.000 A 
ATOM     21  C   UNL     1       6.889   0.206  -2.099  0.00  0.00    +0.000 A 
ATOM     22  C   UNL     1       5.822  -0.507  -1.585  0.00  0.00    +0.002 A 
ATOM     23  C   UNL     1       4.906   0.118  -0.760  0.00  0.00    -0.059 A 
ATOM     24  C   UNL     1       5.057   1.457  -0.449  0.00  0.00    +0.002 A 
ATOM     25  C   UNL     1       6.123   2.170  -0.965  0.00  0.00    +0.000 A 
ENDBRANCH  19  23
BRANCH  19  26
ATOM     26  N   UNL     1       2.537   0.179  -0.225  0.00  0.00    +0.385 N 
ATOM     27  C   UNL     1       2.135   0.458  -1.628  0.00  0.00    -0.078 C 
ATOM     28  C   UNL     1       0.634   0.821  -1.502  0.00  0.00    -0.020 C 
ATOM     29  C   UNL     1       0.137  -0.144  -0.401  0.00  0.00    -0.020 C 
ATOM     30  C   UNL     1       1.399  -0.546   0.383  0.00  0.00    -0.078 C 
ATOM     31  H   UNL     1       2.703   1.043   0.269  0.00  0.00    -0.081 HD
ENDBRANCH  19  26
ENDBRANCH  18  19
ENDBRANCH   1  18
TORSDOF 6
