REMARK  Name = ZINC37523475
REMARK  9 active torsions:
REMARK  status: ('A' for Active; 'I' for Inactive)
REMARK    1  A    between atoms: C_1  and  O_2
REMARK    2  A    between atoms: O_2  and  C_3
REMARK    3  A    between atoms: C_5  and  O_31
REMARK    4  A    between atoms: C_6  and  C_11
REMARK    5  A    between atoms: C_7  and  O_9
REMARK    6  A    between atoms: O_9  and  C_10
REMARK    7  A    between atoms: C_11  and  N_12
REMARK    8  A    between atoms: C_21  and  C_23
REMARK    9  A    between atoms: O_31  and  C_32
REMARK                            x       y       z     vdW  Elec       q    Type
REMARK                         _______ _______ _______ _____ _____    ______ ____
ROOT
ATOM      1  N   UNL     1       1.565  -2.628   5.554  0.00  0.00    +0.391 N 
ATOM      2  C   UNL     1       0.459  -3.388   4.968  0.00  0.00    -0.075 C 
ATOM      3  C   UNL     1      -0.550  -3.799   6.034  0.00  0.00    +0.003 C 
ATOM      4  C   UNL     1      -0.632  -2.715   7.113  0.00  0.00    +0.119 C 
ATOM      5  N   UNL     1       0.381  -2.986   8.139  0.00  0.00    -0.352 N 
ATOM      6  C   UNL     1       0.193  -2.959   9.488  0.00  0.00    +0.086 A 
ATOM      7  C   UNL     1       1.369  -3.246  10.083  0.00  0.00    +0.019 A 
ATOM      8  C   UNL     1       2.317  -3.464   9.063  0.00  0.00    +0.021 A 
ATOM      9  C   UNL     1       1.684  -3.306   7.884  0.00  0.00    +0.010 A 
ATOM     10  C   UNL     1       2.298  -3.464   6.514  0.00  0.00    +0.014 C 
ATOM     11  H   UNL     1       1.197  -1.817   6.029  0.00  0.00    -0.080 HD
ENDROOT
BRANCH  10  12
ATOM     12  C   UNL     1       3.742  -3.034   6.557  0.00  0.00    -0.017 A 
ATOM     13  C   UNL     1       4.062  -1.715   6.822  0.00  0.00    +0.043 A 
ATOM     14  C   UNL     1       5.388  -1.320   6.862  0.00  0.00    +0.124 A 
ATOM     15  C   UNL     1       6.393  -2.245   6.636  0.00  0.00    +0.041 A 
ATOM     16  C   UNL     1       6.073  -3.563   6.372  0.00  0.00    +0.041 A 
ATOM     17  C   UNL     1       4.747  -3.959   6.337  0.00  0.00    +0.126 A 
ATOM     18  F   UNL     1       4.434  -5.249   6.084  0.00  0.00    -0.205 F 
ATOM     19  F   UNL     1       5.701  -0.031   7.120  0.00  0.00    -0.205 F 
ENDBRANCH  10  12
BRANCH   1  20
ATOM     20  C   UNL     1       2.478  -2.195   4.488  0.00  0.00    -0.034 C 
BRANCH  20  24
ATOM     21  C   UNL     1       0.418   0.454   1.831  0.00  0.00    +0.127 A 
ATOM     22  C   UNL     1       1.090   0.962   2.932  0.00  0.00    +0.091 A 
ATOM     23  C   UNL     1       1.758   0.103   3.793  0.00  0.00    +0.128 A 
ATOM     24  C   UNL     1       1.752  -1.262   3.553  0.00  0.00    +0.020 A 
ATOM     25  C   UNL     1       1.079  -1.770   2.452  0.00  0.00    +0.128 A 
ATOM     26  C   UNL     1       0.408  -0.912   1.593  0.00  0.00    +0.091 A 
BRANCH  21  28
ATOM     27  C   UNL     1      -0.184   2.690   1.292  0.00  0.00    +0.277 C 
ATOM     28  O   UNL     1      -0.236   1.295   0.987  0.00  0.00    -0.495 OA
ENDBRANCH  21  28
BRANCH  25  29
ATOM     29  O   UNL     1       1.074  -3.108   2.216  0.00  0.00    -0.495 OA
ATOM     30  C   UNL     1       0.361  -3.562   1.064  0.00  0.00    +0.277 C 
ENDBRANCH  25  29
BRANCH  23  31
ATOM     31  O   UNL     1       2.417   0.601   4.872  0.00  0.00    -0.495 OA
ATOM     32  C   UNL     1       2.381   2.017   5.058  0.00  0.00    +0.277 C 
ENDBRANCH  23  31
ENDBRANCH  20  24
ENDBRANCH   1  20
TORSDOF 6
