REMARK  Name = ZINC16870765
REMARK  7 active torsions:
REMARK  status: ('A' for Active; 'I' for Inactive)
REMARK    1  A    between atoms: C_1  and  C_2
REMARK    2  A    between atoms: C_2  and  C_4
REMARK    3  A    between atoms: C_2  and  O_15
REMARK    4  A    between atoms: N_9  and  C_10
REMARK    5  A    between atoms: O_15  and  C_16
REMARK    6  A    between atoms: C_16  and  C_18
REMARK    7  A    between atoms: C_27  and  O_30
REMARK                            x       y       z     vdW  Elec       q    Type
REMARK                         _______ _______ _______ _____ _____    ______ ____
ROOT
ATOM      1  C   UNL     1      -0.019   1.526   0.010  0.00  0.00    +0.062 C 
ATOM      2  C   UNL     1       0.002  -0.004   0.002  0.00  0.00    +0.259 C 
ENDROOT
BRANCH   2   3
ATOM      3  C   UNL     1       0.707  -0.490  -1.238  0.00  0.00    +0.261 C 
ATOM      4  O   UNL     1       1.753  -1.097  -1.142  0.00  0.00    -0.271 OA
ATOM      5  N   UNL     1       0.176  -0.250  -2.453  0.00  0.00    -0.237 N 
ATOM      6  C   UNL     1       0.807  -0.685  -3.562  0.00  0.00    +0.306 C 
ATOM      7  O   UNL     1       1.855  -1.293  -3.466  0.00  0.00    -0.252 OA
ATOM      8  N   UNL     1       0.276  -0.445  -4.777  0.00  0.00    -0.296 N 
ATOM      9  H   UNL     1      -0.660   0.235  -2.530  0.00  0.00    +0.159 HD
ATOM     10  H   UNL     1      -0.560   0.041  -4.854  0.00  0.00    +0.151 HD
BRANCH   8  11
ATOM     11  C   UNL     1       0.962  -0.917  -5.983  0.00  0.00    +0.074 C 
ATOM     12  C   UNL     1       0.518  -2.357  -6.313  0.00  0.00    +0.022 C 
ATOM     13  C   UNL     1      -0.614  -2.176  -7.356  0.00  0.00    +0.002 C 
ATOM     14  C   UNL     1      -0.104  -0.989  -8.210  0.00  0.00    +0.002 C 
ATOM     15  C   UNL     1       0.567  -0.048  -7.189  0.00  0.00    +0.022 C 
ENDBRANCH   8  11
ENDBRANCH   2   3
BRANCH   2  16
ATOM     16  O   UNL     1       0.693  -0.477   1.160  0.00  0.00    -0.452 OA
BRANCH  16  17
ATOM     17  C   UNL     1      -0.042  -0.697   2.261  0.00  0.00    +0.314 C 
ATOM     18  O   UNL     1      -1.233  -0.493   2.243  0.00  0.00    -0.250 OA
BRANCH  17  19
ATOM     19  C   UNL     1       0.618  -1.196   3.521  0.00  0.00    +0.071 C 
ATOM     20  C   UNL     1       1.284  -2.546   3.246  0.00  0.00    +0.021 C 
ATOM     21  C   UNL     1       1.954  -3.053   4.525  0.00  0.00    -0.007 C 
ATOM     22  C   UNL     1       3.012  -2.046   4.981  0.00  0.00    +0.007 C 
ATOM     23  C   UNL     1       2.345  -0.696   5.255  0.00  0.00    -0.007 C 
ATOM     24  C   UNL     1       1.675  -0.189   3.976  0.00  0.00    +0.021 C 
ATOM     25  C   UNL     1       1.292  -0.861   6.352  0.00  0.00    +0.038 C 
ATOM     26  C   UNL     1       0.234  -1.869   5.896  0.00  0.00    +0.068 C 
ATOM     27  C   UNL     1       0.901  -3.218   5.622  0.00  0.00    +0.038 C 
ATOM     28  C   UNL     1      -0.436  -1.361   4.617  0.00  0.00    +0.052 C 
BRANCH  26  29
ATOM     29  O   UNL     1      -0.750  -2.023   6.921  0.00  0.00    -0.389 OA
ATOM     30  H   UNL     1      -0.395  -2.342   7.762  0.00  0.00    +0.210 HD
ENDBRANCH  26  29
ENDBRANCH  17  19
ENDBRANCH  16  17
ENDBRANCH   2  16
TORSDOF 6
