REMARK  Name = ZINC36930188
REMARK  3 active torsions:
REMARK  status: ('A' for Active; 'I' for Inactive)
REMARK    1  A    between atoms: C_1  and  C_2
REMARK    2  A    between atoms: C_3  and  C_15
REMARK    3  A    between atoms: C_15  and  O_16
REMARK                            x       y       z     vdW  Elec       q    Type
REMARK                         _______ _______ _______ _____ _____    ______ ____
ROOT
ATOM      1  C   UNL     1      -0.018   1.503   0.010  0.00  0.00    +0.068 C 
ATOM      2  C   UNL     1       0.002  -0.004   0.002  0.00  0.00    +0.067 A 
ATOM      3  C   UNL     1       0.008  -0.817  -1.137  0.00  0.00    +0.037 A 
ATOM      4  C   UNL     1       0.028  -2.108  -0.729  0.00  0.00    +0.140 A 
ATOM      5  N   UNL     1       0.034  -2.109   0.630  0.00  0.00    -0.201 N 
ATOM      6  N   UNL     1       0.023  -0.775   1.059  0.00  0.00    -0.169 NA
ATOM      7  C   UNL     1       0.053  -3.239   1.453  0.00  0.00    +0.178 A 
ATOM      8  C   UNL     1       0.562  -3.153   2.747  0.00  0.00    +0.053 A 
ATOM      9  C   UNL     1       0.558  -4.302   3.524  0.00  0.00    +0.045 A 
ATOM     10  C   UNL     1       0.048  -5.466   2.964  0.00  0.00    +0.152 A 
ATOM     11  N   UNL     1      -0.414  -5.455   1.728  0.00  0.00    -0.136 NA
ATOM     12  N   UNL     1      -0.417  -4.393   1.008  0.00  0.00    -0.128 NA
ATOM     13 CL   UNL     1       0.018  -6.934   3.890  0.00  0.00    -0.060 Cl
ATOM     14 CL   UNL     1       0.042  -3.508  -1.756  0.00  0.00    -0.061 Cl
ENDROOT
BRANCH   3  15
ATOM     15  C   UNL     1      -0.006  -0.339  -2.567  0.00  0.00    +0.196 C 
BRANCH  15  16
ATOM     16  O   UNL     1       1.337  -0.169  -3.025  0.00  0.00    -0.390 OA
ATOM     17  H   UNL     1       1.404   0.138  -3.940  0.00  0.00    +0.210 HD
ENDBRANCH  15  16
ENDBRANCH   3  15
TORSDOF 2
