REMARK  Name = ZINC13661544
REMARK  8 active torsions:
REMARK  status: ('A' for Active; 'I' for Inactive)
REMARK    1  A    between atoms: C_1  and  C_2
REMARK    2  A    between atoms: C_9  and  C_13
REMARK    3  A    between atoms: C_13  and  N_14
REMARK    4  A    between atoms: N_14  and  C_15
REMARK    5  A    between atoms: C_18  and  C_22
REMARK    6  A    between atoms: C_19  and  C_21
REMARK    7  A    between atoms: C_23  and  C_25
REMARK    8  A    between atoms: C_29  and  N_31
REMARK                            x       y       z     vdW  Elec       q    Type
REMARK                         _______ _______ _______ _____ _____    ______ ____
ROOT
ATOM      1  N   UNL     1       1.270   6.135  -0.052  0.00  0.00    -0.263 N 
ATOM      2  C   UNL     1       0.217   5.296  -0.006  0.00  0.00    +0.251 C 
ATOM      3  O   UNL     1       0.398   4.095   0.055  0.00  0.00    -0.270 OA
ENDROOT
BRANCH   1   4
ATOM      4  C   UNL     1       2.569   5.623  -0.128  0.00  0.00    +0.037 A 
ATOM      5  C   UNL     1       3.646   6.481  -0.313  0.00  0.00    +0.024 A 
ATOM      6  C   UNL     1       4.928   5.973  -0.382  0.00  0.00    +0.005 A 
ATOM      7  C   UNL     1       5.140   4.611  -0.278  0.00  0.00    -0.047 A 
ATOM      8  C   UNL     1       4.070   3.753  -0.100  0.00  0.00    -0.046 A 
ATOM      9  C   UNL     1       2.785   4.255  -0.024  0.00  0.00    +0.027 A 
ATOM     10  C   UNL     1       4.306   2.269   0.013  0.00  0.00    +0.044 C 
ATOM     11  C   UNL     1       6.540   4.059  -0.359  0.00  0.00    +0.044 C 
ENDBRANCH   1   4
BRANCH   2  12
ATOM     12  C   UNL     1      -1.159   5.835  -0.031  0.00  0.00    +0.039 A 
ATOM     13  C   UNL     1      -1.496   6.859  -0.918  0.00  0.00    +0.013 A 
ATOM     14  C   UNL     1      -2.781   7.357  -0.936  0.00  0.00    +0.003 A 
ATOM     15  C   UNL     1      -3.737   6.846  -0.076  0.00  0.00    +0.033 A 
ATOM     16  C   UNL     1      -3.409   5.835   0.810  0.00  0.00    +0.127 A 
ATOM     17  C   UNL     1      -2.128   5.323   0.834  0.00  0.00    +0.045 A 
BRANCH  16  18
ATOM     18  N   UNL     1      -4.436   5.298   1.731  0.00  0.00    +0.056 N 
ATOM     19  O   UNL     1      -5.569   5.746   1.708  0.00  0.00    -0.126 OA
ATOM     20  O   UNL     1      -4.149   4.408   2.511  0.00  0.00    -0.126 OA
ENDBRANCH  16  18
ENDBRANCH   2  12
BRANCH   1  21
ATOM     21  C   UNL     1       1.054   7.584  -0.022  0.00  0.00    +0.154 C 
BRANCH  21  30
ATOM     22  C   UNL     1       5.069  11.080   5.146  0.00  0.00    +0.044 C 
ATOM     23  C   UNL     1       3.829  10.338   4.716  0.00  0.00    -0.050 A 
ATOM     24  C   UNL     1       2.815  10.101   5.641  0.00  0.00    +0.005 A 
ATOM     25  C   UNL     1       1.682   9.435   5.285  0.00  0.00    +0.026 A 
ATOM     26  C   UNL     1       1.528   8.976   3.965  0.00  0.00    +0.049 A 
ATOM     27  C   UNL     1       2.561   9.218   3.027  0.00  0.00    -0.001 A 
ATOM     28  C   UNL     1       3.716   9.909   3.429  0.00  0.00    +0.013 A 
ATOM     29  C   UNL     1       2.410   8.753   1.705  0.00  0.00    +0.020 A 
ATOM     30  C   UNL     1       1.261   8.094   1.381  0.00  0.00    +0.035 A 
ATOM     31  C   UNL     1       0.277   7.886   2.355  0.00  0.00    +0.254 A 
ATOM     32  N   UNL     1       0.426   8.318   3.589  0.00  0.00    -0.322 N 
ATOM     33  O   UNL     1      -0.857   7.223   2.019  0.00  0.00    -0.268 OA
ATOM     34  H   UNL     1      -0.377   8.129   4.316  0.00  0.00    +0.169 HD
ENDBRANCH  21  30
ENDBRANCH   1  21
TORSDOF 5
