REMARK  Name = ZINC20790432
REMARK  5 active torsions:
REMARK  status: ('A' for Active; 'I' for Inactive)
REMARK    1  A    between atoms: C_4  and  C_22
REMARK    2  A    between atoms: C_15  and  C_20
REMARK    3  A    between atoms: N_16  and  C_17
REMARK    4  A    between atoms: C_17  and  C_18
REMARK    5  A    between atoms: C_18  and  O_19
REMARK                            x       y       z     vdW  Elec       q    Type
REMARK                         _______ _______ _______ _____ _____    ______ ____
ROOT
ATOM      1  C   UNL     1      -1.127   5.667   2.286  0.00  0.00    +0.000 C 
ATOM      2  C   UNL     1      -0.485   5.378   0.928  0.00  0.00    +0.003 C 
ATOM      3  C   UNL     1       0.017   3.933   0.911  0.00  0.00    +0.038 C 
ATOM      4  C   UNL     1      -1.112   2.940   1.162  0.00  0.00    +0.113 C 
ATOM      5  C   UNL     1      -1.909   3.287   2.415  0.00  0.00    +0.024 C 
ATOM      6  C   UNL     1      -2.334   4.747   2.463  0.00  0.00    +0.006 C 
ATOM      7  C   UNL     1      -1.104   2.932   3.670  0.00  0.00    +0.012 C 
ATOM      8  C   UNL     1      -0.873   1.416   3.652  0.00  0.00    +0.024 C 
ATOM      9  C   UNL     1      -0.240   0.966   4.960  0.00  0.00    +0.006 C 
ATOM     10  C   UNL     1       1.162   1.551   5.117  0.00  0.00    +0.000 C 
ATOM     11  C   UNL     1       2.032   1.120   3.936  0.00  0.00    +0.003 C 
ATOM     12  C   UNL     1       1.408   1.631   2.637  0.00  0.00    +0.038 C 
ATOM     13  C   UNL     1       0.001   1.075   2.443  0.00  0.00    +0.113 C 
ATOM     14  N   UNL     1      -0.610   1.579   1.227  0.00  0.00    -0.264 NA
ENDROOT
BRANCH  13  15
ATOM     15  C   UNL     1       0.082  -0.402   2.327  0.00  0.00    +0.085 C 
ATOM     16  N   UNL     1       0.144  -1.533   2.239  0.00  0.00    -0.195 NA
ENDBRANCH  13  15
BRANCH   4  17
ATOM     17  C   UNL     1      -2.044   3.002   0.001  0.00  0.00    +0.085 C 
ATOM     18  N   UNL     1      -2.755   3.050  -0.884  0.00  0.00    -0.195 NA
ENDBRANCH   4  17
BRANCH  14  19
ATOM     19  C   UNL     1      -0.010   1.088  -0.005  0.00  0.00    +0.115 C 
BRANCH  19  20
ATOM     20  C   UNL     1      -0.649  -0.248  -0.387  0.00  0.00    +0.171 C 
BRANCH  20  21
ATOM     21  O   UNL     1      -2.041  -0.054  -0.648  0.00  0.00    -0.394 OA
ATOM     22  H   UNL     1      -2.670  -0.907  -0.939  0.00  0.00    +0.209 HD
ENDBRANCH  20  21
ENDBRANCH  19  20
ENDBRANCH  14  19
TORSDOF 5
