REMARK  Name = ZINC63786390
REMARK  3 active torsions:
REMARK  status: ('A' for Active; 'I' for Inactive)
REMARK    1  A    between atoms: C_1  and  C_2
REMARK    2  A    between atoms: C_4  and  C_15
REMARK    3  A    between atoms: C_18  and  C_20
REMARK                            x       y       z     vdW  Elec       q    Type
REMARK                         _______ _______ _______ _____ _____    ______ ____
ROOT
ATOM      1  C   UNL     1      -0.127   1.561  -0.381  0.00  0.00    +0.067 C 
ATOM      2  C   UNL     1      -0.071   0.055  -0.390  0.00  0.00    +0.065 C 
ATOM      3  C   UNL     1      -1.107  -0.747  -0.122  0.00  0.00    +0.017 C 
ATOM      4  C   UNL     1      -2.494  -0.339   0.210  0.00  0.00    +0.144 C 
ATOM      5  S   UNL     1      -3.658  -0.750  -1.107  0.00  0.00    -0.136 S 
ATOM      6  C   UNL     1      -3.731  -2.550  -1.145  0.00  0.00    +0.165 C 
ATOM      7  C   UNL     1      -2.429  -3.154  -1.532  0.00  0.00    +0.225 C 
ATOM      8  O   UNL     1      -2.559  -4.061  -2.327  0.00  0.00    -0.275 OA
ATOM      9  N   UNL     1      -1.205  -2.947  -1.228  0.00  0.00    -0.288 N 
ATOM     10  C   UNL     1      -0.537  -2.136  -0.253  0.00  0.00    +0.244 C 
ATOM     11  N   UNL     1       0.868  -1.894  -0.623  0.00  0.00    -0.160 NA
ATOM     12  N   UNL     1       1.032  -0.672  -0.677  0.00  0.00    -0.157 NA
ATOM     13  H   UNL     1      -0.589  -3.453  -1.781  0.00  0.00    +0.151 HD
ENDROOT
BRANCH   4  14
ATOM     14  C   UNL     1      -2.524   1.151   0.440  0.00  0.00    +0.123 A 
ATOM     15  C   UNL     1      -2.411   1.763   1.635  0.00  0.00    +0.047 A 
ATOM     16  C   UNL     1      -2.490   3.150   1.397  0.00  0.00    +0.050 A 
ATOM     17  C   UNL     1      -2.649   3.309   0.056  0.00  0.00    +0.135 A 
ATOM     18  O   UNL     1      -2.662   2.087  -0.512  0.00  0.00    -0.458 OA
BRANCH  17  19
ATOM     19  C   UNL     1      -2.779   4.597  -0.656  0.00  0.00    +0.017 A 
ATOM     20  C   UNL     1      -2.737   5.798   0.055  0.00  0.00    +0.013 A 
ATOM     21  C   UNL     1      -2.858   6.998  -0.614  0.00  0.00    +0.021 A 
ATOM     22  C   UNL     1      -3.021   7.013  -1.989  0.00  0.00    +0.041 A 
ATOM     23  C   UNL     1      -3.063   5.825  -2.700  0.00  0.00    +0.021 A 
ATOM     24  C   UNL     1      -2.937   4.619  -2.042  0.00  0.00    +0.013 A 
ATOM     25 CL   UNL     1      -3.174   8.527  -2.825  0.00  0.00    -0.084 Cl
ENDBRANCH  17  19
ENDBRANCH   4  14
TORSDOF 2
