REMARK  Name = ZINC35231402
REMARK  7 active torsions:
REMARK  status: ('A' for Active; 'I' for Inactive)
REMARK    1  A    between atoms: C_1  and  C_2
REMARK    2  A    between atoms: C_2  and  C_3
REMARK    3  A    between atoms: C_2  and  N_4
REMARK    4  A    between atoms: N_4  and  C_5
REMARK    5  A    between atoms: C_5  and  C_6
REMARK    6  A    between atoms: C_20  and  C_22
REMARK    7  A    between atoms: N_29  and  C_30
REMARK                            x       y       z     vdW  Elec       q    Type
REMARK                         _______ _______ _______ _____ _____    ______ ____
ROOT
ATOM      1  C   UNL     1      -1.754  -2.362  -1.338  0.00  0.00    +0.238 C 
ATOM      2  O   UNL     1      -1.547  -2.845  -0.244  0.00  0.00    -0.273 OA
ATOM      3  N   UNL     1      -1.987  -3.164  -2.396  0.00  0.00    -0.252 N 
ATOM      4  C   UNL     1      -2.103  -4.549  -2.212  0.00  0.00    +0.061 A 
ATOM      5  C   UNL     1      -2.579  -5.063  -1.016  0.00  0.00    +0.025 A 
ATOM      6  C   UNL     1      -2.678  -6.431  -0.845  0.00  0.00    +0.002 A 
ATOM      7  C   UNL     1      -2.305  -7.293  -1.860  0.00  0.00    +0.002 A 
ATOM      8  C   UNL     1      -1.832  -6.790  -3.060  0.00  0.00    +0.028 A 
ATOM      9  C   UNL     1      -1.736  -5.424  -3.240  0.00  0.00    +0.068 A 
ATOM     10  N   UNL     1      -1.289  -4.867  -4.446  0.00  0.00    -0.316 N 
ATOM     11  C   UNL     1      -0.668  -5.448  -5.500  0.00  0.00    +0.092 A 
ATOM     12  C   UNL     1      -0.430  -4.494  -6.428  0.00  0.00    +0.020 A 
ATOM     13  C   UNL     1      -0.928  -3.273  -5.921  0.00  0.00    +0.025 A 
ATOM     14  C   UNL     1      -1.449  -3.525  -4.715  0.00  0.00    +0.052 A 
ATOM     15  C   UNL     1      -2.125  -2.584  -3.742  0.00  0.00    +0.194 C 
ENDROOT
BRANCH  15  16
ATOM     16  C   UNL     1      -3.584  -2.442  -4.090  0.00  0.00    +0.131 A 
ATOM     17  C   UNL     1      -4.141  -1.405  -4.741  0.00  0.00    +0.047 A 
ATOM     18  C   UNL     1      -5.522  -1.685  -4.853  0.00  0.00    +0.041 A 
ATOM     19  C   UNL     1      -5.727  -2.877  -4.263  0.00  0.00    +0.195 A 
ATOM     20  O   UNL     1      -4.548  -3.333  -3.808  0.00  0.00    -0.466 OA
ENDBRANCH  15  16
BRANCH   1  21
ATOM     21  C   UNL     1      -1.751  -0.865  -1.513  0.00  0.00    +0.205 C 
BRANCH  21  22
ATOM     22  N   UNL     1      -1.350  -0.228  -0.256  0.00  0.00    -0.274 N 
ATOM     23  C   UNL     1      -2.283   0.107   0.657  0.00  0.00    +0.307 C 
ATOM     24  O   UNL     1      -3.463  -0.035   0.401  0.00  0.00    -0.252 OA
ATOM     25  N   UNL     1      -1.908   0.601   1.854  0.00  0.00    -0.267 N 
ATOM     26  H   UNL     1      -0.971   0.778   2.033  0.00  0.00    +0.156 HD
BRANCH  25  27
ATOM     27  C   UNL     1      -2.870   0.857   2.839  0.00  0.00    +0.070 A 
ATOM     28  C   UNL     1      -4.128   0.276   2.751  0.00  0.00    +0.026 A 
ATOM     29  C   UNL     1      -5.075   0.531   3.723  0.00  0.00    +0.002 A 
ATOM     30  C   UNL     1      -4.773   1.364   4.785  0.00  0.00    +0.003 A 
ATOM     31  C   UNL     1      -3.522   1.946   4.877  0.00  0.00    +0.040 A 
ATOM     32  C   UNL     1      -2.567   1.690   3.910  0.00  0.00    +0.145 A 
ATOM     33  F   UNL     1      -1.342   2.254   4.002  0.00  0.00    -0.204 F 
ENDBRANCH  25  27
BRANCH  22  35
ATOM     34  C   UNL     1       0.871  -1.244  -0.146  0.00  0.00    +0.028 C 
ATOM     35  C   UNL     1       0.065   0.046   0.007  0.00  0.00    +0.072 C 
ATOM     36  C   UNL     1       0.576   1.089  -0.989  0.00  0.00    +0.028 C 
ENDBRANCH  22  35
ENDBRANCH  21  22
ENDBRANCH   1  21
TORSDOF 5
