REMARK  Name = ZINC35966718
REMARK  6 active torsions:
REMARK  status: ('A' for Active; 'I' for Inactive)
REMARK    1  A    between atoms: C_1  and  C_2
REMARK    2  A    between atoms: C_2  and  C_4
REMARK    3  A    between atoms: C_2  and  N_11
REMARK    4  A    between atoms: C_17  and  C_24
REMARK    5  A    between atoms: N_22  and  C_23
REMARK    6  A    between atoms: C_29  and  C_30
REMARK                            x       y       z     vdW  Elec       q    Type
REMARK                         _______ _______ _______ _____ _____    ______ ____
ROOT
ATOM      1  N   UNL     1      -1.322  -0.376   1.254  0.00  0.00    -0.281 N 
ATOM      2  C   UNL     1      -1.550  -0.916  -0.094  0.00  0.00    +0.160 C 
ATOM      3  C   UNL     1      -2.949  -1.490  -0.051  0.00  0.00    +0.042 C 
ATOM      4  C   UNL     1      -3.410  -1.272   1.197  0.00  0.00    +0.058 C 
ATOM      5  C   UNL     1      -2.435  -0.612   1.972  0.00  0.00    +0.247 C 
ATOM      6  O   UNL     1      -2.582  -0.295   3.138  0.00  0.00    -0.270 OA
ATOM      7  C   UNL     1      -4.810  -1.752   1.524  0.00  0.00    +0.142 C 
ATOM      8  N   UNL     1      -5.555  -2.420   0.444  0.00  0.00    -0.288 N 
ATOM      9  C   UNL     1      -4.957  -2.564  -0.755  0.00  0.00    +0.307 C 
ATOM     10  O   UNL     1      -5.564  -3.115  -1.653  0.00  0.00    -0.252 OA
ATOM     11  N   UNL     1      -3.715  -2.121  -0.990  0.00  0.00    -0.260 N 
ATOM     12  C   UNL     1      -3.148  -2.322  -2.325  0.00  0.00    +0.139 C 
ATOM     13  H   UNL     1      -6.455  -2.750   0.592  0.00  0.00    +0.151 HD
ENDROOT
BRANCH   7  14
ATOM     14  C   UNL     1      -5.616  -0.560   1.975  0.00  0.00    -0.011 A 
ATOM     15  C   UNL     1      -6.009   0.396   1.057  0.00  0.00    +0.006 A 
ATOM     16  C   UNL     1      -6.748   1.488   1.470  0.00  0.00    +0.000 A 
ATOM     17  C   UNL     1      -7.095   1.624   2.802  0.00  0.00    +0.001 A 
ATOM     18  C   UNL     1      -6.702   0.668   3.719  0.00  0.00    +0.013 A 
ATOM     19  C   UNL     1      -5.967  -0.427   3.305  0.00  0.00    +0.060 A 
BRANCH  19  20
ATOM     20  C   UNL     1      -5.544  -1.473   4.304  0.00  0.00    +0.418 C 
ATOM     21  F   UNL     1      -6.062  -1.151   5.563  0.00  0.00    -0.166 F 
ATOM     22  F   UNL     1      -6.030  -2.723   3.906  0.00  0.00    -0.166 F 
ATOM     23  F   UNL     1      -4.147  -1.515   4.371  0.00  0.00    -0.166 F 
ENDBRANCH  19  20
ENDBRANCH   7  14
BRANCH   1  25
ATOM     24  C   UNL     1      -0.449   1.710   2.187  0.00  0.00    +0.038 C 
ATOM     25  C   UNL     1      -0.107   0.291   1.730  0.00  0.00    +0.160 C 
BRANCH  25  26
ATOM     26  C   UNL     1       0.471  -0.484   2.886  0.00  0.00    +0.236 C 
ATOM     27  O   UNL     1      -0.244  -1.198   3.555  0.00  0.00    -0.274 OA
ATOM     28  N   UNL     1       1.784  -0.383   3.175  0.00  0.00    -0.300 N 
ATOM     29  C   UNL     1       2.742   0.512   2.509  0.00  0.00    +0.108 C 
ATOM     30  C   UNL     1       4.123   0.265   3.153  0.00  0.00    +0.020 C 
ATOM     31  C   UNL     1       3.976  -1.157   3.756  0.00  0.00    +0.020 C 
ATOM     32  C   UNL     1       2.495  -1.146   4.217  0.00  0.00    +0.108 C 
ENDBRANCH  25  26
ENDBRANCH   1  25
TORSDOF 4
