REMARK  Name = ZINC01427057
REMARK  4 active torsions:
REMARK  status: ('A' for Active; 'I' for Inactive)
REMARK    1  A    between atoms: C_1  and  C_2
REMARK    2  A    between atoms: C_16  and  S_17
REMARK    3  A    between atoms: S_17  and  C_18
REMARK    4  A    between atoms: C_18  and  C_20
REMARK                            x       y       z     vdW  Elec       q    Type
REMARK                         _______ _______ _______ _____ _____    ______ ____
ROOT
ATOM      1  C   UNL     1      -0.023   1.496  -0.003  0.00  0.00    +0.110 C 
ATOM      2  C   UNL     1      -0.002  -0.011  -0.004  0.00  0.00    +0.219 C 
ATOM      3  O   UNL     1       1.056  -0.603  -0.018  0.00  0.00    -0.275 OA
ATOM      4  N   UNL     1      -1.160  -0.701   0.009  0.00  0.00    -0.242 N 
ATOM      5  C   UNL     1      -1.221  -2.182   0.015  0.00  0.00    +0.202 C 
ATOM      6  C   UNL     1      -2.668  -2.597   0.030  0.00  0.00    +0.212 C 
ATOM      7  O   UNL     1      -3.178  -2.939   1.077  0.00  0.00    -0.283 OA
ATOM      8  S   UNL     1      -3.580  -2.597  -1.358  0.00  0.00    -0.048 S 
ATOM      9  C   UNL     1      -4.845  -1.402  -1.057  0.00  0.00    +0.041 A 
ATOM     10  C   UNL     1      -6.164  -1.740  -0.886  0.00  0.00    +0.017 A 
ATOM     11  C   UNL     1      -7.106  -0.742  -0.691  0.00  0.00    +0.001 A 
ATOM     12  C   UNL     1      -6.728   0.589  -0.674  0.00  0.00    +0.002 A 
ATOM     13  C   UNL     1      -5.400   0.946  -0.829  0.00  0.00    +0.029 A 
ATOM     14  C   UNL     1      -4.444  -0.039  -0.999  0.00  0.00    +0.080 A 
ATOM     15  N   UNL     1      -3.104   0.170  -1.020  0.00  0.00    -0.224 NA
ATOM     16  C   UNL     1      -2.393  -0.098   0.025  0.00  0.00    +0.171 C 
ENDROOT
BRANCH  16  17
ATOM     17  S   UNL     1      -3.055   0.341   1.597  0.00  0.00    -0.017 S 
BRANCH  17  18
ATOM     18  C   UNL     1      -1.891  -0.311   2.748  0.00  0.00    +0.193 C 
ATOM     19  O   UNL     1      -0.864  -0.818   2.349  0.00  0.00    -0.285 OA
ATOM     20  C   UNL     1      -2.172  -0.240   4.226  0.00  0.00    +0.099 C 
ENDBRANCH  17  18
ENDBRANCH  16  17
TORSDOF 2
