REMARK  Name = ZINC50456049
REMARK  4 active torsions:
REMARK  status: ('A' for Active; 'I' for Inactive)
REMARK    1  A    between atoms: C_1  and  C_2
REMARK    2  A    between atoms: C_5  and  S_7
REMARK    3  A    between atoms: S_7  and  C_8
REMARK    4  A    between atoms: C_9  and  N_15
REMARK                            x       y       z     vdW  Elec       q    Type
REMARK                         _______ _______ _______ _____ _____    ______ ____
ROOT
ATOM      1  C   UNL     1       0.076  -4.723   1.726  0.00  0.00    +0.138 A 
ATOM      2  C   UNL     1       0.089  -5.875   2.514  0.00  0.00    +0.195 A 
ATOM      3  C   UNL     1       0.104  -7.103   1.879  0.00  0.00    +0.164 A 
ATOM      4  N   UNL     1       0.104  -7.146   0.553  0.00  0.00    -0.222 NA
ATOM      5  C   UNL     1       0.090  -6.038  -0.162  0.00  0.00    +0.224 A 
ATOM      6  N   UNL     1       0.071  -4.848   0.402  0.00  0.00    -0.226 NA
ATOM      7 CL   UNL     1       0.122  -8.572   2.805  0.00  0.00    -0.059 Cl
ENDROOT
BRANCH   2   8
ATOM      8  N   UNL     1       0.089  -5.785   3.991  0.00  0.00    +0.062 N 
ATOM      9  O   UNL     1      -0.958  -5.760   4.596  0.00  0.00    -0.126 OA
ATOM     10  O   UNL     1       1.136  -5.736   4.594  0.00  0.00    -0.126 OA
ENDBRANCH   2   8
BRANCH   1  11
ATOM     11  S   UNL     1       0.058  -3.128   2.475  0.00  0.00    -0.041 S 
BRANCH  11  16
ATOM     12  C   UNL     1      -0.018   1.503   0.010  0.00  0.00    +0.066 C 
ATOM     13  C   UNL     1       0.002  -0.004   0.002  0.00  0.00    +0.047 A 
ATOM     14  C   UNL     1       0.006  -0.705  -1.158  0.00  0.00    +0.070 A 
ATOM     15  S   UNL     1       0.032  -2.378  -0.535  0.00  0.00    -0.069 S 
ATOM     16  C   UNL     1       0.036  -2.016   1.108  0.00  0.00    +0.141 A 
ATOM     17  N   UNL     1       0.023  -0.700   1.124  0.00  0.00    -0.238 NA
ENDBRANCH  11  16
ENDBRANCH   1  11
TORSDOF 3
