REMARK  Name = ZINC43978904
REMARK  8 active torsions:
REMARK  status: ('A' for Active; 'I' for Inactive)
REMARK    1  A    between atoms: C_1  and  C_2
REMARK    2  A    between atoms: C_2  and  C_3
REMARK    3  A    between atoms: C_2  and  C_4
REMARK    4  A    between atoms: C_2  and  N_5
REMARK    5  A    between atoms: C_11  and  C_14
REMARK    6  A    between atoms: C_14  and  N_15
REMARK    7  A    between atoms: C_16  and  C_18
REMARK    8  A    between atoms: N_23  and  C_25
REMARK                            x       y       z     vdW  Elec       q    Type
REMARK                         _______ _______ _______ _____ _____    ______ ____
ROOT
ATOM      1  N   UNL     1       6.297  -3.543  -4.573  0.00  0.00    -0.315 N 
ATOM      2  C   UNL     1       7.157  -4.557  -4.793  0.00  0.00    +0.218 C 
ATOM      3  O   UNL     1       6.804  -5.703  -4.606  0.00  0.00    -0.275 OA
ATOM      4  H   UNL     1       6.579  -2.627  -4.722  0.00  0.00    +0.149 HD
ENDROOT
BRANCH   2   5
ATOM      5  C   UNL     1       8.557  -4.268  -5.271  0.00  0.00    +0.101 C 
ATOM      6  C   UNL     1       8.540  -3.630  -6.679  0.00  0.00    +0.110 C 
ATOM      7  C   UNL     1       9.746  -4.226  -7.371  0.00  0.00    +0.221 C 
ATOM      8  O   UNL     1      10.254  -3.788  -8.381  0.00  0.00    -0.275 OA
ATOM      9  N   UNL     1      10.173  -5.311  -6.703  0.00  0.00    -0.271 N 
ATOM     10  C   UNL     1       9.335  -5.578  -5.527  0.00  0.00    +0.127 C 
BRANCH   9  11
ATOM     11  C   UNL     1      11.276  -6.088  -7.079  0.00  0.00    +0.036 A 
ATOM     12  C   UNL     1      12.082  -5.684  -8.134  0.00  0.00    +0.026 A 
ATOM     13  C   UNL     1      13.170  -6.451  -8.504  0.00  0.00    +0.040 A 
ATOM     14  C   UNL     1      13.455  -7.622  -7.824  0.00  0.00    +0.124 A 
ATOM     15  C   UNL     1      12.652  -8.027  -6.771  0.00  0.00    +0.040 A 
ATOM     16  C   UNL     1      11.567  -7.260  -6.394  0.00  0.00    +0.026 A 
ATOM     17  F   UNL     1      14.519  -8.372  -8.187  0.00  0.00    -0.205 F 
ENDBRANCH   9  11
ENDBRANCH   2   5
BRANCH   1  18
ATOM     18  C   UNL     1       4.936  -3.824  -4.108  0.00  0.00    +0.107 C 
BRANCH  18  25
ATOM     19  N   UNL     1       0.712  -0.454  -1.183  0.00  0.00    -0.294 N 
ATOM     20  C   UNL     1       1.992  -0.106  -1.421  0.00  0.00    +0.303 C 
ATOM     21  O   UNL     1       2.555   0.681  -0.685  0.00  0.00    -0.253 OA
ATOM     22  N   UNL     1       2.648  -0.630  -2.475  0.00  0.00    -0.286 N 
ATOM     23  C   UNL     1       1.948  -1.489  -3.440  0.00  0.00    +0.109 C 
ATOM     24  C   UNL     1       2.717  -2.807  -3.575  0.00  0.00    +0.024 C 
ATOM     25  C   UNL     1       4.173  -2.509  -3.939  0.00  0.00    +0.009 C 
ATOM     26  C   UNL     1       4.821  -1.683  -2.825  0.00  0.00    +0.024 C 
ATOM     27  C   UNL     1       4.075  -0.348  -2.685  0.00  0.00    +0.109 C 
ATOM     28  H   UNL     1       0.240  -1.024  -1.809  0.00  0.00    +0.151 HD
BRANCH  19  30
ATOM     29  C   UNL     1       0.006   1.559   0.014  0.00  0.00    +0.031 C 
ATOM     30  C   UNL     1       0.034   0.029   0.023  0.00  0.00    +0.028 C 
ATOM     31  C   UNL     1       0.787  -0.460   1.262  0.00  0.00    +0.031 C 
ATOM     32  C   UNL     1      -1.398  -0.507   0.052  0.00  0.00    +0.031 C 
ENDBRANCH  19  30
ENDBRANCH  18  25
ENDBRANCH   1  18
TORSDOF 5
