REMARK  Name = ZINC50443375
REMARK  3 active torsions:
REMARK  status: ('A' for Active; 'I' for Inactive)
REMARK    1  A    between atoms: C_3  and  C_9
REMARK    2  A    between atoms: C_4  and  N_8
REMARK    3  A    between atoms: C_9  and  N_10
REMARK                            x       y       z     vdW  Elec       q    Type
REMARK                         _______ _______ _______ _____ _____    ______ ____
ROOT
ATOM      1  N   UNL     1       4.374   2.188  -1.290  0.00  0.00    -0.261 N 
ATOM      2  C   UNL     1       5.187   1.108  -1.662  0.00  0.00    +0.080 A 
ATOM      3  C   UNL     1       5.160  -0.077  -0.946  0.00  0.00    +0.047 A 
ATOM      4  C   UNL     1       5.971  -1.131  -1.328  0.00  0.00    +0.043 A 
ATOM      5  C   UNL     1       6.808  -1.002  -2.423  0.00  0.00    +0.024 A 
ATOM      6  C   UNL     1       6.838   0.179  -3.142  0.00  0.00    +0.049 A 
ATOM      7  C   UNL     1       6.029   1.236  -2.766  0.00  0.00    +0.143 A 
ATOM      8  O   UNL     1       6.044   2.404  -3.464  0.00  0.00    -0.481 OA
ATOM      9  C   UNL     1       4.811   3.124  -3.538  0.00  0.00    +0.325 C 
ATOM     10  C   UNL     1       4.178   3.194  -2.171  0.00  0.00    +0.258 C 
ATOM     11  O   UNL     1       3.500   4.150  -1.863  0.00  0.00    -0.271 OA
ATOM     12 CL   UNL     1       5.940  -2.617  -0.432  0.00  0.00    -0.083 Cl
ENDROOT
BRANCH   1  13
ATOM     13  C   UNL     1       3.742   2.224   0.031  0.00  0.00    +0.150 C 
BRANCH  13  16
ATOM     14  C   UNL     1       0.666   0.498  -1.318  0.00  0.00    +0.020 A 
ATOM     15  C   UNL     1       1.901   1.117  -1.253  0.00  0.00    +0.008 A 
ATOM     16  C   UNL     1       2.396   1.550  -0.039  0.00  0.00    -0.009 A 
ATOM     17  C   UNL     1       1.651   1.364   1.119  0.00  0.00    +0.031 A 
ATOM     18  C   UNL     1       0.411   0.743   1.052  0.00  0.00    +0.043 A 
ATOM     19  C   UNL     1      -0.078   0.311  -0.167  0.00  0.00    +0.043 A 
ATOM     20 CL   UNL     1      -1.629  -0.465  -0.254  0.00  0.00    -0.083 Cl
BRANCH  17  21
ATOM     21  N   UNL     1       2.149   1.801   2.349  0.00  0.00    -0.358 N 
ATOM     22  H   UNL     1       2.978   2.304   2.386  0.00  0.00    +0.142 HD
ATOM     23  H   UNL     1       1.666   1.601   3.166  0.00  0.00    +0.142 HD
ENDBRANCH  17  21
ENDBRANCH  13  16
ENDBRANCH   1  13
TORSDOF 3
