REMARK  Name = ZINC19559249
REMARK  8 active torsions:
REMARK  status: ('A' for Active; 'I' for Inactive)
REMARK    1  A    between atoms: C_1  and  C_2
REMARK    2  A    between atoms: C_3  and  C_8
REMARK    3  A    between atoms: C_5  and  C_7
REMARK    4  A    between atoms: C_13  and  C_16
REMARK    5  A    between atoms: C_21  and  C_30
REMARK    6  A    between atoms: C_24  and  C_27
REMARK    7  A    between atoms: C_27  and  C_28
REMARK    8  A    between atoms: C_27  and  C_29
REMARK                            x       y       z     vdW  Elec       q    Type
REMARK                         _______ _______ _______ _____ _____    ______ ____
ROOT
ATOM      1  C   UNL     1       3.949   0.726  -2.151  0.00  0.00    +0.070 A 
ATOM      2  C   UNL     1       3.490   1.713  -1.269  0.00  0.00    +0.068 A 
ATOM      3  C   UNL     1       2.248   1.361  -0.871  0.00  0.00    +0.118 A 
ATOM      4  N   UNL     1       1.930   0.189  -1.480  0.00  0.00    -0.239 N 
ATOM      5  N   UNL     1       3.013  -0.184  -2.276  0.00  0.00    -0.174 NA
ATOM      6  C   UNL     1       0.656  -0.509  -1.289  0.00  0.00    +0.214 C 
ATOM      7  C   UNL     1       0.002  -0.004   0.002  0.00  0.00    +0.058 C 
ATOM      8  C   UNL     1      -0.019   1.529   0.010  0.00  0.00    +0.077 C 
ATOM      9  N   UNL     1       1.375   2.016  -0.000  0.00  0.00    -0.326 N 
ATOM     10  H   UNL     1       1.671   2.850   0.654  0.00  0.00    +0.148 HD
ENDROOT
BRANCH   1  16
ATOM     11  C   UNL     1       8.033   2.898  -3.927  0.00  0.00    +0.284 C 
ATOM     12  O   UNL     1       7.555   3.826  -4.554  0.00  0.00    -0.267 OA
ATOM     13  N   UNL     1       7.228   2.061  -3.244  0.00  0.00    -0.294 N 
ATOM     14  C   UNL     1       7.670   0.906  -2.448  0.00  0.00    +0.109 C 
ATOM     15  C   UNL     1       6.405   0.234  -1.874  0.00  0.00    +0.030 C 
ATOM     16  C   UNL     1       5.289   0.712  -2.840  0.00  0.00    +0.058 C 
ATOM     17  C   UNL     1       5.758   2.151  -3.170  0.00  0.00    +0.118 C 
BRANCH  11  20
ATOM     18  C   UNL     1      10.151   4.657  -5.418  0.00  0.00    +0.070 C 
ATOM     19  C   UNL     1      10.420   3.449  -4.559  0.00  0.00    +0.089 A 
ATOM     20  C   UNL     1       9.486   2.692  -3.915  0.00  0.00    +0.212 A 
ATOM     21  O   UNL     1      10.157   1.711  -3.268  0.00  0.00    -0.435 OA
ATOM     22  C   UNL     1      11.460   1.880  -3.515  0.00  0.00    +0.194 A 
ATOM     23  N   UNL     1      11.619   2.923  -4.286  0.00  0.00    -0.218 NA
ATOM     24  C   UNL     1      12.569   1.006  -2.989  0.00  0.00    +0.109 C 
ENDBRANCH  11  20
ENDBRANCH   1  16
BRANCH   6  25
ATOM     25  C   UNL     1       0.907  -2.014  -1.181  0.00  0.00    +0.412 C 
ATOM     26  F   UNL     1      -0.309  -2.678  -0.986  0.00  0.00    -0.168 F 
ATOM     27  F   UNL     1       1.504  -2.473  -2.361  0.00  0.00    -0.168 F 
ATOM     28  F   UNL     1       1.757  -2.269  -0.099  0.00  0.00    -0.168 F 
ENDBRANCH   6  25
BRANCH   8  29
ATOM     29  C   UNL     1      -0.728   2.026   1.272  0.00  0.00    +0.003 C 
ATOM     30  C   UNL     1      -0.747   3.556   1.276  0.00  0.00    +0.009 C 
ATOM     31  C   UNL     1      -2.164   1.498   1.291  0.00  0.00    +0.009 C 
ENDBRANCH   8  29
TORSDOF 4
