REMARK  Name = ZINC14742242
REMARK  9 active torsions:
REMARK  status: ('A' for Active; 'I' for Inactive)
REMARK    1  A    between atoms: C_1  and  C_2
REMARK    2  A    between atoms: C_2  and  C_3
REMARK    3  A    between atoms: C_2  and  N_4
REMARK    4  A    between atoms: C_12  and  N_63
REMARK    5  A    between atoms: N_18  and  C_21
REMARK    6  A    between atoms: C_21  and  C_22
REMARK    7  A    between atoms: C_22  and  C_23
REMARK    8  A    between atoms: C_26  and  O_29
REMARK    9  A    between atoms: O_29  and  C_30
REMARK                            x       y       z     vdW  Elec       q    Type
REMARK                         _______ _______ _______ _____ _____    ______ ____
ROOT
ATOM      1  N   UNL     1       0.009  -2.413   2.143  0.00  0.00    -0.222 N 
ATOM      2  C   UNL     1       0.892  -2.016   1.203  0.00  0.00    +0.247 C 
ATOM      3  O   UNL     1       1.519  -2.719   0.441  0.00  0.00    -0.273 OA
ATOM      4  C   UNL     1       0.933  -0.509   1.301  0.00  0.00    +0.112 C 
ATOM      5  C   UNL     1       0.480   0.124  -0.011  0.00  0.00    +0.017 C 
ATOM      6  C   UNL     1       0.558   1.649   0.109  0.00  0.00    -0.076 C 
ATOM      7  C   UNL     1       2.355   1.494   1.730  0.00  0.00    -0.076 C 
ATOM      8  C   UNL     1       2.337  -0.035   1.665  0.00  0.00    +0.017 C 
ATOM      9  N   UNL     1      -0.013  -0.194   2.379  0.00  0.00    -0.271 N 
ATOM     10  C   UNL     1      -0.503  -1.372   2.811  0.00  0.00    +0.312 C 
ATOM     11  O   UNL     1      -1.320  -1.478   3.705  0.00  0.00    -0.252 OA
ATOM     12  N   UNL     1       1.953   2.034   0.413  0.00  0.00    +0.382 N 
ATOM     13  H   UNL     1       2.571   1.644  -0.308  0.00  0.00    -0.081 HD
ENDROOT
BRANCH  12  14
ATOM     14  C   UNL     1       2.082   3.506   0.411  0.00  0.00    -0.058 C 
ATOM     15  C   UNL     1       3.534   3.852   0.709  0.00  0.00    -0.004 C 
ATOM     16  C   UNL     1       4.227   4.660  -0.411  0.00  0.00    +0.067 C 
ATOM     17  S   UNL     1       2.772   5.404  -1.271  0.00  0.00    -0.162 S 
ATOM     18  C   UNL     1       1.582   4.029  -0.954  0.00  0.00    +0.054 C 
ENDBRANCH  12  14
BRANCH   1  20
ATOM     19  C   UNL     1       0.006  -4.167   3.849  0.00  0.00    +0.028 C 
ATOM     20  C   UNL     1      -0.344  -3.811   2.402  0.00  0.00    +0.080 C 
ATOM     21  C   UNL     1      -1.845  -4.008   2.178  0.00  0.00    +0.028 C 
ENDBRANCH   1  20
BRANCH   9  22
ATOM     22  C   UNL     1      -0.354   1.137   2.886  0.00  0.00    +0.115 C 
BRANCH  22  23
ATOM     23  C   UNL     1       0.148   1.280   4.324  0.00  0.00    +0.054 C 
BRANCH  23  24
ATOM     24  C   UNL     1      -0.304   2.603   4.886  0.00  0.00    -0.046 A 
ATOM     25  C   UNL     1       0.495   3.722   4.745  0.00  0.00    +0.007 A 
ATOM     26  C   UNL     1       0.080   4.938   5.254  0.00  0.00    +0.046 A 
ATOM     27  C   UNL     1      -1.135   5.032   5.916  0.00  0.00    +0.120 A 
ATOM     28  C   UNL     1      -1.933   3.907   6.060  0.00  0.00    +0.046 A 
ATOM     29  C   UNL     1      -1.516   2.695   5.545  0.00  0.00    +0.007 A 
BRANCH  27  30
ATOM     30  O   UNL     1      -1.543   6.226   6.423  0.00  0.00    -0.495 OA
ATOM     31  C   UNL     1      -0.670   7.342   6.238  0.00  0.00    +0.277 C 
ENDBRANCH  27  30
ENDBRANCH  23  24
ENDBRANCH  22  23
ENDBRANCH   9  22
TORSDOF 6
