REMARK  Name = ZINC20462074
REMARK  5 active torsions:
REMARK  status: ('A' for Active; 'I' for Inactive)
REMARK    1  A    between atoms: C_1  and  C_2
REMARK    2  A    between atoms: C_2  and  C_25
REMARK    3  A    between atoms: C_10  and  C_14
REMARK    4  A    between atoms: N_12  and  C_13
REMARK    5  A    between atoms: N_18  and  C_19
REMARK                            x       y       z     vdW  Elec       q    Type
REMARK                         _______ _______ _______ _____ _____    ______ ____
ROOT
ATOM      1  C   UNL     1      -0.111   1.376  -0.123  0.00  0.00    +0.028 C 
ATOM      2  C   UNL     1      -0.018  -0.151  -0.107  0.00  0.00    +0.021 C 
ATOM      3  C   UNL     1       0.781  -0.631  -1.319  0.00  0.00    +0.057 C 
ATOM      4  C   UNL     1       1.084  -2.101  -1.186  0.00  0.00    -0.041 A 
ATOM      5  C   UNL     1       1.477  -2.800  -2.317  0.00  0.00    +0.004 A 
ATOM      6  C   UNL     1       1.768  -4.147  -2.238  0.00  0.00    +0.000 A 
ATOM      7  C   UNL     1       1.668  -4.803  -1.025  0.00  0.00    +0.000 A 
ATOM      8  C   UNL     1       1.275  -4.109   0.101  0.00  0.00    +0.006 A 
ATOM      9  C   UNL     1       0.980  -2.755   0.023  0.00  0.00    -0.020 A 
ATOM     10  C   UNL     1       0.545  -2.043   1.277  0.00  0.00    +0.158 C 
ATOM     11  N   UNL     1       0.675  -0.591   1.114  0.00  0.00    -0.287 NA
ATOM     12  C   UNL     1       0.165   0.119   2.295  0.00  0.00    +0.106 C 
ATOM     13  C   UNL     1      -1.425  -0.752  -0.143  0.00  0.00    +0.028 C 
ENDROOT
BRANCH  10  14
ATOM     14  C   UNL     1       1.409  -2.490   2.429  0.00  0.00    +0.178 A 
ATOM     15  N   UNL     1       2.684  -2.246   2.582  0.00  0.00    -0.111 NA
ATOM     16  N   UNL     1       3.118  -2.769   3.671  0.00  0.00    -0.023 NA
ATOM     17  N   UNL     1       2.160  -3.377   4.285  0.00  0.00    -0.039 NA
ATOM     18  N   UNL     1       1.008  -3.212   3.497  0.00  0.00    -0.195 N 
BRANCH  18  19
ATOM     19  C   UNL     1      -0.282  -3.696   3.762  0.00  0.00    +0.069 A 
ATOM     20  C   UNL     1      -1.037  -4.260   2.743  0.00  0.00    +0.028 A 
ATOM     21  C   UNL     1      -2.306  -4.735   3.007  0.00  0.00    +0.002 A 
ATOM     22  C   UNL     1      -2.826  -4.650   4.285  0.00  0.00    +0.000 A 
ATOM     23  C   UNL     1      -2.076  -4.090   5.303  0.00  0.00    +0.002 A 
ATOM     24  C   UNL     1      -0.803  -3.618   5.046  0.00  0.00    +0.028 A 
ENDBRANCH  18  19
ENDBRANCH  10  14
TORSDOF 2
