REMARK  Name = ZINC40005505
REMARK  6 active torsions:
REMARK  status: ('A' for Active; 'I' for Inactive)
REMARK    1  A    between atoms: C_4  and  C_7
REMARK    2  A    between atoms: C_10  and  S_13
REMARK    3  A    between atoms: S_13  and  C_14
REMARK    4  A    between atoms: C_14  and  C_16
REMARK    5  A    between atoms: C_14  and  C_22
REMARK    6  A    between atoms: C_22  and  C_24
REMARK                            x       y       z     vdW  Elec       q    Type
REMARK                         _______ _______ _______ _____ _____    ______ ____
ROOT
ATOM      1  C   UNL     1       5.093  -2.273   2.789  0.00  0.00    +0.152 C 
ENDROOT
BRANCH   1   2
ATOM      2  C   UNL     1       5.883  -0.990   2.810  0.00  0.00    -0.027 A 
ATOM      3  C   UNL     1       7.258  -1.027   2.953  0.00  0.00    +0.005 A 
ATOM      4  C   UNL     1       7.982   0.150   2.972  0.00  0.00    +0.000 A 
ATOM      5  C   UNL     1       7.332   1.364   2.847  0.00  0.00    +0.000 A 
ATOM      6  C   UNL     1       5.958   1.400   2.703  0.00  0.00    +0.000 A 
ATOM      7  C   UNL     1       5.234   0.223   2.680  0.00  0.00    +0.005 A 
ENDBRANCH   1   2
BRANCH   1   8
ATOM      8  C   UNL     1       5.299  -3.011   4.087  0.00  0.00    +0.179 C 
ATOM      9  O   UNL     1       6.149  -3.875   4.166  0.00  0.00    -0.291 OA
BRANCH   8  10
ATOM     10  C   UNL     1       4.504  -2.698   5.210  0.00  0.00    +0.024 C 
ATOM     11  C   UNL     1       4.569  -3.272   6.467  0.00  0.00    +0.006 A 
ATOM     12  C   UNL     1       5.383  -4.288   7.020  0.00  0.00    +0.010 A 
ATOM     13  C   UNL     1       5.226  -4.661   8.310  0.00  0.00    +0.001 A 
ATOM     14  C   UNL     1       4.268  -4.075   9.152  0.00  0.00    +0.002 A 
ATOM     15  C   UNL     1       3.440  -3.098   8.723  0.00  0.00    +0.026 A 
ATOM     16  C   UNL     1       3.546  -2.632   7.330  0.00  0.00    +0.043 A 
ATOM     17  N   UNL     1       2.890  -1.725   6.664  0.00  0.00    -0.380 N 
ATOM     18  C   UNL     1       3.407  -1.660   5.294  0.00  0.00    +0.152 C 
ATOM     19  H   UNL     1       2.174  -1.176   7.021  0.00  0.00    +0.160 HD
ENDBRANCH   8  10
ENDBRANCH   1   8
BRANCH   1  20
ATOM     20  S   UNL     1       5.657  -3.308   1.410  0.00  0.00    -0.080 S 
BRANCH  20  24
ATOM     21  C   UNL     1       3.695  -0.684  -0.038  0.00  0.00    +0.239 C 
ATOM     22  N   UNL     1       4.845  -0.096  -0.041  0.00  0.00    -0.145 NA
ATOM     23  N   UNL     1       5.878  -1.044  -0.059  0.00  0.00    -0.219 N 
ATOM     24  C   UNL     1       5.206  -2.355  -0.066  0.00  0.00    +0.340 C 
ATOM     25  O   UNL     1       3.807  -2.034  -0.046  0.00  0.00    -0.442 OA
ATOM     26  H   UNL     1       6.833  -0.873  -0.065  0.00  0.00    +0.173 HD
BRANCH  21  30
ATOM     27  C   UNL     1      -0.017   1.379   0.010  0.00  0.00    +0.000 A 
ATOM     28  C   UNL     1       1.168   2.094   0.002  0.00  0.00    +0.001 A 
ATOM     29  C   UNL     1       2.377   1.430  -0.013  0.00  0.00    +0.013 A 
ATOM     30  C   UNL     1       2.404   0.034  -0.021  0.00  0.00    +0.038 A 
ATOM     31  C   UNL     1       1.204  -0.681  -0.013  0.00  0.00    +0.013 A 
ATOM     32  C   UNL     1       0.002  -0.004   0.002  0.00  0.00    +0.001 A 
ENDBRANCH  21  30
ENDBRANCH  20  24
ENDBRANCH   1  20
TORSDOF 6
