REMARK  Name = ZINC15574668
REMARK  6 active torsions:
REMARK  status: ('A' for Active; 'I' for Inactive)
REMARK    1  A    between atoms: C_1  and  C_2
REMARK    2  A    between atoms: C_2  and  C_3
REMARK    3  A    between atoms: C_3  and  C_4
REMARK    4  A    between atoms: C_13  and  O_15
REMARK    5  A    between atoms: O_15  and  C_16
REMARK    6  A    between atoms: C_16  and  C_18
REMARK                            x       y       z     vdW  Elec       q    Type
REMARK                         _______ _______ _______ _____ _____    ______ ____
ROOT
ATOM      1  O   UNL     1       4.856   0.069  -0.062  0.00  0.00    -0.422 OA
ENDROOT
BRANCH   1  11
ATOM      2  C   UNL     1       9.382  -3.201  -0.292  0.00  0.00    -0.030 A 
ATOM      3  C   UNL     1      10.598  -2.596  -0.264  0.00  0.00    +0.096 A 
ATOM      4  C   UNL     1      10.681  -1.191  -0.178  0.00  0.00    +0.337 A 
ATOM      5  O   UNL     1      11.777  -0.661  -0.154  0.00  0.00    -0.245 OA
ATOM      6  O   UNL     1       9.582  -0.422  -0.124  0.00  0.00    -0.422 OA
ATOM      7  C   UNL     1       8.343  -0.960  -0.148  0.00  0.00    +0.143 A 
ATOM      8  C   UNL     1       8.187  -2.356  -0.232  0.00  0.00    +0.021 A 
ATOM      9  C   UNL     1       6.906  -2.917  -0.258  0.00  0.00    +0.015 A 
ATOM     10  C   UNL     1       5.809  -2.107  -0.195  0.00  0.00    +0.047 A 
ATOM     11  C   UNL     1       5.957  -0.724  -0.118  0.00  0.00    +0.135 A 
ATOM     12  C   UNL     1       7.218  -0.151  -0.091  0.00  0.00    +0.093 A 
BRANCH   2  13
ATOM     13  C   UNL     1       9.266  -4.701  -0.382  0.00  0.00    +0.036 C 
BRANCH  13  15
ATOM     14  C   UNL     1       8.973  -6.634  -1.938  0.00  0.00    +0.004 C 
ATOM     15  C   UNL     1       9.091  -5.112  -1.846  0.00  0.00    +0.001 C 
ENDBRANCH  13  15
ENDBRANCH   2  13
ENDBRANCH   1  11
BRANCH   1  16
ATOM     16  C   UNL     1       4.509   0.714  -1.193  0.00  0.00    +0.344 C 
ATOM     17  O   UNL     1       5.220   0.643  -2.176  0.00  0.00    -0.245 OA
BRANCH  16  18
ATOM     18  C   UNL     1       3.267   1.505  -1.239  0.00  0.00    +0.061 A 
ATOM     19  C   UNL     1       2.449   1.586  -0.107  0.00  0.00    +0.016 A 
ATOM     20  C   UNL     1       1.290   2.329  -0.152  0.00  0.00    +0.017 A 
ATOM     21  C   UNL     1       0.936   2.995  -1.317  0.00  0.00    +0.030 A 
ATOM     22  C   UNL     1       1.742   2.920  -2.458  0.00  0.00    +0.048 A 
ATOM     23  C   UNL     1       2.908   2.174  -2.412  0.00  0.00    +0.039 A 
ATOM     24  N   UNL     1       1.395   3.573  -3.639  0.00  0.00    -0.284 N 
ATOM     25  C   UNL     1       0.576   4.615  -3.751  0.00  0.00    +0.227 C 
ATOM     26  O   UNL     1       0.385   5.078  -4.855  0.00  0.00    -0.275 OA
ATOM     27  C   UNL     1      -0.127   5.250  -2.583  0.00  0.00    +0.170 C 
ATOM     28  S   UNL     1      -0.543   3.958  -1.374  0.00  0.00    -0.114 S 
ATOM     29  H   UNL     1       1.790   3.235  -4.459  0.00  0.00    +0.155 HD
ENDBRANCH  16  18
ENDBRANCH   1  16
TORSDOF 5
