REMARK  Name = ZINC20016150
REMARK  7 active torsions:
REMARK  status: ('A' for Active; 'I' for Inactive)
REMARK    1  A    between atoms: C_1  and  C_2
REMARK    2  A    between atoms: C_2  and  C_4
REMARK    3  A    between atoms: C_2  and  S_16
REMARK    4  A    between atoms: N_6  and  C_7
REMARK    5  A    between atoms: C_10  and  N_14
REMARK    6  A    between atoms: S_16  and  C_17
REMARK    7  A    between atoms: N_21  and  C_22
REMARK                            x       y       z     vdW  Elec       q    Type
REMARK                         _______ _______ _______ _____ _____    ______ ____
ROOT
ATOM      1  C   UNL     1      -3.588   3.198  -0.346  0.00  0.00    +0.230 C 
ATOM      2  O   UNL     1      -3.561   2.018  -0.626  0.00  0.00    -0.274 OA
ATOM      3  N   UNL     1      -2.461   3.824   0.046  0.00  0.00    -0.282 N 
ATOM      4  H   UNL     1      -2.501   4.872   0.378  0.00  0.00    +0.155 HD
ENDROOT
BRANCH   3   5
ATOM      5  C   UNL     1      -1.237   3.139   0.031  0.00  0.00    +0.071 A 
ATOM      6  C   UNL     1      -0.449   3.151  -1.113  0.00  0.00    +0.065 A 
ATOM      7  C   UNL     1       0.754   2.471  -1.130  0.00  0.00    +0.044 A 
ATOM      8  C   UNL     1       1.181   1.786   0.001  0.00  0.00    +0.027 A 
ATOM      9  C   UNL     1       0.395   1.779   1.146  0.00  0.00    +0.044 A 
ATOM     10  C   UNL     1      -0.811   2.454   1.161  0.00  0.00    +0.065 A 
ATOM     11 CL   UNL     1      -1.793   2.444   2.593  0.00  0.00    -0.082 Cl
ATOM     12 CL   UNL     1      -0.979   4.013  -2.523  0.00  0.00    -0.082 Cl
BRANCH   8  13
ATOM     13  N   UNL     1       2.401   1.103  -0.014  0.00  0.00    -0.358 N 
ATOM     14  H   UNL     1       2.739   0.561   0.881  0.00  0.00    +0.142 HD
ATOM     15  H   UNL     1       3.023   1.109  -0.922  0.00  0.00    +0.142 HD
ENDBRANCH   8  13
ENDBRANCH   3   5
BRANCH   1  17
ATOM     16  C   UNL     1      -4.970   4.659  -1.798  0.00  0.00    +0.029 C 
ATOM     17  C   UNL     1      -4.883   3.965  -0.437  0.00  0.00    +0.137 C 
BRANCH  17  18
ATOM     18  S   UNL     1      -6.275   2.822  -0.253  0.00  0.00    -0.074 S 
BRANCH  18  19
ATOM     19  C   UNL     1      -7.613   3.968  -0.246  0.00  0.00    +0.192 A 
ATOM     20  N   UNL     1      -7.522   5.274  -0.345  0.00  0.00    -0.123 NA
ATOM     21  N   UNL     1      -8.696   5.797  -0.306  0.00  0.00    -0.137 NA
ATOM     22  C   UNL     1      -9.597   4.865  -0.173  0.00  0.00    +0.225 A 
ATOM     23  N   UNL     1      -8.939   3.667  -0.130  0.00  0.00    -0.312 N 
ATOM     24  C   UNL     1      -9.535   2.336   0.012  0.00  0.00    +0.152 C 
ENDBRANCH  18  19
ENDBRANCH  17  18
ENDBRANCH   1  17
TORSDOF 5
