REMARK  Name = ZINC63528962
REMARK  10 active torsions:
REMARK  status: ('A' for Active; 'I' for Inactive)
REMARK    1  A    between atoms: C_1  and  C_2
REMARK    2  A    between atoms: C_7  and  N_12
REMARK    3  A    between atoms: C_9  and  C_11
REMARK    4  A    between atoms: N_12  and  C_13
REMARK    5  A    between atoms: C_15  and  C_24
REMARK    6  A    between atoms: C_21  and  C_22
REMARK    7  A    between atoms: C_27  and  O_30
REMARK    8  A    between atoms: O_30  and  C_31
REMARK    9  A    between atoms: C_31  and  C_32
REMARK   10  A    between atoms: C_31  and  C_33
REMARK                            x       y       z     vdW  Elec       q    Type
REMARK                         _______ _______ _______ _____ _____    ______ ____
ROOT
ATOM      1  C   UNL     1       0.407   1.472   5.136  0.00  0.00    +0.226 C 
ATOM      2  C   UNL     1       1.520   1.089   6.090  0.00  0.00    +0.090 C 
ATOM      3  N   UNL     1       0.943   0.678   7.185  0.00  0.00    -0.228 NA
ATOM      4  C   UNL     1      -0.400   0.725   7.115  0.00  0.00    +0.171 A 
ATOM      5  N   UNL     1      -0.816   1.197   5.904  0.00  0.00    -0.222 N 
ATOM      6  N   UNL     1      -2.211   1.228   5.884  0.00  0.00    -0.175 NA
ATOM      7  C   UNL     1      -2.667   0.797   7.028  0.00  0.00    +0.155 A 
ATOM      8  C   UNL     1      -1.564   0.459   7.854  0.00  0.00    +0.115 A 
ENDROOT
BRANCH   2   9
ATOM      9  C   UNL     1       2.964   1.165   5.833  0.00  0.00    -0.000 A 
ATOM     10  C   UNL     1       3.434   1.636   4.601  0.00  0.00    +0.013 A 
ATOM     11  C   UNL     1       4.789   1.706   4.365  0.00  0.00    +0.046 A 
ATOM     12  C   UNL     1       5.689   1.310   5.348  0.00  0.00    +0.121 A 
ATOM     13  C   UNL     1       5.228   0.841   6.572  0.00  0.00    +0.046 A 
ATOM     14  C   UNL     1       3.876   0.773   6.821  0.00  0.00    +0.013 A 
BRANCH  12  15
ATOM     15  O   UNL     1       7.024   1.380   5.110  0.00  0.00    -0.489 OA
BRANCH  15  16
ATOM     16  C   UNL     1       7.429   1.757   3.792  0.00  0.00    +0.167 C 
ATOM     17  C   UNL     1       7.444   3.283   3.680  0.00  0.00    +0.051 C 
ATOM     18  C   UNL     1       8.831   1.211   3.514  0.00  0.00    +0.051 C 
ENDBRANCH  15  16
ENDBRANCH  12  15
ENDBRANCH   2   9
BRANCH   1  19
ATOM     19  N   UNL     1       0.455   0.641   3.925  0.00  0.00    -0.287 NA
ATOM     20  H   UNL     1       0.055  -0.270   4.096  0.00  0.00    +0.125 HD
BRANCH  19  26
ATOM     21  C   UNL     1      -0.109   2.987   0.402  0.00  0.00    +0.008 C 
ATOM     22  C   UNL     1      -0.344   1.478   0.312  0.00  0.00    -0.010 C 
ATOM     23  C   UNL     1      -1.845   1.191   0.370  0.00  0.00    +0.003 C 
ATOM     24  C   UNL     1      -2.415   1.717   1.689  0.00  0.00    +0.002 C 
ATOM     25  C   UNL     1      -1.717   1.022   2.860  0.00  0.00    +0.019 C 
ATOM     26  C   UNL     1      -0.215   1.309   2.801  0.00  0.00    +0.059 C 
ATOM     27  C   UNL     1       0.354   0.782   1.482  0.00  0.00    +0.006 C 
ATOM     28  C   UNL     1       1.856   1.069   1.424  0.00  0.00    +0.009 C 
ENDBRANCH  19  26
ENDBRANCH   1  19
BRANCH   8  29
ATOM     29  C   UNL     1      -1.624  -0.053   9.191  0.00  0.00    +0.104 C 
ATOM     30  N   UNL     1      -1.672  -0.458  10.251  0.00  0.00    -0.191 NA
ENDBRANCH   8  29
TORSDOF 6
