REMARK  Name = ZINC19225159
REMARK  9 active torsions:
REMARK  status: ('A' for Active; 'I' for Inactive)
REMARK    1  A    between atoms: C_1  and  N_2
REMARK    2  A    between atoms: N_2  and  C_3
REMARK    3  A    between atoms: C_4  and  C_6
REMARK    4  A    between atoms: C_7  and  C_16
REMARK    5  A    between atoms: C_16  and  N_17
REMARK    6  A    between atoms: N_17  and  C_18
REMARK    7  A    between atoms: N_17  and  C_19
REMARK    8  A    between atoms: C_19  and  C_20
REMARK    9  A    between atoms: C_23  and  C_25
REMARK                            x       y       z     vdW  Elec       q    Type
REMARK                         _______ _______ _______ _____ _____    ______ ____
ROOT
ATOM      1  C   UNL     1      -2.300   0.638  -3.864  0.00  0.00    +0.146 A 
ATOM      2  C   UNL     1      -1.134   1.281  -3.561  0.00  0.00    +0.039 A 
ATOM      3  N   UNL     1      -1.116   2.438  -4.279  0.00  0.00    -0.303 N 
ATOM      4  C   UNL     1      -0.201   3.450  -4.371  0.00  0.00    +0.113 A 
ATOM      5  C   UNL     1      -0.425   4.508  -5.179  0.00  0.00    +0.058 A 
ATOM      6  C   UNL     1      -1.603   4.581  -5.944  0.00  0.00    +0.025 A 
ATOM      7  C   UNL     1      -2.519   3.580  -5.867  0.00  0.00    +0.048 A 
ATOM      8  C   UNL     1      -2.272   2.479  -5.017  0.00  0.00    +0.139 A 
ATOM      9  N   UNL     1      -2.975   1.390  -4.753  0.00  0.00    -0.223 NA
ATOM     10 CL   UNL     1       0.748   5.785  -5.274  0.00  0.00    -0.082 Cl
ENDROOT
BRANCH   1  14
ATOM     11  C   UNL     1      -4.383  -2.450  -3.140  0.00  0.00    +0.132 C 
ATOM     12  N   UNL     1      -3.859  -1.245  -3.786  0.00  0.00    -0.302 N 
ATOM     13  C   UNL     1      -4.548  -0.679  -4.949  0.00  0.00    +0.132 C 
ATOM     14  C   UNL     1      -2.744  -0.656  -3.312  0.00  0.00    +0.266 C 
ATOM     15  O   UNL     1      -2.103  -1.192  -2.428  0.00  0.00    -0.268 OA
ENDBRANCH   1  14
BRANCH   2  16
ATOM     16  C   UNL     1      -0.069   0.803  -2.607  0.00  0.00    -0.022 C 
BRANCH  16  17
ATOM     17  N   UNL     1      -0.358   1.309  -1.258  0.00  0.00    +0.385 N 
ATOM     18  C   UNL     1      -0.240   2.772  -1.208  0.00  0.00    -0.095 C 
ATOM     19  H   UNL     1      -1.397   1.045  -1.014  0.00  0.00    -0.081 HD
BRANCH  17  20
ATOM     20  C   UNL     1       0.516   0.676  -0.261  0.00  0.00    -0.022 C 
BRANCH  20  21
ATOM     21  C   UNL     1       0.034   1.027   1.123  0.00  0.00    +0.033 A 
ATOM     22  C   UNL     1      -0.795   0.182   1.790  0.00  0.00    +0.068 A 
ATOM     23  S   UNL     1      -1.026   1.081   3.318  0.00  0.00    -0.075 S 
ATOM     24  C   UNL     1       0.005   2.482   2.905  0.00  0.00    +0.115 A 
ATOM     25  N   UNL     1       0.420   2.148   1.689  0.00  0.00    -0.245 NA
BRANCH  24  26
ATOM     26  C   UNL     1       0.315   3.681   3.701  0.00  0.00    +0.044 A 
ATOM     27  C   UNL     1      -0.118   4.020   4.958  0.00  0.00    +0.018 A 
ATOM     28  C   UNL     1       0.314   5.205   5.508  0.00  0.00    +0.008 A 
ATOM     29  C   UNL     1       1.142   6.007   4.788  0.00  0.00    +0.046 A 
ATOM     30  S   UNL     1       1.346   5.076   3.278  0.00  0.00    -0.095 S 
ENDBRANCH  24  26
ENDBRANCH  20  21
ENDBRANCH  17  20
ENDBRANCH  16  17
ENDBRANCH   2  16
TORSDOF 6
