REMARK  Name = ZINC40860884
REMARK  3 active torsions:
REMARK  status: ('A' for Active; 'I' for Inactive)
REMARK    1  A    between atoms: C_6  and  N_7
REMARK    2  A    between atoms: N_7  and  S_8
REMARK    3  A    between atoms: S_8  and  N_11
REMARK                            x       y       z     vdW  Elec       q    Type
REMARK                         _______ _______ _______ _____ _____    ______ ____
ROOT
ATOM      1  C   UNL     1      -0.017   1.385   0.010  0.00  0.00    +0.032 A 
ATOM      2  C   UNL     1       1.168   2.087   0.002  0.00  0.00    -0.016 A 
ATOM      3  C   UNL     1       2.389   1.425  -0.013  0.00  0.00    +0.039 A 
ATOM      4  C   UNL     1       2.404   0.032  -0.021  0.00  0.00    +0.045 A 
ATOM      5  C   UNL     1       1.219  -0.676  -0.015  0.00  0.00    +0.065 A 
ATOM      6  C   UNL     1       0.002  -0.004   0.002  0.00  0.00    +0.068 A 
ATOM      7 CL   UNL     1       1.249  -2.411  -0.027  0.00  0.00    -0.082 Cl
ATOM      8  N   UNL     1       3.438   2.349  -0.018  0.00  0.00    -0.285 N 
ATOM      9  C   UNL     1       2.997   3.618  -0.007  0.00  0.00    +0.222 C 
ATOM     10  O   UNL     1       3.683   4.619  -0.008  0.00  0.00    -0.275 OA
ATOM     11  C   UNL     1       1.485   3.565   0.007  0.00  0.00    +0.133 C 
ATOM     12  H   UNL     1       4.376   2.102  -0.028  0.00  0.00    +0.155 HD
ENDROOT
BRANCH   6  13
ATOM     13  N   UNL     1      -1.198  -0.724   0.010  0.00  0.00    -0.205 N 
ATOM     14  H   UNL     1      -1.256  -1.566   0.488  0.00  0.00    +0.175 HD
BRANCH  13  15
ATOM     15  S   UNL     1      -2.521  -0.138  -0.796  0.00  0.00    +0.112 S 
ATOM     16  O   UNL     1      -3.558  -1.094  -0.625  0.00  0.00    -0.138 OA
ATOM     17  O   UNL     1      -2.665   1.221  -0.406  0.00  0.00    -0.138 OA
BRANCH  15  18
ATOM     18  N   UNL     1      -2.146  -0.130  -2.410  0.00  0.00    -0.161 NA
ATOM     19  C   UNL     1      -1.518   1.045  -3.033  0.00  0.00    +0.126 C 
ATOM     20  C   UNL     1      -2.326   1.427  -4.277  0.00  0.00    +0.098 C 
ATOM     21  N   UNL     1      -2.456   0.254  -5.152  0.00  0.00    -0.313 NA
ATOM     22  C   UNL     1      -3.206  -0.823  -4.493  0.00  0.00    +0.098 C 
ATOM     23  C   UNL     1      -2.428  -1.299  -3.256  0.00  0.00    +0.126 C 
ATOM     24  H   UNL     1      -2.881   0.504  -6.032  0.00  0.00    +0.122 HD
ENDBRANCH  15  18
ENDBRANCH  13  15
ENDBRANCH   6  13
TORSDOF 3
