REMARK  Name = ZINC40274197
REMARK  3 active torsions:
REMARK  status: ('A' for Active; 'I' for Inactive)
REMARK    1  A    between atoms: C_1  and  C_2
REMARK    2  A    between atoms: C_6  and  C_7
REMARK    3  A    between atoms: C_7  and  C_9
REMARK                            x       y       z     vdW  Elec       q    Type
REMARK                         _______ _______ _______ _____ _____    ______ ____
ROOT
ATOM      1  C   UNL     1       1.410  -0.545   3.093  0.00  0.00    -0.000 A 
ATOM      2  C   UNL     1       2.297   0.515   3.108  0.00  0.00    +0.056 A 
ATOM      3  C   UNL     1       3.568   0.351   3.639  0.00  0.00    +0.162 A 
ATOM      4  C   UNL     1       3.947  -0.882   4.157  0.00  0.00    +0.163 A 
ATOM      5  C   UNL     1       3.054  -1.942   4.138  0.00  0.00    +0.069 A 
ATOM      6  C   UNL     1       1.786  -1.771   3.611  0.00  0.00    +0.050 A 
ATOM      7 CL   UNL     1       0.667  -3.098   3.596  0.00  0.00    -0.083 Cl
ATOM      8  O   UNL     1       5.186  -1.062   4.690  0.00  0.00    -0.485 OA
ATOM      9  C   UNL     1       6.179  -0.086   4.355  0.00  0.00    +0.270 C 
ATOM     10  C   UNL     1       5.558   1.308   4.521  0.00  0.00    +0.270 C 
ATOM     11  O   UNL     1       4.431   1.404   3.643  0.00  0.00    -0.485 OA
ENDROOT
BRANCH   1  12
ATOM     12  C   UNL     1       0.030  -0.363   2.516  0.00  0.00    +0.178 C 
ATOM     13 CL   UNL     1      -1.150  -1.348   3.459  0.00  0.00    -0.108 Cl
BRANCH  12  19
ATOM     14  C   UNL     1      -0.018   1.503   0.010  0.00  0.00    +0.047 C 
ATOM     15  C   UNL     1       0.002  -0.004   0.002  0.00  0.00    -0.008 A 
ATOM     16  C   UNL     1       0.009  -0.840  -1.138  0.00  0.00    +0.044 A 
ATOM     17  C   UNL     1       0.029  -2.109  -0.691  0.00  0.00    +0.195 A 
ATOM     18  O   UNL     1       0.034  -2.085   0.652  0.00  0.00    -0.466 OA
ATOM     19  C   UNL     1       0.023  -0.811   1.078  0.00  0.00    +0.130 A 
ENDBRANCH  12  19
ENDBRANCH   1  12
TORSDOF 2
