REMARK  Name = ZINC65228049
REMARK  4 active torsions:
REMARK  status: ('A' for Active; 'I' for Inactive)
REMARK    1  A    between atoms: C_1  and  C_2
REMARK    2  A    between atoms: C_5  and  C_20
REMARK    3  A    between atoms: C_6  and  C_8
REMARK    4  A    between atoms: N_10  and  C_11
REMARK                            x       y       z     vdW  Elec       q    Type
REMARK                         _______ _______ _______ _____ _____    ______ ____
ROOT
ATOM      1  C   UNL     1       0.602  -2.682   2.528  0.00  0.00    +0.249 C 
ATOM      2  O   UNL     1       0.704  -3.893   2.580  0.00  0.00    -0.270 OA
ATOM      3  N   UNL     1       0.777  -1.943   3.642  0.00  0.00    -0.278 N 
ATOM      4  H   UNL     1       0.624  -0.985   3.617  0.00  0.00    +0.155 HD
ENDROOT
BRANCH   3   5
ATOM      5  C   UNL     1       1.177  -2.556   4.831  0.00  0.00    +0.079 A 
ATOM      6  C   UNL     1       2.320  -2.157   5.466  0.00  0.00    +0.028 A 
ATOM      7  C   UNL     1       2.708  -2.784   6.661  0.00  0.00    +0.020 A 
ATOM      8  C   UNL     1       1.959  -3.778   7.185  0.00  0.00    +0.094 A 
ATOM      9  N   UNL     1       0.815  -4.189   6.564  0.00  0.00    -0.287 N 
ATOM     10  C   UNL     1       0.402  -3.594   5.399  0.00  0.00    +0.182 A 
ATOM     11  N   UNL     1      -0.724  -4.188   5.042  0.00  0.00    -0.128 NA
ATOM     12  N   UNL     1      -1.025  -5.091   5.907  0.00  0.00    -0.137 NA
ATOM     13  C   UNL     1      -0.117  -5.139   6.848  0.00  0.00    +0.229 A 
ENDBRANCH   3   5
BRANCH   1  19
ATOM     14  C   UNL     1       0.014   1.486  -0.152  0.00  0.00    +0.044 C 
ATOM     15  C   UNL     1       0.003  -0.018  -0.050  0.00  0.00    -0.050 A 
ATOM     16  C   UNL     1      -0.304  -0.783  -1.161  0.00  0.00    +0.003 A 
ATOM     17  C   UNL     1      -0.316  -2.164  -1.076  0.00  0.00    +0.004 A 
ATOM     18  C   UNL     1      -0.023  -2.787   0.119  0.00  0.00    -0.038 A 
ATOM     19  C   UNL     1       0.287  -2.021   1.244  0.00  0.00    +0.040 A 
ATOM     20  C   UNL     1       0.303  -0.628   1.150  0.00  0.00    +0.016 A 
ATOM     21  C   UNL     1      -0.038  -4.291   0.210  0.00  0.00    +0.044 C 
ENDBRANCH   1  19
TORSDOF 2
