REMARK  Name = ZINC26506497
REMARK  4 active torsions:
REMARK  status: ('A' for Active; 'I' for Inactive)
REMARK    1  A    between atoms: C_4  and  C_7
REMARK    2  A    between atoms: C_7  and  C_9
REMARK    3  A    between atoms: C_7  and  N_15
REMARK    4  A    between atoms: N_25  and  C_30
REMARK                            x       y       z     vdW  Elec       q    Type
REMARK                         _______ _______ _______ _____ _____    ______ ____
ROOT
ATOM      1  N   UNL     1      -0.802   1.619   1.127  0.00  0.00    -0.289 NA
ATOM      2  C   UNL     1      -0.936   3.079   1.027  0.00  0.00    +0.104 C 
ATOM      3  C   UNL     1      -1.829   3.585   2.163  0.00  0.00    +0.122 C 
ATOM      4  N   UNL     1      -1.240   3.200   3.453  0.00  0.00    -0.312 N 
ATOM      5  C   UNL     1      -1.105   1.740   3.553  0.00  0.00    +0.122 C 
ATOM      6  C   UNL     1      -0.213   1.234   2.417  0.00  0.00    +0.104 C 
ATOM      7  C   UNL     1      -1.982   3.702   4.505  0.00  0.00    +0.135 A 
ATOM      8  C   UNL     1      -2.238   5.082   4.613  0.00  0.00    +0.079 A 
ATOM      9  C   UNL     1      -1.901   6.218   3.845  0.00  0.00    +0.148 A 
ATOM     10  N   UNL     1      -2.410   7.271   4.418  0.00  0.00    -0.172 NA
ATOM     11  N   UNL     1      -3.101   6.891   5.576  0.00  0.00    -0.214 N 
ATOM     12  C   UNL     1      -3.001   5.535   5.707  0.00  0.00    +0.168 A 
ATOM     13  N   UNL     1      -3.446   4.646   6.592  0.00  0.00    -0.216 NA
ATOM     14  C   UNL     1      -3.181   3.366   6.449  0.00  0.00    +0.225 A 
ATOM     15  N   UNL     1      -2.475   2.893   5.436  0.00  0.00    -0.220 NA
ENDROOT
BRANCH  11  16
ATOM     16  C   UNL     1      -3.777   7.753   6.449  0.00  0.00    +0.068 A 
ATOM     17  C   UNL     1      -4.947   7.337   7.070  0.00  0.00    +0.028 A 
ATOM     18  C   UNL     1      -5.609   8.187   7.934  0.00  0.00    +0.002 A 
ATOM     19  C   UNL     1      -5.113   9.456   8.173  0.00  0.00    +0.000 A 
ATOM     20  C   UNL     1      -3.950   9.875   7.553  0.00  0.00    +0.002 A 
ATOM     21  C   UNL     1      -3.281   9.027   6.691  0.00  0.00    +0.028 A 
ENDBRANCH  11  16
BRANCH   1  22
ATOM     22  C   UNL     1      -0.013   1.086   0.008  0.00  0.00    +0.117 C 
BRANCH  22  26
ATOM     23  C   UNL     1       0.179  -3.171   0.304  0.00  0.00    +0.000 A 
ATOM     24  C   UNL     1       1.319  -2.447   0.010  0.00  0.00    +0.000 A 
ATOM     25  C   UNL     1       1.257  -1.069  -0.085  0.00  0.00    +0.005 A 
ATOM     26  C   UNL     1       0.055  -0.416   0.112  0.00  0.00    -0.026 A 
ATOM     27  C   UNL     1      -1.084  -1.140   0.411  0.00  0.00    +0.005 A 
ATOM     28  C   UNL     1      -1.023  -2.518   0.502  0.00  0.00    +0.000 A 
ENDBRANCH  22  26
BRANCH  22  29
ATOM     29  C   UNL     1      -0.665   1.470  -1.295  0.00  0.00    -0.023 A 
ATOM     30  C   UNL     1      -2.033   1.329  -1.473  0.00  0.00    +0.025 A 
ATOM     31  C   UNL     1      -2.596   1.696  -2.680  0.00  0.00    +0.111 A 
ATOM     32  N   UNL     1      -1.848   2.166  -3.659  0.00  0.00    -0.263 NA
ATOM     33  C   UNL     1      -0.544   2.309  -3.527  0.00  0.00    +0.111 A 
ATOM     34  C   UNL     1       0.089   1.968  -2.347  0.00  0.00    +0.025 A 
ENDBRANCH  22  29
ENDBRANCH   1  22
TORSDOF 4
