REMARK  Name = ZINC22931347
REMARK  6 active torsions:
REMARK  status: ('A' for Active; 'I' for Inactive)
REMARK    1  A    between atoms: C_1  and  O_2
REMARK    2  A    between atoms: O_2  and  C_3
REMARK    3  A    between atoms: C_6  and  N_9
REMARK    4  A    between atoms: C_13  and  N_17
REMARK    5  A    between atoms: N_20  and  C_23
REMARK    6  A    between atoms: C_23  and  C_24
REMARK                            x       y       z     vdW  Elec       q    Type
REMARK                         _______ _______ _______ _____ _____    ______ ____
ROOT
ATOM      1  N   UNL     1       2.460  -2.459  -4.303  0.00  0.00    -0.209 N 
ATOM      2  C   UNL     1       2.943  -1.775  -5.348  0.00  0.00    +0.228 C 
ATOM      3  O   UNL     1       2.904  -0.570  -5.478  0.00  0.00    -0.275 OA
ATOM      4  C   UNL     1       3.546  -2.744  -6.341  0.00  0.00    +0.125 C 
ATOM      5  C   UNL     1       3.325  -4.121  -5.682  0.00  0.00    +0.153 C 
ATOM      6  C   UNL     1       2.626  -3.785  -4.383  0.00  0.00    +0.244 C 
ATOM      7  O   UNL     1       2.271  -4.588  -3.548  0.00  0.00    -0.273 OA
ENDROOT
BRANCH   1  11
ATOM      8  C   UNL     1       0.607  -0.607  -1.056  0.00  0.00    +0.120 A 
ATOM      9  C   UNL     1       1.832  -1.237  -0.889  0.00  0.00    +0.047 A 
ATOM     10  C   UNL     1       2.445  -1.850  -1.963  0.00  0.00    +0.027 A 
ATOM     11  C   UNL     1       1.837  -1.836  -3.210  0.00  0.00    +0.044 A 
ATOM     12  C   UNL     1       0.612  -1.205  -3.377  0.00  0.00    +0.027 A 
ATOM     13  C   UNL     1      -0.004  -0.597  -2.301  0.00  0.00    +0.047 A 
BRANCH   8  15
ATOM     14  C   UNL     1       0.689  -0.052   1.255  0.00  0.00    +0.277 C 
ATOM     15  O   UNL     1       0.003  -0.003   0.002  0.00  0.00    -0.495 OA
ENDBRANCH   8  15
ENDBRANCH   1  11
BRANCH   5  16
ATOM     16  N   UNL     1       2.478  -4.970  -6.529  0.00  0.00    -0.289 NA
ATOM     17  C   UNL     1       1.152  -4.365  -6.723  0.00  0.00    +0.100 C 
ATOM     18  C   UNL     1       0.329  -5.239  -7.673  0.00  0.00    +0.100 C 
ATOM     19  N   UNL     1       0.211  -6.592  -7.111  0.00  0.00    -0.295 NA
ATOM     20  C   UNL     1       1.536  -7.197  -6.918  0.00  0.00    +0.100 C 
ATOM     21  C   UNL     1       2.359  -6.323  -5.968  0.00  0.00    +0.100 C 
BRANCH  19  22
ATOM     22  C   UNL     1      -0.637  -7.441  -7.958  0.00  0.00    +0.127 C 
BRANCH  22  23
ATOM     23  C   UNL     1      -0.937  -8.730  -7.238  0.00  0.00    +0.005 A 
ATOM     24  C   UNL     1      -1.969  -9.025  -6.411  0.00  0.00    +0.014 A 
ATOM     25  C   UNL     1      -2.043 -10.289  -5.855  0.00  0.00    +0.028 A 
ATOM     26  C   UNL     1      -1.079 -11.196  -6.154  0.00  0.00    +0.078 A 
ATOM     27  S   UNL     1      -0.028 -10.266  -7.258  0.00  0.00    -0.080 S 
ATOM     28 CL   UNL     1      -0.915 -12.836  -5.611  0.00  0.00    -0.076 Cl
ENDBRANCH  22  23
ENDBRANCH  19  22
ENDBRANCH   5  16
TORSDOF 5
