REMARK  Name = ZINC08180256
REMARK  4 active torsions:
REMARK  status: ('A' for Active; 'I' for Inactive)
REMARK    1  A    between atoms: C_4  and  O_21
REMARK    2  A    between atoms: C_5  and  C_7
REMARK    3  A    between atoms: C_10  and  C_11
REMARK    4  A    between atoms: O_21  and  C_22
REMARK                            x       y       z     vdW  Elec       q    Type
REMARK                         _______ _______ _______ _____ _____    ______ ____
ROOT
ATOM      1  C   UNL     1       1.246  -2.161  -0.077  0.00  0.00    +0.236 C 
ATOM      2  N   UNL     1       2.340  -2.873  -0.070  0.00  0.00    -0.205 NA
ATOM      3  C   UNL     1       2.010  -4.197  -0.059  0.00  0.00    +0.152 C 
ATOM      4  C   UNL     1       2.872  -5.271  -0.049  0.00  0.00    +0.043 C 
ATOM      5  C   UNL     1       0.535  -4.234  -0.059  0.00  0.00    +0.364 C 
ATOM      6  O   UNL     1      -0.179  -5.219  -0.050  0.00  0.00    -0.243 OA
ATOM      7  O   UNL     1       0.147  -2.940  -0.064  0.00  0.00    -0.402 OA
ENDROOT
BRANCH   4   8
ATOM      8  C   UNL     1       4.317  -5.053  -0.166  0.00  0.00    -0.023 A 
ATOM      9  C   UNL     1       5.186  -6.145  -0.288  0.00  0.00    +0.009 A 
ATOM     10  C   UNL     1       6.543  -5.932  -0.398  0.00  0.00    +0.020 A 
ATOM     11  C   UNL     1       7.048  -4.641  -0.389  0.00  0.00    +0.041 A 
ATOM     12  C   UNL     1       6.195  -3.556  -0.268  0.00  0.00    +0.020 A 
ATOM     13  C   UNL     1       4.835  -3.752  -0.162  0.00  0.00    +0.009 A 
ATOM     14 CL   UNL     1       8.759  -4.383  -0.527  0.00  0.00    -0.084 Cl
ENDBRANCH   4   8
BRANCH   1  19
ATOM     15  C   UNL     1      -0.026   1.370  -0.103  0.00  0.00    +0.001 A 
ATOM     16  C   UNL     1       1.160   2.087  -0.115  0.00  0.00    +0.004 A 
ATOM     17  C   UNL     1       2.374   1.428  -0.114  0.00  0.00    +0.046 A 
ATOM     18  C   UNL     1       2.413   0.043  -0.102  0.00  0.00    +0.139 A 
ATOM     19  C   UNL     1       1.216  -0.686  -0.090  0.00  0.00    +0.079 A 
ATOM     20  C   UNL     1      -0.005  -0.008  -0.091  0.00  0.00    +0.017 A 
BRANCH  18  21
ATOM     21  O   UNL     1       3.606  -0.605  -0.102  0.00  0.00    -0.433 OA
BRANCH  21  22
ATOM     22  C   UNL     1       4.784   0.204  -0.116  0.00  0.00    +0.541 C 
ATOM     23  F   UNL     1       4.789   1.001  -1.265  0.00  0.00    -0.166 F 
ATOM     24  F   UNL     1       4.801   1.022   1.020  0.00  0.00    -0.166 F 
ENDBRANCH  21  22
ENDBRANCH  18  21
ENDBRANCH   1  19
TORSDOF 4
