REMARK  Name = ZINC12999084
REMARK  4 active torsions:
REMARK  status: ('A' for Active; 'I' for Inactive)
REMARK    1  A    between atoms: N_10  and  C_11
REMARK    2  A    between atoms: C_14  and  S_17
REMARK    3  A    between atoms: S_17  and  C_18
REMARK    4  A    between atoms: C_21  and  C_23
REMARK                            x       y       z     vdW  Elec       q    Type
REMARK                         _______ _______ _______ _____ _____    ______ ____
ROOT
ATOM      1  C   UNL     1       4.828   9.437   2.753  0.00  0.00    +0.002 A 
ATOM      2  C   UNL     1       3.606   9.745   3.333  0.00  0.00    +0.001 A 
ATOM      3  C   UNL     1       2.581   8.817   3.287  0.00  0.00    +0.017 A 
ATOM      4  C   UNL     1       2.788   7.609   2.669  0.00  0.00    +0.041 A 
ATOM      5  C   UNL     1       4.019   7.261   2.067  0.00  0.00    +0.080 A 
ATOM      6  C   UNL     1       5.043   8.233   2.134  0.00  0.00    +0.029 A 
ATOM      7  N   UNL     1       4.066   6.037   1.499  0.00  0.00    -0.224 NA
ATOM      8  C   UNL     1       3.041   5.218   1.501  0.00  0.00    +0.173 A 
ATOM      9  S   UNL     1       1.798   6.165   2.368  0.00  0.00    -0.052 S 
ATOM     10  N   UNL     1       2.944   3.944   0.962  0.00  0.00    -0.218 N 
ATOM     11  C   UNL     1       1.762   3.296   0.971  0.00  0.00    +0.230 C 
ATOM     12  O   UNL     1       0.773   3.845   1.407  0.00  0.00    -0.274 OA
ENDROOT
BRANCH  11  13
ATOM     13  C   UNL     1       1.670   1.889   0.439  0.00  0.00    +0.098 C 
ATOM     14  C   UNL     1       2.102   0.900   1.534  0.00  0.00    +0.037 C 
ATOM     15  C   UNL     1       1.704  -0.533   1.077  0.00  0.00    +0.166 C 
ATOM     16  S   UNL     1       0.045  -0.204   0.344  0.00  0.00    -0.030 S 
ATOM     17  O   UNL     1      -0.948  -0.399   1.342  0.00  0.00    -0.174 OA
ATOM     18  O   UNL     1      -0.060  -0.896  -0.892  0.00  0.00    -0.174 OA
ATOM     19  C   UNL     1       0.212   1.597   0.009  0.00  0.00    +0.178 C 
ENDBRANCH  11  13
BRANCH  10  20
ATOM     20  C   UNL     1       4.077   3.329   0.407  0.00  0.00    +0.043 A 
ATOM     21  C   UNL     1       5.124   2.934   1.228  0.00  0.00    +0.025 A 
ATOM     22  C   UNL     1       6.236   2.325   0.683  0.00  0.00    +0.017 A 
ATOM     23  C   UNL     1       6.312   2.116  -0.688  0.00  0.00    +0.013 A 
ATOM     24  C   UNL     1       5.266   2.517  -1.510  0.00  0.00    +0.017 A 
ATOM     25  C   UNL     1       4.152   3.121  -0.964  0.00  0.00    +0.025 A 
BRANCH  23  26
ATOM     26  S   UNL     1       7.735   1.345  -1.385  0.00  0.00    -0.056 S 
BRANCH  26  27
ATOM     27  C   UNL     1       8.799   1.013   0.046  0.00  0.00    +0.404 C 
ATOM     28  F   UNL     1       9.112   2.217   0.684  0.00  0.00    -0.197 F 
ATOM     29  F   UNL     1       8.129   0.171   0.940  0.00  0.00    -0.197 F 
ENDBRANCH  26  27
ENDBRANCH  23  26
ENDBRANCH  10  20
TORSDOF 4
