REMARK  Name = ZINC15679769
REMARK  10 active torsions:
REMARK  status: ('A' for Active; 'I' for Inactive)
REMARK    1  A    between atoms: C_1  and  C_2
REMARK    2  A    between atoms: C_2  and  N_57
REMARK    3  A    between atoms: C_5  and  N_8
REMARK    4  A    between atoms: N_8  and  C_9
REMARK    5  A    between atoms: C_9  and  C_10
REMARK    6  A    between atoms: N_17  and  C_18
REMARK    7  A    between atoms: C_21  and  O_26
REMARK    8  A    between atoms: C_23  and  O_24
REMARK    9  A    between atoms: O_24  and  C_25
REMARK   10  A    between atoms: O_26  and  C_27
REMARK                            x       y       z     vdW  Elec       q    Type
REMARK                         _______ _______ _______ _____ _____    ______ ____
ROOT
ATOM      1  N   UNL     1       2.309   0.708   0.050  0.00  0.00    -0.278 N 
ATOM      2  C   UNL     1       1.224   1.504  -0.026  0.00  0.00    +0.307 C 
ATOM      3  O   UNL     1       1.359   2.709  -0.126  0.00  0.00    -0.252 OA
ATOM      4  N   UNL     1      -0.011   0.966   0.007  0.00  0.00    -0.266 N 
ATOM      5  H   UNL     1      -0.120   0.002   0.021  0.00  0.00    +0.156 HD
ENDROOT
BRANCH   1   8
ATOM      6  C   UNL     1       5.223   2.713  -1.308  0.00  0.00    -0.077 C 
ATOM      7  C   UNL     1       3.843   2.053  -1.302  0.00  0.00    +0.004 C 
ATOM      8  C   UNL     1       3.651   1.294   0.014  0.00  0.00    +0.074 C 
ATOM      9  C   UNL     1       3.817   2.268   1.184  0.00  0.00    +0.004 C 
ATOM     10  C   UNL     1       5.198   2.921   1.106  0.00  0.00    -0.077 C 
ATOM     11  N   UNL     1       5.310   3.655  -0.173  0.00  0.00    +0.380 N 
ATOM     12  H   UNL     1       4.537   4.328  -0.239  0.00  0.00    -0.082 HD
BRANCH  11  14
ATOM     13  C   UNL     1       6.786   5.148   1.092  0.00  0.00    -0.017 C 
ATOM     14  C   UNL     1       6.591   4.390  -0.223  0.00  0.00    -0.082 C 
ENDBRANCH  11  14
ENDBRANCH   1   8
BRANCH   4  15
ATOM     15  C   UNL     1      -1.140   1.799   0.016  0.00  0.00    +0.077 A 
ATOM     16  C   UNL     1      -1.126   2.996  -0.685  0.00  0.00    +0.030 A 
ATOM     17  C   UNL     1      -2.238   3.816  -0.677  0.00  0.00    +0.047 A 
ATOM     18  C   UNL     1      -3.370   3.446   0.033  0.00  0.00    +0.124 A 
ATOM     19  C   UNL     1      -3.390   2.250   0.735  0.00  0.00    +0.093 A 
ATOM     20  C   UNL     1      -2.279   1.423   0.725  0.00  0.00    +0.145 A 
BRANCH  20  21
ATOM     21  O   UNL     1      -2.298   0.248   1.409  0.00  0.00    -0.493 OA
ATOM     22  C   UNL     1      -3.499  -0.073   2.113  0.00  0.00    +0.277 C 
ENDBRANCH  20  21
BRANCH  18  23
ATOM     23  O   UNL     1      -4.463   4.255   0.039  0.00  0.00    -0.495 OA
ATOM     24  C   UNL     1      -4.374   5.471  -0.707  0.00  0.00    +0.277 C 
ENDBRANCH  18  23
ENDBRANCH   4  15
BRANCH   1  25
ATOM     25  C   UNL     1       2.146  -0.743   0.170  0.00  0.00    +0.152 C 
BRANCH  25  26
ATOM     26  C   UNL     1       2.103  -1.359  -1.204  0.00  0.00    +0.007 A 
ATOM     27  C   UNL     1       3.125  -1.823  -1.964  0.00  0.00    +0.013 A 
ATOM     28  C   UNL     1       2.847  -2.354  -3.209  0.00  0.00    +0.008 A 
ATOM     29  C   UNL     1       1.561  -2.394  -3.635  0.00  0.00    +0.045 A 
ATOM     30  S   UNL     1       0.692  -1.672  -2.252  0.00  0.00    -0.100 S 
ENDBRANCH  25  26
ENDBRANCH   1  25
TORSDOF 7
