REMARK  Name = ZINC18208980
REMARK  5 active torsions:
REMARK  status: ('A' for Active; 'I' for Inactive)
REMARK    1  A    between atoms: C_3  and  C_10
REMARK    2  A    between atoms: C_5  and  N_7
REMARK    3  A    between atoms: N_11  and  N_12
REMARK    4  A    between atoms: C_17  and  C_20
REMARK    5  A    between atoms: C_20  and  C_21
REMARK                            x       y       z     vdW  Elec       q    Type
REMARK                         _______ _______ _______ _____ _____    ______ ____
ROOT
ATOM      1  N   UNL     1       4.695   4.114  -0.022  0.00  0.00    -0.127 NA
ATOM      2  C   UNL     1       4.684   5.483  -0.015  0.00  0.00    +0.183 C 
ATOM      3  N   UNL     1       3.598   6.289   0.005  0.00  0.00    -0.263 N 
ATOM      4  C   UNL     1       3.687   7.612   0.011  0.00  0.00    +0.232 C 
ATOM      5  O   UNL     1       2.722   8.347   0.029  0.00  0.00    -0.274 OA
ATOM      6  C   UNL     1       5.124   8.113  -0.009  0.00  0.00    +0.144 C 
ATOM      7  S   UNL     1       6.018   6.507  -0.023  0.00  0.00    -0.075 S 
ATOM      8  H   UNL     1       2.718   5.882   0.017  0.00  0.00    +0.157 HD
ENDROOT
BRANCH   1  10
ATOM      9  C   UNL     1       3.594   2.109  -0.021  0.00  0.00    +0.143 C 
ATOM     10  N   UNL     1       3.583   3.460  -0.015  0.00  0.00    -0.155 NA
BRANCH   9  13
ATOM     11  C   UNL     1      -0.017   1.385   0.010  0.00  0.00    +0.003 A 
ATOM     12  C   UNL     1       1.151   2.090   0.002  0.00  0.00    +0.009 A 
ATOM     13  C   UNL     1       2.387   1.398  -0.013  0.00  0.00    -0.003 A 
ATOM     14  C   UNL     1       2.390  -0.018  -0.021  0.00  0.00    +0.042 A 
ATOM     15  C   UNL     1       1.207  -0.696  -0.013  0.00  0.00    +0.127 A 
ATOM     16  C   UNL     1       0.002  -0.004   0.002  0.00  0.00    +0.033 A 
BRANCH  15  17
ATOM     17  N   UNL     1       1.207  -2.176  -0.021  0.00  0.00    +0.056 N 
ATOM     18  O   UNL     1       2.347  -2.835  -0.036  0.00  0.00    -0.126 OA
ATOM     19  O   UNL     1       0.066  -2.834  -0.014  0.00  0.00    -0.126 OA
ENDBRANCH  15  17
ENDBRANCH   9  13
ENDBRANCH   1  10
BRANCH   6  20
ATOM     20  C   UNL     1       5.450   8.916   1.252  0.00  0.00    +0.059 C 
BRANCH  20  21
ATOM     21  C   UNL     1       6.837   9.494   1.135  0.00  0.00    -0.046 A 
ATOM     22  C   UNL     1       7.926   8.772   1.586  0.00  0.00    +0.005 A 
ATOM     23  C   UNL     1       9.199   9.301   1.478  0.00  0.00    +0.020 A 
ATOM     24  C   UNL     1       9.382  10.554   0.920  0.00  0.00    +0.041 A 
ATOM     25  C   UNL     1       8.291  11.276   0.469  0.00  0.00    +0.020 A 
ATOM     26  C   UNL     1       7.020  10.743   0.572  0.00  0.00    +0.005 A 
ATOM     27 CL   UNL     1      10.979  11.220   0.786  0.00  0.00    -0.084 Cl
ENDBRANCH  20  21
ENDBRANCH   6  20
TORSDOF 5
