REMARK  Name = ZINC24839863
REMARK  7 active torsions:
REMARK  status: ('A' for Active; 'I' for Inactive)
REMARK    1  A    between atoms: C_1  and  C_2
REMARK    2  A    between atoms: C_2  and  C_3
REMARK    3  A    between atoms: C_3  and  C_5
REMARK    4  A    between atoms: C_10  and  O_11
REMARK    5  A    between atoms: O_11  and  S_12
REMARK    6  A    between atoms: S_12  and  C_15
REMARK    7  A    between atoms: N_24  and  C_25
REMARK                            x       y       z     vdW  Elec       q    Type
REMARK                         _______ _______ _______ _____ _____    ______ ____
ROOT
ATOM      1  S   UNL     1       0.002  -0.004   0.002  0.00  0.00    +0.151 S 
ATOM      2  O   UNL     1      -1.243  -0.424  -0.539  0.00  0.00    -0.131 OA
ATOM      3  O   UNL     1       1.248  -0.390  -0.563  0.00  0.00    -0.131 OA
ENDROOT
BRANCH   1   4
ATOM      4  C   UNL     1      -0.022   1.758   0.012  0.00  0.00    +0.132 A 
ATOM      5  C   UNL     1       1.169   2.463   0.004  0.00  0.00    +0.033 A 
ATOM      6  C   UNL     1       1.159   3.844   0.012  0.00  0.00    +0.031 A 
ATOM      7  C   UNL     1      -0.049   4.524   0.027  0.00  0.00    +0.090 A 
ATOM      8  C   UNL     1      -1.250   3.815   0.035  0.00  0.00    +0.159 A 
ATOM      9  C   UNL     1      -1.229   2.429   0.021  0.00  0.00    +0.079 A 
ATOM     10  O   UNL     1      -2.255   4.724   0.049  0.00  0.00    -0.407 OA
ATOM     11  C   UNL     1      -1.731   5.960   0.051  0.00  0.00    +0.421 A 
ATOM     12  O   UNL     1      -2.371   6.994   0.064  0.00  0.00    -0.223 OA
ATOM     13  N   UNL     1      -0.386   5.878   0.038  0.00  0.00    -0.277 N 
ATOM     14  C   UNL     1       0.551   7.003   0.036  0.00  0.00    +0.156 C 
ENDBRANCH   1   4
BRANCH   1  15
ATOM     15  O   UNL     1       0.022  -0.462   1.453  0.00  0.00    -0.342 OA
BRANCH  15  21
ATOM     16  C   UNL     1      -1.486   0.847   2.772  0.00  0.00    +0.063 A 
ATOM     17  C   UNL     1      -2.723   0.963   3.418  0.00  0.00    +0.030 A 
ATOM     18  C   UNL     1      -3.615  -0.087   3.386  0.00  0.00    +0.019 A 
ATOM     19  C   UNL     1      -3.295  -1.257   2.713  0.00  0.00    +0.019 A 
ATOM     20  C   UNL     1      -2.082  -1.383   2.067  0.00  0.00    +0.050 A 
ATOM     21  C   UNL     1      -1.170  -0.338   2.087  0.00  0.00    +0.167 A 
ATOM     22 BR   UNL     1      -5.282   0.068   4.265  0.00  0.00    -0.050 Br
BRANCH  16  23
ATOM     23  C   UNL     1      -0.528   1.958   2.805  0.00  0.00    +0.167 C 
ATOM     24  O   UNL     1       0.540   1.855   2.240  0.00  0.00    -0.292 OA
BRANCH  23  26
ATOM     25  C   UNL     1       0.289   4.217   3.422  0.00  0.00    +0.012 C 
ATOM     26  C   UNL     1      -0.872   3.227   3.541  0.00  0.00    +0.076 C 
ENDBRANCH  23  26
ENDBRANCH  16  23
ENDBRANCH  15  21
ENDBRANCH   1  15
TORSDOF 5
