REMARK  Name = ZINC23118223
REMARK  7 active torsions:
REMARK  status: ('A' for Active; 'I' for Inactive)
REMARK    1  A    between atoms: C_1  and  C_2
REMARK    2  A    between atoms: C_2  and  C_4
REMARK    3  A    between atoms: C_2  and  N_10
REMARK    4  A    between atoms: C_11  and  C_13
REMARK    5  A    between atoms: C_13  and  N_20
REMARK    6  A    between atoms: C_14  and  C_15
REMARK    7  A    between atoms: C_21  and  C_25
REMARK                            x       y       z     vdW  Elec       q    Type
REMARK                         _______ _______ _______ _____ _____    ______ ____
ROOT
ATOM      1  C   UNL     1       2.050   2.761   0.045  0.00  0.00    +0.134 C 
ATOM      2  C   UNL     1       3.409   2.810  -0.017  0.00  0.00    +0.079 C 
ENDROOT
BRANCH   2   3
ATOM      3  C   UNL     1       4.161   1.612   0.004  0.00  0.00    +0.130 A 
ATOM      4  C   UNL     1       5.537   1.516   0.055  0.00  0.00    +0.049 A 
ATOM      5  C   UNL     1       5.842   0.147   0.059  0.00  0.00    +0.042 A 
ATOM      6  C   UNL     1       4.670  -0.524   0.012  0.00  0.00    +0.195 A 
ATOM      7  O   UNL     1       3.662   0.358  -0.015  0.00  0.00    -0.463 OA
ENDBRANCH   2   3
BRANCH   1   8
ATOM      8  N   UNL     1       1.393   1.525   0.037  0.00  0.00    -0.188 N 
ATOM      9  C   UNL     1       1.116   0.726   1.107  0.00  0.00    +0.187 A 
ATOM     10  N   UNL     1       0.489  -0.335   0.641  0.00  0.00    -0.108 NA
ATOM     11  N   UNL     1       0.355  -0.255  -0.633  0.00  0.00    -0.022 NA
ATOM     12  N   UNL     1       0.875   0.839  -1.075  0.00  0.00    -0.038 NA
BRANCH   9  13
ATOM     13  C   UNL     1       1.455   0.998   2.522  0.00  0.00    +0.021 A 
ATOM     14  C   UNL     1       1.800   2.289   2.923  0.00  0.00    +0.011 A 
ATOM     15  C   UNL     1       2.109   2.537   4.245  0.00  0.00    +0.001 A 
ATOM     16  C   UNL     1       2.089   1.507   5.168  0.00  0.00    +0.000 A 
ATOM     17  C   UNL     1       1.754   0.224   4.775  0.00  0.00    +0.001 A 
ATOM     18  C   UNL     1       1.437  -0.036   3.458  0.00  0.00    +0.011 A 
ENDBRANCH   9  13
ENDBRANCH   1   8
BRANCH   1  20
ATOM     19  N   UNL     1      -0.062   3.953   0.275  0.00  0.00    -0.304 N 
ATOM     20  C   UNL     1       1.276   4.002   0.121  0.00  0.00    +0.263 C 
ATOM     21  O   UNL     1       1.840   5.077   0.044  0.00  0.00    -0.269 OA
ATOM     22  H   UNL     1      -0.563   2.985   0.430  0.00  0.00    +0.150 HD
BRANCH  19  24
ATOM     23  C   UNL     1      -1.178   5.538  -1.216  0.00  0.00    +0.033 C 
ATOM     24  C   UNL     1      -0.850   5.187   0.237  0.00  0.00    +0.100 C 
BRANCH  24  25
ATOM     25  C   UNL     1      -2.130   4.990   1.007  0.00  0.00    -0.027 A 
ATOM     26  C   UNL     1      -2.822   3.798   0.906  0.00  0.00    +0.005 A 
ATOM     27  C   UNL     1      -3.994   3.616   1.616  0.00  0.00    +0.000 A 
ATOM     28  C   UNL     1      -4.479   4.630   2.420  0.00  0.00    +0.000 A 
ATOM     29  C   UNL     1      -3.790   5.824   2.518  0.00  0.00    +0.000 A 
ATOM     30  C   UNL     1      -2.616   6.005   1.811  0.00  0.00    +0.005 A 
ENDBRANCH  24  25
ENDBRANCH  19  24
ENDBRANCH   1  20
TORSDOF 6
