REMARK  Name = ZINC48689221
REMARK  5 active torsions:
REMARK  status: ('A' for Active; 'I' for Inactive)
REMARK    1  A    between atoms: C_1  and  C_2
REMARK    2  A    between atoms: C_5  and  N_9
REMARK    3  A    between atoms: C_10  and  C_12
REMARK    4  A    between atoms: N_14  and  C_15
REMARK    5  A    between atoms: C_21  and  C_23
REMARK                            x       y       z     vdW  Elec       q    Type
REMARK                         _______ _______ _______ _____ _____    ______ ____
ROOT
ATOM      1  N   UNL     1       0.059  -4.169  -0.023  0.00  0.00    -0.276 N 
ATOM      2  C   UNL     1      -0.040  -4.837  -1.190  0.00  0.00    +0.303 C 
ATOM      3  O   UNL     1      -0.054  -4.228  -2.239  0.00  0.00    -0.265 OA
ATOM      4  H   UNL     1       0.150  -4.658   0.809  0.00  0.00    +0.155 HD
ENDROOT
BRANCH   1   9
ATOM      5  C   UNL     1      -0.064   1.502   0.016  0.00  0.00    +0.044 C 
ATOM      6  C   UNL     1      -0.031  -0.005   0.006  0.00  0.00    -0.049 A 
ATOM      7  C   UNL     1      -0.622  -0.701  -1.033  0.00  0.00    +0.005 A 
ATOM      8  C   UNL     1      -0.594  -2.081  -1.046  0.00  0.00    +0.025 A 
ATOM      9  C   UNL     1       0.029  -2.772  -0.014  0.00  0.00    +0.052 A 
ATOM     10  C   UNL     1       0.623  -2.069   1.029  0.00  0.00    +0.062 A 
ATOM     11  C   UNL     1       0.595  -0.688   1.032  0.00  0.00    +0.025 A 
ATOM     12 CL   UNL     1       1.403  -2.927   2.321  0.00  0.00    -0.082 Cl
ENDBRANCH   1   9
BRANCH   2  13
ATOM     13  C   UNL     1      -0.133  -6.328  -1.191  0.00  0.00    +0.300 C 
ATOM     14  O   UNL     1      -0.119  -6.938  -0.141  0.00  0.00    -0.265 OA
ATOM     15  N   UNL     1      -0.232  -6.996  -2.357  0.00  0.00    -0.304 N 
ATOM     16  H   UNL     1      -0.243  -6.509  -3.196  0.00  0.00    +0.149 HD
BRANCH  15  17
ATOM     17  C   UNL     1      -0.323  -8.458  -2.358  0.00  0.00    +0.076 C 
ATOM     18  C   UNL     1       1.084  -9.057  -2.304  0.00  0.00    +0.022 C 
ATOM     19  C   UNL     1       0.989 -10.584  -2.305  0.00  0.00    +0.002 C 
ATOM     20  C   UNL     1       0.285 -11.050  -3.581  0.00  0.00    +0.000 C 
ATOM     21  C   UNL     1      -1.122 -10.451  -3.636  0.00  0.00    +0.005 C 
ATOM     22  C   UNL     1      -1.027  -8.924  -3.635  0.00  0.00    +0.006 C 
ATOM     23  C   UNL     1      -2.433  -8.326  -3.689  0.00  0.00    +0.009 C 
ENDBRANCH  15  17
ENDBRANCH   2  13
TORSDOF 3
