REMARK  Name = ZINC62507955
REMARK  5 active torsions:
REMARK  status: ('A' for Active; 'I' for Inactive)
REMARK    1  A    between atoms: C_1  and  C_2
REMARK    2  A    between atoms: C_7  and  C_14
REMARK    3  A    between atoms: C_14  and  C_15
REMARK    4  A    between atoms: C_15  and  C_16
REMARK    5  A    between atoms: N_18  and  C_19
REMARK                            x       y       z     vdW  Elec       q    Type
REMARK                         _______ _______ _______ _____ _____    ______ ____
ROOT
ATOM      1  C   UNL     1       1.561  -8.377   1.364  0.00  0.00    +0.218 C 
ATOM      2  O   UNL     1       0.523  -9.001   1.297  0.00  0.00    -0.275 OA
ATOM      3  N   UNL     1       2.733  -9.032   1.486  0.00  0.00    -0.283 N 
ATOM      4  H   UNL     1       3.568  -8.538   1.474  0.00  0.00    +0.155 HD
ENDROOT
BRANCH   3   5
ATOM      5  C   UNL     1       2.746 -10.426   1.629  0.00  0.00    +0.077 A 
ATOM      6  C   UNL     1       1.796 -11.202   0.977  0.00  0.00    +0.027 A 
ATOM      7  C   UNL     1       1.808 -12.577   1.116  0.00  0.00    +0.004 A 
ATOM      8  C   UNL     1       2.765 -13.189   1.906  0.00  0.00    +0.027 A 
ATOM      9  C   UNL     1       3.716 -12.422   2.560  0.00  0.00    +0.078 A 
ATOM     10  C   UNL     1       3.712 -11.037   2.418  0.00  0.00    +0.163 A 
ATOM     11  O   UNL     1       4.652 -10.294   3.063  0.00  0.00    -0.479 OA
ATOM     12  C   UNL     1       5.107 -10.789   4.325  0.00  0.00    +0.325 C 
ATOM     13  C   UNL     1       5.409 -12.261   4.214  0.00  0.00    +0.255 C 
ATOM     14  O   UNL     1       6.283 -12.757   4.893  0.00  0.00    -0.272 OA
ATOM     15  N   UNL     1       4.694 -13.026   3.363  0.00  0.00    -0.280 N 
ATOM     16  H   UNL     1       4.863 -13.979   3.300  0.00  0.00    +0.155 HD
ENDBRANCH   3   5
BRANCH   1  17
ATOM     17  C   UNL     1       1.541  -6.872   1.311  0.00  0.00    +0.101 C 
BRANCH  17  18
ATOM     18  C   UNL     1       0.097  -6.386   1.173  0.00  0.00    +0.050 C 
BRANCH  18  25
ATOM     19  C   UNL     1      -0.014   1.490  -0.083  0.00  0.00    +0.044 C 
ATOM     20  C   UNL     1       0.006  -0.016  -0.079  0.00  0.00    -0.048 A 
ATOM     21  C   UNL     1       0.012  -0.707  -1.283  0.00  0.00    +0.004 A 
ATOM     22  C   UNL     1       0.030  -2.072  -1.301  0.00  0.00    +0.010 A 
ATOM     23  C   UNL     1       0.043  -2.782  -0.096  0.00  0.00    -0.001 A 
ATOM     24  C   UNL     1       0.064  -4.246  -0.079  0.00  0.00    +0.019 A 
ATOM     25  C   UNL     1       0.076  -4.880   1.120  0.00  0.00    +0.018 A 
ATOM     26  C   UNL     1       0.070  -4.134   2.318  0.00  0.00    +0.252 A 
ATOM     27  O   UNL     1       0.081  -4.724   3.385  0.00  0.00    -0.268 OA
ATOM     28  N   UNL     1       0.051  -2.790   2.312  0.00  0.00    -0.322 N 
ATOM     29  H   UNL     1       0.047  -2.308   3.155  0.00  0.00    +0.169 HD
ATOM     30  C   UNL     1       0.038  -2.086   1.127  0.00  0.00    +0.049 A 
ATOM     31  C   UNL     1       0.025  -0.695   1.121  0.00  0.00    +0.029 A 
ENDBRANCH  18  25
ENDBRANCH  17  18
ENDBRANCH   1  17
TORSDOF 4
