REMARK  Name = ZINC36642648
REMARK  9 active torsions:
REMARK  status: ('A' for Active; 'I' for Inactive)
REMARK    1  A    between atoms: C_1  and  C_2
REMARK    2  A    between atoms: C_2  and  N_3
REMARK    3  A    between atoms: N_3  and  C_4
REMARK    4  A    between atoms: N_3  and  C_6
REMARK    5  A    between atoms: C_4  and  C_5
REMARK    6  A    between atoms: C_6  and  C_7
REMARK    7  A    between atoms: C_7  and  N_8
REMARK    8  A    between atoms: C_20  and  C_22
REMARK    9  A    between atoms: C_24  and  C_34
REMARK                            x       y       z     vdW  Elec       q    Type
REMARK                         _______ _______ _______ _____ _____    ______ ____
ROOT
ATOM      1  N   UNL     1      -1.298  -3.981  -1.598  0.00  0.00    -0.249 N 
ATOM      2  C   UNL     1      -1.454  -4.780  -0.476  0.00  0.00    +0.168 A 
ATOM      3  N   UNL     1      -1.499  -4.425   0.786  0.00  0.00    -0.221 NA
ATOM      4  C   UNL     1      -1.657  -5.320   1.787  0.00  0.00    +0.116 A 
ATOM      5  C   UNL     1      -1.721  -5.072   3.179  0.00  0.00    +0.152 A 
ATOM      6  C   UNL     1      -1.885  -6.104   4.069  0.00  0.00    +0.079 A 
ATOM      7  C   UNL     1      -1.993  -7.421   3.639  0.00  0.00    +0.127 A 
ATOM      8  C   UNL     1      -1.934  -7.698   2.285  0.00  0.00    +0.055 A 
ATOM      9  C   UNL     1      -1.771  -6.670   1.388  0.00  0.00    +0.046 A 
ATOM     10  S   UNL     1      -1.652  -6.553  -0.381  0.00  0.00    -0.052 S 
ATOM     11  F   UNL     1      -2.153  -8.420   4.535  0.00  0.00    -0.205 F 
ATOM     12  F   UNL     1      -1.619  -3.805   3.637  0.00  0.00    -0.203 F 
ATOM     13  C   UNL     1      -1.283  -4.539  -2.825  0.00  0.00    +0.266 C 
ATOM     14  O   UNL     1      -1.500  -5.725  -2.955  0.00  0.00    -0.271 OA
ENDROOT
BRANCH  13  15
ATOM     15  C   UNL     1      -0.995  -3.688  -4.036  0.00  0.00    +0.299 C 
ATOM     16  C   UNL     1       0.212  -4.259  -4.793  0.00  0.00    +0.220 C 
ATOM     17  O   UNL     1      -0.103  -5.595  -5.198  0.00  0.00    -0.481 OA
ATOM     18  C   UNL     1      -1.324  -5.790  -5.767  0.00  0.00    +0.163 A 
ATOM     19  C   UNL     1      -1.558  -6.944  -6.499  0.00  0.00    +0.049 A 
ATOM     20  C   UNL     1      -2.794  -7.157  -7.080  0.00  0.00    +0.004 A 
ATOM     21  C   UNL     1      -3.800  -6.221  -6.933  0.00  0.00    +0.004 A 
ATOM     22  C   UNL     1      -3.574  -5.068  -6.205  0.00  0.00    +0.049 A 
ATOM     23  C   UNL     1      -2.335  -4.847  -5.622  0.00  0.00    +0.163 A 
ATOM     24  O   UNL     1      -2.124  -3.702  -4.915  0.00  0.00    -0.472 OA
ATOM     25  C   UNL     1       1.437  -4.271  -3.877  0.00  0.00    +0.056 C 
ENDBRANCH  13  15
BRANCH   1  26
ATOM     26  C   UNL     1      -1.150  -2.531  -1.451  0.00  0.00    +0.097 C 
BRANCH  26  27
ATOM     27  C   UNL     1       0.336  -2.172  -1.409  0.00  0.00    -0.059 C 
BRANCH  27  28
ATOM     28  N   UNL     1       0.485  -0.734  -1.146  0.00  0.00    +0.380 N 
ATOM     29  H   UNL     1      -0.028  -0.210  -1.839  0.00  0.00    -0.082 HD
BRANCH  28  31
ATOM     30  C   UNL     1       0.009   1.089   0.419  0.00  0.00    -0.017 C 
ATOM     31  C   UNL     1      -0.040  -0.423   0.190  0.00  0.00    -0.082 C 
ENDBRANCH  28  31
BRANCH  28  32
ATOM     32  C   UNL     1       1.907  -0.369  -1.210  0.00  0.00    -0.082 C 
ATOM     33  C   UNL     1       2.420  -0.566  -2.639  0.00  0.00    -0.017 C 
ENDBRANCH  28  32
ENDBRANCH  27  28
ENDBRANCH  26  27
ENDBRANCH   1  26
TORSDOF 6
