REMARK  Name = ZINC58948779
REMARK  8 active torsions:
REMARK  status: ('A' for Active; 'I' for Inactive)
REMARK    1  A    between atoms: C_1  and  C_2
REMARK    2  A    between atoms: C_4  and  C_14
REMARK    3  A    between atoms: C_6  and  C_11
REMARK    4  A    between atoms: N_16  and  C_17
REMARK    5  A    between atoms: C_17  and  C_18
REMARK    6  A    between atoms: C_21  and  C_24
REMARK    7  A    between atoms: C_24  and  N_25
REMARK    8  A    between atoms: C_29  and  C_32
REMARK                            x       y       z     vdW  Elec       q    Type
REMARK                         _______ _______ _______ _____ _____    ______ ____
ROOT
ATOM      1  C   UNL     1      -0.263   0.706  -3.218  0.00  0.00    +0.245 C 
ATOM      2  O   UNL     1      -0.114   1.665  -2.487  0.00  0.00    -0.270 OA
ATOM      3  N   UNL     1      -0.487   0.890  -4.534  0.00  0.00    -0.307 N 
ATOM      4  H   UNL     1      -0.606   0.124  -5.118  0.00  0.00    +0.149 HD
ENDROOT
BRANCH   1   8
ATOM      5  C   UNL     1      -1.619   1.324  -0.385  0.00  0.00    +0.070 C 
ATOM      6  C   UNL     1      -1.320  -0.152  -0.324  0.00  0.00    +0.091 A 
ATOM      7  C   UNL     1      -0.691  -0.952  -1.374  0.00  0.00    +0.076 A 
ATOM      8  C   UNL     1      -0.200  -0.665  -2.663  0.00  0.00    +0.053 A 
ATOM      9  C   UNL     1       0.348  -1.715  -3.399  0.00  0.00    +0.037 A 
ATOM     10  C   UNL     1       0.387  -2.983  -2.841  0.00  0.00    +0.049 A 
ATOM     11  N   UNL     1      -0.080  -3.222  -1.634  0.00  0.00    -0.215 NA
ATOM     12  C   UNL     1      -0.612  -2.267  -0.886  0.00  0.00    +0.259 A 
ATOM     13  O   UNL     1      -1.147  -2.257   0.352  0.00  0.00    -0.334 OA
ATOM     14  N   UNL     1      -1.567  -0.947   0.672  0.00  0.00    -0.080 NA
BRANCH  10  15
ATOM     15  C   UNL     1       0.978  -4.118  -3.637  0.00  0.00    +0.038 C 
ATOM     16  C   UNL     1       1.154  -3.909  -5.142  0.00  0.00    +0.010 C 
ATOM     17  C   UNL     1       0.060  -4.844  -4.623  0.00  0.00    +0.010 C 
ENDBRANCH  10  15
ENDBRANCH   1   8
BRANCH   3  18
ATOM     18  C   UNL     1      -0.550   2.247  -5.083  0.00  0.00    +0.139 C 
BRANCH  18  19
ATOM     19  C   UNL     1      -0.808   2.177  -6.566  0.00  0.00    -0.030 A 
ATOM     20  C   UNL     1       0.252   2.111  -7.450  0.00  0.00    +0.005 A 
ATOM     21  C   UNL     1       0.015   2.047  -8.811  0.00  0.00    +0.002 A 
ATOM     22  C   UNL     1      -1.282   2.048  -9.287  0.00  0.00    -0.064 A 
ATOM     23  C   UNL     1      -2.343   2.113  -8.403  0.00  0.00    +0.002 A 
ATOM     24  C   UNL     1      -2.106   2.173  -7.042  0.00  0.00    +0.005 A 
BRANCH  22  25
ATOM     25  C   UNL     1      -1.541   1.979 -10.770  0.00  0.00    -0.043 C 
BRANCH  25  26
ATOM     26  N   UNL     1      -1.651   0.574 -11.183  0.00  0.00    +0.383 N 
ATOM     27  C   UNL     1      -0.364  -0.099 -10.973  0.00  0.00    -0.078 C 
ATOM     28  C   UNL     1      -0.496  -1.582 -11.325  0.00  0.00    -0.018 C 
ATOM     29  C   UNL     1      -0.911  -1.718 -12.793  0.00  0.00    -0.001 C 
ATOM     30  C   UNL     1      -2.217  -0.950 -13.017  0.00  0.00    -0.031 C 
ATOM     31  C   UNL     1      -2.021   0.510 -12.602  0.00  0.00    -0.075 C 
ATOM     32  C   UNL     1      -2.600  -1.014 -14.497  0.00  0.00    +0.005 C 
ATOM     33  H   UNL     1      -2.361   0.117 -10.631  0.00  0.00    -0.081 HD
ENDBRANCH  25  26
ENDBRANCH  22  25
ENDBRANCH  18  19
ENDBRANCH   3  18
TORSDOF 6
