REMARK  Name = ZINC45492789
REMARK  8 active torsions:
REMARK  status: ('A' for Active; 'I' for Inactive)
REMARK    1  A    between atoms: C_1  and  C_2
REMARK    2  A    between atoms: C_2  and  C_4
REMARK    3  A    between atoms: C_2  and  O_15
REMARK    4  A    between atoms: N_6  and  C_7
REMARK    5  A    between atoms: O_15  and  C_16
REMARK    6  A    between atoms: C_16  and  C_18
REMARK    7  A    between atoms: C_21  and  O_37
REMARK    8  A    between atoms: C_25  and  C_27
REMARK                            x       y       z     vdW  Elec       q    Type
REMARK                         _______ _______ _______ _____ _____    ______ ____
ROOT
ATOM      1  C   UNL     1       2.319   0.299  -3.148  0.00  0.00    +0.187 C 
ATOM      2  C   UNL     1       1.676  -0.944  -3.800  0.00  0.00    +0.066 C 
ATOM      3  C   UNL     1       2.848  -1.556  -4.612  0.00  0.00    +0.134 C 
ATOM      4  C   UNL     1       4.056  -1.255  -3.690  0.00  0.00    +0.140 C 
ATOM      5  N   UNL     1       3.772   0.077  -3.117  0.00  0.00    -0.285 N 
ATOM      6  C   UNL     1       4.689   0.944  -2.643  0.00  0.00    +0.223 C 
ATOM      7  O   UNL     1       4.333   1.987  -2.138  0.00  0.00    -0.275 OA
ENDROOT
BRANCH   6   8
ATOM      8  C   UNL     1       6.157   0.616  -2.742  0.00  0.00    +0.048 C 
ATOM      9  C   UNL     1       6.562   0.529  -4.215  0.00  0.00    +0.019 C 
ATOM     10  C   UNL     1       8.052   0.197  -4.315  0.00  0.00    -0.009 C 
ATOM     11  C   UNL     1       8.867   1.293  -3.627  0.00  0.00    +0.007 C 
ATOM     12  C   UNL     1       8.462   1.381  -2.154  0.00  0.00    -0.009 C 
ATOM     13  C   UNL     1       6.972   1.713  -2.053  0.00  0.00    +0.019 C 
ATOM     14  C   UNL     1       8.732   0.039  -1.470  0.00  0.00    +0.007 C 
ATOM     15  C   UNL     1       7.918  -1.058  -2.159  0.00  0.00    -0.009 C 
ATOM     16  C   UNL     1       8.323  -1.145  -3.631  0.00  0.00    +0.007 C 
ATOM     17  C   UNL     1       6.428  -0.726  -2.058  0.00  0.00    +0.019 C 
ENDBRANCH   6   8
BRANCH   1  18
ATOM     18  C   UNL     1       1.796   0.471  -1.746  0.00  0.00    +0.329 C 
ATOM     19  O   UNL     1       2.556   0.421  -0.807  0.00  0.00    -0.249 OA
BRANCH  18  20
ATOM     20  O   UNL     1       0.487   0.681  -1.539  0.00  0.00    -0.451 OA
BRANCH  20  22
ATOM     21  C   UNL     1       0.121   2.314   0.205  0.00  0.00    +0.062 C 
ATOM     22  C   UNL     1       0.060   0.835  -0.183  0.00  0.00    +0.259 C 
BRANCH  22  23
ATOM     23  C   UNL     1      -1.354   0.336  -0.042  0.00  0.00    +0.258 C 
ATOM     24  O   UNL     1      -1.972  -0.024  -1.022  0.00  0.00    -0.271 OA
ATOM     25  N   UNL     1      -1.934   0.289   1.174  0.00  0.00    -0.278 N 
ATOM     26  H   UNL     1      -1.416   0.500   1.967  0.00  0.00    +0.155 HD
BRANCH  25  27
ATOM     27  C   UNL     1      -3.285  -0.065   1.294  0.00  0.00    +0.105 A 
ATOM     28  C   UNL     1      -4.115   0.637   2.160  0.00  0.00    +0.147 A 
ATOM     29  C   UNL     1      -5.448   0.284   2.275  0.00  0.00    +0.040 A 
ATOM     30  C   UNL     1      -5.954  -0.765   1.530  0.00  0.00    +0.006 A 
ATOM     31  C   UNL     1      -5.131  -1.465   0.667  0.00  0.00    +0.040 A 
ATOM     32  C   UNL     1      -3.799  -1.115   0.542  0.00  0.00    +0.147 A 
ATOM     33  F   UNL     1      -2.997  -1.797  -0.305  0.00  0.00    -0.203 F 
ATOM     34  F   UNL     1      -3.621   1.662   2.888  0.00  0.00    -0.203 F 
ENDBRANCH  25  27
ENDBRANCH  22  23
ENDBRANCH  20  22
ENDBRANCH  18  20
ENDBRANCH   1  18
BRANCH   3  35
ATOM     35  O   UNL     1       2.672  -2.963  -4.784  0.00  0.00    -0.390 OA
ATOM     36  H   UNL     1       3.380  -3.390  -5.286  0.00  0.00    +0.210 HD
ENDBRANCH   3  35
TORSDOF 7
