REMARK  Name = ZINC57994865
REMARK  4 active torsions:
REMARK  status: ('A' for Active; 'I' for Inactive)
REMARK    1  A    between atoms: C_1  and  C_2
REMARK    2  A    between atoms: C_2  and  N_3
REMARK    3  A    between atoms: C_9  and  C_15
REMARK    4  A    between atoms: C_10  and  C_14
REMARK                            x       y       z     vdW  Elec       q    Type
REMARK                         _______ _______ _______ _____ _____    ______ ____
ROOT
ATOM      1  N   UNL     1      -1.188  -1.280   0.441  0.00  0.00    -0.302 NA
ATOM      2  C   UNL     1      -1.736  -0.663  -0.774  0.00  0.00    +0.088 C 
ATOM      3  C   UNL     1      -3.257  -0.834  -0.792  0.00  0.00    +0.068 C 
ATOM      4  C   UNL     1      -3.598  -2.324  -0.745  0.00  0.00    +0.146 C 
ATOM      5  C   UNL     1      -2.969  -2.961   0.495  0.00  0.00    +0.068 C 
ATOM      6  C   UNL     1      -1.457  -2.724   0.473  0.00  0.00    +0.088 C 
ATOM      7  C   UNL     1      -5.094  -2.511  -0.719  0.00  0.00    +0.067 C 
ATOM      8  C   UNL     1      -5.412  -3.218  -1.817  0.00  0.00    +0.045 C 
ATOM      9  C   UNL     1      -4.178  -3.505  -2.567  0.00  0.00    +0.336 C 
ATOM     10  O   UNL     1      -4.122  -4.128  -3.609  0.00  0.00    -0.245 OA
ATOM     11  O   UNL     1      -3.122  -2.974  -1.925  0.00  0.00    -0.450 OA
ATOM     12  C   UNL     1      -6.801  -3.647  -2.214  0.00  0.00    +0.052 C 
ENDROOT
BRANCH   7  13
ATOM     13  C   UNL     1      -6.028  -2.014   0.312  0.00  0.00    +0.247 C 
ATOM     14  O   UNL     1      -5.985  -2.465   1.439  0.00  0.00    -0.270 OA
ATOM     15  N   UNL     1      -6.928  -1.060   0.002  0.00  0.00    -0.298 N 
ATOM     16  C   UNL     1      -7.013  -0.606  -1.368  0.00  0.00    +0.108 C 
ATOM     17  C   UNL     1      -6.035   0.575  -1.585  0.00  0.00    +0.019 C 
ATOM     18  C   UNL     1      -6.526   1.779  -0.897  0.00  0.00    +0.002 C 
ATOM     19  C   UNL     1      -6.620   1.640   0.620  0.00  0.00    +0.002 C 
ATOM     20  C   UNL     1      -7.940   1.007   0.984  0.00  0.00    +0.019 C 
ATOM     21  C   UNL     1      -7.791  -0.526   1.074  0.00  0.00    +0.108 C 
ENDBRANCH   7  13
BRANCH   1  23
ATOM     22  C   UNL     1       0.472   0.488   0.777  0.00  0.00    +0.020 C 
ATOM     23  C   UNL     1       0.251  -1.011   0.565  0.00  0.00    +0.081 C 
ENDBRANCH   1  23
TORSDOF 2
