REMARK  Name = ZINC05936907
REMARK  6 active torsions:
REMARK  status: ('A' for Active; 'I' for Inactive)
REMARK    1  A    between atoms: C_4  and  N_7
REMARK    2  A    between atoms: C_8  and  C_23
REMARK    3  A    between atoms: C_11  and  S_12
REMARK    4  A    between atoms: S_12  and  C_13
REMARK    5  A    between atoms: C_13  and  C_14
REMARK    6  A    between atoms: N_16  and  N_17
REMARK                            x       y       z     vdW  Elec       q    Type
REMARK                         _______ _______ _______ _____ _____    ______ ____
ROOT
ATOM      1  N   UNL     1       3.623  -0.652  -0.037  0.00  0.00    -0.270 N 
ATOM      2  C   UNL     1       4.118  -1.453  -1.043  0.00  0.00    +0.171 A 
ATOM      3  N   UNL     1       5.290  -1.890  -0.646  0.00  0.00    -0.128 NA
ATOM      4  N   UNL     1       5.561  -1.425   0.521  0.00  0.00    -0.122 NA
ATOM      5  C   UNL     1       4.580  -0.658   0.941  0.00  0.00    +0.197 A 
ENDROOT
BRANCH   1   9
ATOM      6  C   UNL     1      -0.017   1.379   0.010  0.00  0.00    +0.000 A 
ATOM      7  C   UNL     1       1.170   2.089   0.002  0.00  0.00    +0.002 A 
ATOM      8  C   UNL     1       2.377   1.419  -0.013  0.00  0.00    +0.026 A 
ATOM      9  C   UNL     1       2.399   0.031  -0.021  0.00  0.00    +0.051 A 
ATOM     10  C   UNL     1       1.207  -0.680  -0.013  0.00  0.00    +0.026 A 
ATOM     11  C   UNL     1       0.002  -0.004   0.002  0.00  0.00    +0.002 A 
ENDBRANCH   1   9
BRANCH   2  12
ATOM     12  C   UNL     1       3.453  -1.763  -2.326  0.00  0.00    +0.038 A 
ATOM     13  C   UNL     1       3.899  -2.826  -3.121  0.00  0.00    +0.014 A 
ATOM     14  C   UNL     1       3.242  -3.074  -4.313  0.00  0.00    +0.020 A 
ATOM     15  C   UNL     1       2.176  -2.272  -4.678  0.00  0.00    +0.111 A 
ATOM     16  N   UNL     1       1.777  -1.277  -3.909  0.00  0.00    -0.263 NA
ATOM     17  C   UNL     1       2.366  -1.005  -2.763  0.00  0.00    +0.122 A 
ENDBRANCH   2  12
BRANCH   5  18
ATOM     18  S   UNL     1       4.509   0.200   2.479  0.00  0.00    -0.076 S 
BRANCH  18  19
ATOM     19  C   UNL     1       6.073  -0.227   3.292  0.00  0.00    +0.174 C 
BRANCH  19  20
ATOM     20  C   UNL     1       6.142   0.451   4.637  0.00  0.00    +0.242 C 
ATOM     21  O   UNL     1       5.226   1.153   5.009  0.00  0.00    -0.273 OA
ATOM     22  N   UNL     1       7.221   0.277   5.425  0.00  0.00    -0.206 N 
ATOM     23  H   UNL     1       7.953  -0.285   5.127  0.00  0.00    +0.177 HD
BRANCH  22  24
ATOM     24  N   UNL     1       7.285   0.907   6.675  0.00  0.00    -0.189 NA
ATOM     25  C   UNL     1       8.310   0.742   7.423  0.00  0.00    +0.037 C 
ATOM     26  C   UNL     1       9.531  -0.094   7.101  0.00  0.00    +0.052 C 
ATOM     27  C   UNL     1      10.480   0.015   8.313  0.00  0.00    +0.006 C 
ATOM     28  C   UNL     1       9.539   0.396   9.484  0.00  0.00    +0.006 C 
ATOM     29  C   UNL     1       8.529   1.352   8.796  0.00  0.00    +0.052 C 
ENDBRANCH  22  24
ENDBRANCH  19  20
ENDBRANCH  18  19
ENDBRANCH   5  18
TORSDOF 6
