REMARK  Name = ZINC55503728
REMARK  3 active torsions:
REMARK  status: ('A' for Active; 'I' for Inactive)
REMARK    1  A    between atoms: C_3  and  O_23
REMARK    2  A    between atoms: C_6  and  C_7
REMARK    3  A    between atoms: C_7  and  C_8
REMARK                            x       y       z     vdW  Elec       q    Type
REMARK                         _______ _______ _______ _____ _____    ______ ____
ROOT
ATOM      1  C   UNL     1      -1.739  -1.023  -1.407  0.00  0.00    +0.115 A 
ATOM      2  N   UNL     1      -2.894  -1.700  -1.633  0.00  0.00    -0.310 N 
ATOM      3  H   UNL     1      -3.416  -2.014  -0.879  0.00  0.00    +0.170 HD
ATOM      4  C   UNL     1      -3.330  -1.944  -2.884  0.00  0.00    +0.260 A 
ATOM      5  O   UNL     1      -4.369  -2.553  -3.072  0.00  0.00    -0.267 OA
ATOM      6  C   UNL     1      -2.548  -1.475  -3.990  0.00  0.00    +0.075 A 
ATOM      7  C   UNL     1      -2.834  -1.633  -5.426  0.00  0.00    -0.021 A 
ATOM      8  C   UNL     1      -1.943  -1.094  -6.274  0.00  0.00    +0.006 A 
ATOM      9  S   UNL     1      -0.690  -0.369  -5.239  0.00  0.00    -0.072 S 
ATOM     10  C   UNL     1      -1.375  -0.787  -3.659  0.00  0.00    +0.116 A 
ATOM     11  N   UNL     1      -1.010  -0.579  -2.396  0.00  0.00    -0.226 NA
ATOM     12  C   UNL     1      -1.932  -1.057  -7.779  0.00  0.00    +0.111 C 
ATOM     13  S   UNL     1      -3.132  -2.281  -8.391  0.00  0.00    -0.155 S 
ATOM     14  C   UNL     1      -4.532  -2.028  -7.255  0.00  0.00    +0.074 C 
ATOM     15  C   UNL     1      -4.088  -2.390  -5.844  0.00  0.00    +0.047 C 
ENDROOT
BRANCH   1  16
ATOM     16  C   UNL     1      -1.293  -0.774   0.011  0.00  0.00    +0.109 C 
BRANCH  16  22
ATOM     17  C   UNL     1      -0.017   1.378   0.010  0.00  0.00    +0.007 A 
ATOM     18  C   UNL     1       1.169   2.087   0.002  0.00  0.00    +0.045 A 
ATOM     19  C   UNL     1       2.380   1.409  -0.013  0.00  0.00    +0.117 A 
ATOM     20  C   UNL     1       2.396   0.022  -0.021  0.00  0.00    +0.045 A 
ATOM     21  C   UNL     1       1.207  -0.681  -0.013  0.00  0.00    +0.007 A 
ATOM     22  C   UNL     1       0.002  -0.004   0.002  0.00  0.00    -0.040 A 
BRANCH  19  23
ATOM     23  O   UNL     1       3.548   2.104  -0.021  0.00  0.00    -0.507 OA
ATOM     24  H   UNL     1       3.895   2.300   0.860  0.00  0.00    +0.292 HD
ENDBRANCH  19  23
ENDBRANCH  16  22
ENDBRANCH   1  16
TORSDOF 3
