REMARK  Name = ZINC50971936
REMARK  3 active torsions:
REMARK  status: ('A' for Active; 'I' for Inactive)
REMARK    1  A    between atoms: C_2  and  C_13
REMARK    2  A    between atoms: C_13  and  C_15
REMARK    3  A    between atoms: C_13  and  O_22
REMARK                            x       y       z     vdW  Elec       q    Type
REMARK                         _______ _______ _______ _____ _____    ______ ____
ROOT
ATOM      1  C   UNL     1      -0.017   1.380   0.010  0.00  0.00    +0.057 A 
ATOM      2  C   UNL     1       1.175   2.083   0.002  0.00  0.00    +0.005 A 
ATOM      3  C   UNL     1       2.382   1.406  -0.013  0.00  0.00    +0.050 A 
ATOM      4  C   UNL     1       2.404   0.021  -0.021  0.00  0.00    +0.069 A 
ATOM      5  C   UNL     1       1.212  -0.683  -0.013  0.00  0.00    +0.163 A 
ATOM      6  C   UNL     1       0.002  -0.004   0.002  0.00  0.00    +0.162 A 
ATOM      7  O   UNL     1      -1.167  -0.709   0.010  0.00  0.00    -0.488 OA
ATOM      8  C   UNL     1      -1.468  -1.433  -1.185  0.00  0.00    +0.232 C 
ATOM      9  C   UNL     1      -0.780  -2.789  -1.182  0.00  0.00    +0.082 C 
ATOM     10  C   UNL     1       0.736  -2.669  -1.212  0.00  0.00    +0.232 C 
ATOM     11  O   UNL     1       1.220  -2.048  -0.019  0.00  0.00    -0.488 OA
ATOM     12 CL   UNL     1       3.873   2.295  -0.023  0.00  0.00    -0.083 Cl
ENDROOT
BRANCH   2  13
ATOM     13  C   UNL     1       1.159   3.589   0.011  0.00  0.00    +0.175 C 
BRANCH  13  14
ATOM     14  C   UNL     1       1.294   4.093   1.449  0.00  0.00    +0.151 C 
ATOM     15  C   UNL     1       1.278   5.623   1.458  0.00  0.00    +0.034 C 
ATOM     16  C   UNL     1       1.473   6.120   2.894  0.00  0.00    +0.005 C 
ATOM     17  C   UNL     1       2.783   5.549   3.446  0.00  0.00    +0.028 C 
ATOM     18  C   UNL     1       2.740   4.021   3.361  0.00  0.00    +0.160 C 
ATOM     19  O   UNL     1       2.525   3.627   2.004  0.00  0.00    -0.374 OA
ENDBRANCH  13  14
BRANCH  13  20
ATOM     20  O   UNL     1      -0.072   4.056  -0.544  0.00  0.00    -0.385 OA
ATOM     21  H   UNL     1      -0.857   3.759  -0.064  0.00  0.00    +0.210 HD
ENDBRANCH  13  20
ENDBRANCH   2  13
TORSDOF 3
