REMARK  Name = ZINC44605719
REMARK  10 active torsions:
REMARK  status: ('A' for Active; 'I' for Inactive)
REMARK    1  A    between atoms: C_1  and  C_2
REMARK    2  A    between atoms: C_2  and  C_3
REMARK    3  A    between atoms: C_2  and  C_4
REMARK    4  A    between atoms: C_2  and  C_5
REMARK    5  A    between atoms: C_5  and  N_6
REMARK    6  A    between atoms: C_15  and  O_17
REMARK    7  A    between atoms: O_17  and  C_18
REMARK    8  A    between atoms: C_18  and  C_19
REMARK    9  A    between atoms: C_18  and  C_20
REMARK   10  A    between atoms: C_18  and  C_21
REMARK                            x       y       z     vdW  Elec       q    Type
REMARK                         _______ _______ _______ _____ _____    ______ ____
ROOT
ATOM      1  N   UNL     1       2.091   0.013  -1.270  0.00  0.00    -0.299 N 
ATOM      2  C   UNL     1       2.917  -0.299  -2.288  0.00  0.00    +0.302 C 
ATOM      3  O   UNL     1       2.553  -1.075  -3.150  0.00  0.00    -0.253 OA
ATOM      4  N   UNL     1       4.147   0.248  -2.349  0.00  0.00    -0.283 N 
ATOM      5  C   UNL     1       4.647   1.091  -1.254  0.00  0.00    +0.128 C 
ATOM      6  C   UNL     1       5.981   0.516  -0.763  0.00  0.00    +0.130 C 
ATOM      7  N   UNL     1       6.848   0.280  -1.926  0.00  0.00    -0.264 N 
ATOM      8  C   UNL     1       6.348  -0.563  -3.022  0.00  0.00    +0.130 C 
ATOM      9  C   UNL     1       5.016   0.007  -3.510  0.00  0.00    +0.128 C 
ATOM     10  C   UNL     1       8.078   0.827  -1.988  0.00  0.00    +0.403 C 
ATOM     11  O   UNL     1       8.480   1.523  -1.076  0.00  0.00    -0.226 OA
ATOM     12  H   UNL     1       2.406   0.574  -0.544  0.00  0.00    +0.150 HD
ENDROOT
BRANCH   1  13
ATOM     13  C   UNL     1       0.717  -0.494  -1.259  0.00  0.00    +0.111 C 
BRANCH  13  15
ATOM     14  C   UNL     1      -0.023   1.533  -0.001  0.00  0.00    +0.012 C 
ATOM     15  C   UNL     1      -0.002   0.003  -0.004  0.00  0.00    -0.022 C 
ATOM     16  C   UNL     1       0.737  -0.498   1.239  0.00  0.00    +0.012 C 
ATOM     17  C   UNL     1      -1.437  -0.527   0.007  0.00  0.00    +0.012 C 
ENDBRANCH  13  15
ENDBRANCH   1  13
BRANCH  10  18
ATOM     18  O   UNL     1       8.861   0.603  -3.059  0.00  0.00    -0.445 OA
BRANCH  18  19
ATOM     19  C   UNL     1      10.153   1.214  -3.058  0.00  0.00    +0.107 C 
ATOM     20  C   UNL     1      10.952   0.715  -1.853  0.00  0.00    +0.055 C 
ATOM     21  C   UNL     1      10.892   0.848  -4.347  0.00  0.00    +0.055 C 
ATOM     22  C   UNL     1       9.998   2.734  -2.973  0.00  0.00    +0.055 C 
ENDBRANCH  18  19
ENDBRANCH  10  18
TORSDOF 4
