REMARK  Name = ZINC67373060
REMARK  8 active torsions:
REMARK  status: ('A' for Active; 'I' for Inactive)
REMARK    1  A    between atoms: C_1  and  C_2
REMARK    2  A    between atoms: C_2  and  C_3
REMARK    3  A    between atoms: C_2  and  C_4
REMARK    4  A    between atoms: C_2  and  N_5
REMARK    5  A    between atoms: N_14  and  C_15
REMARK    6  A    between atoms: C_15  and  C_16
REMARK    7  A    between atoms: C_16  and  C_18
REMARK    8  A    between atoms: C_16  and  O_28
REMARK                            x       y       z     vdW  Elec       q    Type
REMARK                         _______ _______ _______ _____ _____    ______ ____
ROOT
ATOM      1  N   UNL     1       0.688  -0.476  -1.203  0.00  0.00    -0.243 N 
ATOM      2  C   UNL     1       0.891  -1.766  -1.550  0.00  0.00    +0.137 A 
ATOM      3  C   UNL     1       1.578  -1.758  -2.760  0.00  0.00    +0.031 A 
ATOM      4  C   UNL     1       1.779  -0.443  -3.128  0.00  0.00    +0.141 A 
ATOM      5  N   UNL     1       1.246   0.330  -2.208  0.00  0.00    -0.177 NA
ATOM      6  C   UNL     1       1.972  -3.047  -3.441  0.00  0.00    +0.144 C 
ATOM      7  N   UNL     1       2.001  -4.078  -2.387  0.00  0.00    -0.314 N 
ATOM      8  C   UNL     1       1.083  -4.054  -1.369  0.00  0.00    +0.160 C 
ATOM      9  N   UNL     1       0.546  -2.931  -0.932  0.00  0.00    -0.316 N 
ATOM     10  N   UNL     1       0.710  -5.238  -0.784  0.00  0.00    -0.316 N 
ATOM     11  H   UNL     1       2.674  -4.777  -2.414  0.00  0.00    +0.149 HD
ATOM     12  H   UNL     1       0.062  -5.240  -0.062  0.00  0.00    +0.149 HD
ATOM     13  H   UNL     1      -0.079  -2.934  -0.191  0.00  0.00    +0.170 HD
ENDROOT
BRANCH   1  15
ATOM     14  C   UNL     1      -0.019   1.526   0.010  0.00  0.00    +0.036 C 
ATOM     15  C   UNL     1       0.002  -0.004   0.002  0.00  0.00    +0.057 C 
ATOM     16  C   UNL     1       0.742  -0.511   1.242  0.00  0.00    +0.036 C 
ATOM     17  C   UNL     1      -1.433  -0.534   0.013  0.00  0.00    +0.036 C 
ENDBRANCH   1  15
BRANCH  10  18
ATOM     18  C   UNL     1       1.291  -6.500  -1.249  0.00  0.00    +0.140 C 
BRANCH  18  19
ATOM     19  C   UNL     1       0.711  -7.659  -0.437  0.00  0.00    +0.162 C 
BRANCH  19  20
ATOM     20  C   UNL     1       1.309  -8.957  -0.916  0.00  0.00    -0.017 A 
ATOM     21  C   UNL     1       2.530  -9.383  -0.397  0.00  0.00    +0.007 A 
ATOM     22  C   UNL     1       3.098 -10.549  -0.808  0.00  0.00    +0.009 A 
ATOM     23  C   UNL     1       2.445 -11.339  -1.770  0.00  0.00    -0.018 A 
ATOM     24  C   UNL     1       2.999 -12.550  -2.218  0.00  0.00    +0.008 A 
ATOM     25  C   UNL     1       2.338 -13.289  -3.151  0.00  0.00    +0.001 A 
ATOM     26  C   UNL     1       1.117 -12.864  -3.669  0.00  0.00    +0.001 A 
ATOM     27  C   UNL     1       0.549 -11.697  -3.258  0.00  0.00    +0.008 A 
ATOM     28  C   UNL     1       1.203 -10.907  -2.297  0.00  0.00    -0.018 A 
ATOM     29  C   UNL     1       0.645  -9.698  -1.844  0.00  0.00    +0.014 A 
ENDBRANCH  19  20
BRANCH  19  30
ATOM     30  O   UNL     1       1.020  -7.474   0.946  0.00  0.00    -0.386 OA
ATOM     31  H   UNL     1       1.968  -7.439   1.136  0.00  0.00    +0.210 HD
ENDBRANCH  19  30
ENDBRANCH  18  19
ENDBRANCH  10  18
TORSDOF 5
