REMARK  Name = ZINC48440234
REMARK  2 active torsions:
REMARK  status: ('A' for Active; 'I' for Inactive)
REMARK    1  A    between atoms: C_9  and  S_10
REMARK    2  A    between atoms: S_10  and  N_13
REMARK                            x       y       z     vdW  Elec       q    Type
REMARK                         _______ _______ _______ _____ _____    ______ ____
ROOT
ATOM      1  C   UNL     1      -0.016   1.356   0.009  0.00  0.00    +0.005 A 
ATOM      2  C   UNL     1       1.194   2.068   0.002  0.00  0.00    +0.018 A 
ATOM      3  C   UNL     1       2.372   1.409  -0.013  0.00  0.00    +0.094 A 
ATOM      4  N   UNL     1       2.405   0.045  -0.022  0.00  0.00    -0.283 N 
ATOM      5  C   UNL     1       1.240  -0.677  -0.014  0.00  0.00    +0.141 A 
ATOM      6  C   UNL     1       0.002  -0.004   0.002  0.00  0.00    +0.047 A 
ATOM      7  N   UNL     1       1.555  -1.965  -0.024  0.00  0.00    -0.214 NA
ATOM      8  C   UNL     1       2.884  -2.091  -0.039  0.00  0.00    +0.175 A 
ATOM      9  C   UNL     1       3.435  -0.856  -0.037  0.00  0.00    +0.218 A 
ATOM     10 CL   UNL     1       3.760  -3.591  -0.056  0.00  0.00    -0.058 Cl
ENDROOT
BRANCH   9  11
ATOM     11  S   UNL     1       5.156  -0.478  -0.053  0.00  0.00    +0.080 S 
ATOM     12  O   UNL     1       5.814  -1.604  -0.617  0.00  0.00    -0.151 OA
ATOM     13  O   UNL     1       5.279   0.829  -0.598  0.00  0.00    -0.151 OA
BRANCH  11  14
ATOM     14  N   UNL     1       5.650  -0.381   1.524  0.00  0.00    -0.174 NA
ATOM     15  C   UNL     1       5.604   0.857   2.244  0.00  0.00    +0.110 C 
ATOM     16  C   UNL     1       6.754   1.812   1.858  0.00  0.00    +0.028 C 
ATOM     17  C   UNL     1       8.101   1.065   1.672  0.00  0.00    +0.070 C 
ATOM     18  S   UNL     1       8.390  -0.196   2.908  0.00  0.00    -0.159 S 
ATOM     19  C   UNL     1       7.600  -1.675   2.174  0.00  0.00    +0.086 C 
ATOM     20  C   UNL     1       6.154  -1.578   2.250  0.00  0.00    +0.120 C 
ENDBRANCH  11  14
ENDBRANCH   9  11
TORSDOF 2
