REMARK  Name = ZINC10953625
REMARK  5 active torsions:
REMARK  status: ('A' for Active; 'I' for Inactive)
REMARK    1  A    between atoms: C_1  and  C_2
REMARK    2  A    between atoms: C_4  and  C_14
REMARK    3  A    between atoms: C_14  and  O_16
REMARK    4  A    between atoms: O_16  and  C_17
REMARK    5  A    between atoms: C_17  and  C_18
REMARK                            x       y       z     vdW  Elec       q    Type
REMARK                         _______ _______ _______ _____ _____    ______ ____
ROOT
ATOM      1  O   UNL     1      -3.966   7.095  -0.247  0.00  0.00    -0.457 OA
ENDROOT
BRANCH   1   2
ATOM      2  C   UNL     1      -3.727   5.813   0.073  0.00  0.00    +0.352 C 
ATOM      3  O   UNL     1      -4.556   5.177   0.680  0.00  0.00    -0.246 OA
BRANCH   2   6
ATOM      4  C   UNL     1      -1.209   7.332   0.026  0.00  0.00    +0.056 C 
ATOM      5  C   UNL     1      -1.263   5.852   0.411  0.00  0.00    +0.222 C 
ATOM      6  C   UNL     1      -2.424   5.168  -0.324  0.00  0.00    +0.321 C 
ATOM      7  O   UNL     1      -2.437   3.785   0.048  0.00  0.00    -0.470 OA
ATOM      8  C   UNL     1      -1.241   3.136   0.030  0.00  0.00    +0.163 A 
ATOM      9  C   UNL     1      -1.219   1.749   0.017  0.00  0.00    +0.049 A 
ATOM     10  C   UNL     1      -0.013   1.076   0.008  0.00  0.00    +0.004 A 
ATOM     11  C   UNL     1       1.176   1.782   0.000  0.00  0.00    +0.004 A 
ATOM     12  C   UNL     1       1.161   3.164   0.007  0.00  0.00    +0.049 A 
ATOM     13  C   UNL     1      -0.046   3.846   0.021  0.00  0.00    +0.163 A 
ATOM     14  O   UNL     1      -0.045   5.207   0.022  0.00  0.00    -0.481 OA
ENDBRANCH   2   6
ENDBRANCH   1   2
BRANCH   1  15
ATOM     15  C   UNL     1      -5.242   7.650   0.167  0.00  0.00    +0.268 C 
BRANCH  15  16
ATOM     16  C   UNL     1      -5.332   9.088  -0.277  0.00  0.00    +0.007 A 
ATOM     17  C   UNL     1      -4.310   9.674  -0.951  0.00  0.00    +0.099 A 
ATOM     18  C   UNL     1      -4.422  11.020  -1.362  0.00  0.00    +0.338 A 
ATOM     19  O   UNL     1      -3.501  11.533  -1.971  0.00  0.00    -0.245 OA
ATOM     20  O   UNL     1      -5.515  11.751  -1.092  0.00  0.00    -0.422 OA
ATOM     21  C   UNL     1      -6.563  11.230  -0.420  0.00  0.00    +0.140 A 
ATOM     22  C   UNL     1      -6.522   9.893   0.013  0.00  0.00    +0.024 A 
ATOM     23  C   UNL     1      -7.607   9.350   0.709  0.00  0.00    +0.013 A 
ATOM     24  C   UNL     1      -8.704  10.125   0.965  0.00  0.00    +0.016 A 
ATOM     25  C   UNL     1      -8.748  11.445   0.539  0.00  0.00    +0.021 A 
ATOM     26  C   UNL     1      -7.687  11.999  -0.150  0.00  0.00    +0.062 A 
ATOM     27 BR   UNL     1     -10.277  12.496   0.905  0.00  0.00    -0.050 Br
ENDBRANCH  15  16
ENDBRANCH   1  15
TORSDOF 4
