REMARK  Name = ZINC25465712
REMARK  8 active torsions:
REMARK  status: ('A' for Active; 'I' for Inactive)
REMARK    1  A    between atoms: C_1  and  C_2
REMARK    2  A    between atoms: C_6  and  C_28
REMARK    3  A    between atoms: C_7  and  C_13
REMARK    4  A    between atoms: C_13  and  C_14
REMARK    5  A    between atoms: C_14  and  C_15
REMARK    6  A    between atoms: C_23  and  C_25
REMARK    7  A    between atoms: C_25  and  C_26
REMARK    8  A    between atoms: C_25  and  C_27
REMARK                            x       y       z     vdW  Elec       q    Type
REMARK                         _______ _______ _______ _____ _____    ______ ____
ROOT
ATOM      1  C   UNL     1       7.022  -1.666  -0.009  0.00  0.00    +0.052 C 
ENDROOT
BRANCH   1   8
ATOM      2  C   UNL     1       2.438   4.854  -0.220  0.00  0.00    +0.044 C 
ATOM      3  C   UNL     1       3.484   3.772  -0.138  0.00  0.00    -0.047 A 
ATOM      4  C   UNL     1       4.811   4.115   0.082  0.00  0.00    +0.004 A 
ATOM      5  C   UNL     1       5.774   3.148   0.153  0.00  0.00    +0.012 A 
ATOM      6  C   UNL     1       5.420   1.804   0.005  0.00  0.00    +0.021 A 
ATOM      7  C   UNL     1       6.430   0.743   0.077  0.00  0.00    -0.030 A 
ATOM      8  C   UNL     1       6.021  -0.542  -0.075  0.00  0.00    +0.041 A 
ATOM      9  C   UNL     1       4.655  -0.822  -0.296  0.00  0.00    +0.341 A 
ATOM     10  O   UNL     1       4.301  -1.980  -0.431  0.00  0.00    -0.245 OA
ATOM     11  O   UNL     1       3.737   0.154  -0.361  0.00  0.00    -0.422 OA
ATOM     12  C   UNL     1       4.077   1.452  -0.217  0.00  0.00    +0.140 A 
ATOM     13  C   UNL     1       3.115   2.452  -0.287  0.00  0.00    +0.050 A 
ATOM     14  C   UNL     1       7.881   1.071   0.314  0.00  0.00    +0.045 C 
ENDBRANCH   1   8
BRANCH   1  15
ATOM     15  C   UNL     1       7.152  -2.149   1.438  0.00  0.00    +0.101 C 
BRANCH  15  16
ATOM     16  C   UNL     1       8.153  -3.273   1.504  0.00  0.00    +0.216 C 
ATOM     17  O   UNL     1       8.708  -3.651   0.494  0.00  0.00    -0.276 OA
ATOM     18  N   UNL     1       8.431  -3.858   2.686  0.00  0.00    -0.298 N 
ATOM     19  C   UNL     1       7.770  -3.407   3.918  0.00  0.00    +0.126 C 
ATOM     20  C   UNL     1       7.090  -4.619   4.577  0.00  0.00    +0.126 C 
ATOM     21  N   UNL     1       8.064  -5.716   4.657  0.00  0.00    -0.298 N 
ATOM     22  C   UNL     1       8.729  -6.165   3.425  0.00  0.00    +0.126 C 
ATOM     23  C   UNL     1       9.405  -4.956   2.766  0.00  0.00    +0.126 C 
ATOM     24  C   UNL     1       8.342  -6.302   5.838  0.00  0.00    +0.218 C 
ATOM     25  O   UNL     1       9.077  -7.266   5.879  0.00  0.00    -0.275 OA
BRANCH  24  26
ATOM     26  C   UNL     1       7.740  -5.759   7.109  0.00  0.00    +0.069 C 
ATOM     27  C   UNL     1       6.348  -6.359   7.311  0.00  0.00    +0.017 C 
ATOM     28  C   UNL     1       8.633  -6.129   8.295  0.00  0.00    +0.017 C 
ENDBRANCH  24  26
ENDBRANCH  15  16
ENDBRANCH   1  15
TORSDOF 4
