REMARK  Name = ZINC39947163
REMARK  8 active torsions:
REMARK  status: ('A' for Active; 'I' for Inactive)
REMARK    1  A    between atoms: C_1  and  C_2
REMARK    2  A    between atoms: C_2  and  C_4
REMARK    3  A    between atoms: C_2  and  N_10
REMARK    4  A    between atoms: C_11  and  C_13
REMARK    5  A    between atoms: C_13  and  S_14
REMARK    6  A    between atoms: S_14  and  C_15
REMARK    7  A    between atoms: C_19  and  C_24
REMARK    8  A    between atoms: N_20  and  C_21
REMARK                            x       y       z     vdW  Elec       q    Type
REMARK                         _______ _______ _______ _____ _____    ______ ____
ROOT
ATOM      1  C   UNL     1      -5.785  -1.936   2.775  0.00  0.00    +0.237 C 
ATOM      2  N   UNL     1      -6.720  -1.117   1.986  0.00  0.00    -0.237 N 
ATOM      3  N   UNL     1      -6.982  -1.832   0.812  0.00  0.00    -0.169 NA
ATOM      4  C   UNL     1      -6.332  -2.966   0.791  0.00  0.00    +0.147 C 
ATOM      5  N   UNL     1      -5.564  -3.135   1.951  0.00  0.00    -0.282 N 
ATOM      6  H   UNL     1      -7.084  -0.252   2.232  0.00  0.00    +0.171 HD
ENDROOT
BRANCH   4   7
ATOM      7  C   UNL     1      -6.396  -3.896  -0.257  0.00  0.00    +0.022 C 
ATOM      8  C   UNL     1      -7.058  -3.748  -1.476  0.00  0.00    +0.006 A 
ATOM      9  C   UNL     1      -7.824  -2.698  -2.024  0.00  0.00    +0.010 A 
ATOM     10  C   UNL     1      -8.362  -2.831  -3.264  0.00  0.00    +0.001 A 
ATOM     11  C   UNL     1      -8.175  -3.990  -4.021  0.00  0.00    +0.002 A 
ATOM     12  C   UNL     1      -7.450  -5.038  -3.558  0.00  0.00    +0.026 A 
ATOM     13  C   UNL     1      -6.858  -4.972  -2.270  0.00  0.00    +0.043 A 
ATOM     14  N   UNL     1      -6.120  -5.839  -1.604  0.00  0.00    -0.380 N 
ATOM     15  C   UNL     1      -5.756  -5.266  -0.304  0.00  0.00    +0.152 C 
ATOM     16  H   UNL     1      -5.857  -6.715  -1.925  0.00  0.00    +0.160 HD
ENDBRANCH   4   7
BRANCH   5  17
ATOM     17  C   UNL     1      -4.709  -4.278   2.279  0.00  0.00    +0.078 C 
ATOM     18  C   UNL     1      -4.035  -4.285   3.653  0.00  0.00    +0.024 C 
ATOM     19  C   UNL     1      -3.205  -4.025   2.394  0.00  0.00    +0.024 C 
ENDBRANCH   5  17
BRANCH   1  20
ATOM     20  S   UNL     1      -4.226  -1.047   3.034  0.00  0.00    -0.109 S 
BRANCH  20  21
ATOM     21  C   UNL     1      -3.654  -0.665   1.355  0.00  0.00    +0.168 C 
BRANCH  21  23
ATOM     22  N   UNL     1      -1.732   0.473   0.293  0.00  0.00    -0.308 N 
ATOM     23  C   UNL     1      -2.348   0.083   1.427  0.00  0.00    +0.223 C 
ATOM     24  O   UNL     1      -1.852   0.335   2.504  0.00  0.00    -0.275 OA
ATOM     25  H   UNL     1      -2.129   0.272  -0.569  0.00  0.00    +0.149 HD
BRANCH  22  27
ATOM     26  C   UNL     1      -0.740   2.694   0.552  0.00  0.00    +0.033 C 
ATOM     27  C   UNL     1      -0.463   1.201   0.363  0.00  0.00    +0.100 C 
BRANCH  27  28
ATOM     28  C   UNL     1       0.307   0.992  -0.916  0.00  0.00    -0.027 A 
ATOM     29  C   UNL     1      -0.355   0.992  -2.129  0.00  0.00    +0.005 A 
ATOM     30  C   UNL     1       0.352   0.800  -3.302  0.00  0.00    +0.000 A 
ATOM     31  C   UNL     1       1.720   0.607  -3.261  0.00  0.00    +0.000 A 
ATOM     32  C   UNL     1       2.382   0.607  -2.047  0.00  0.00    +0.000 A 
ATOM     33  C   UNL     1       1.676   0.804  -0.875  0.00  0.00    +0.005 A 
ENDBRANCH  27  28
ENDBRANCH  22  27
ENDBRANCH  21  23
ENDBRANCH  20  21
ENDBRANCH   1  20
TORSDOF 7
