REMARK  Name = ZINC57575472
REMARK  6 active torsions:
REMARK  status: ('A' for Active; 'I' for Inactive)
REMARK    1  A    between atoms: C_1  and  C_2
REMARK    2  A    between atoms: C_4  and  C_20
REMARK    3  A    between atoms: C_5  and  S_9
REMARK    4  A    between atoms: C_6  and  C_8
REMARK    5  A    between atoms: S_9  and  N_12
REMARK    6  A    between atoms: C_16  and  C_18
REMARK                            x       y       z     vdW  Elec       q    Type
REMARK                         _______ _______ _______ _____ _____    ______ ____
ROOT
ATOM      1  S   UNL     1       0.948  -4.367   0.110  0.00  0.00    +0.062 S 
ATOM      2  O   UNL     1       1.624  -4.633  -1.112  0.00  0.00    -0.153 OA
ATOM      3  O   UNL     1       1.580  -4.501   1.375  0.00  0.00    -0.153 OA
ENDROOT
BRANCH   1   8
ATOM      4  C   UNL     1      -1.052   1.316  -0.229  0.00  0.00    +0.044 C 
ATOM      5  C   UNL     1      -0.552  -0.104  -0.144  0.00  0.00    -0.050 A 
ATOM      6  C   UNL     1      -0.209  -0.785  -1.297  0.00  0.00    +0.008 A 
ATOM      7  C   UNL     1       0.249  -2.087  -1.219  0.00  0.00    -0.024 A 
ATOM      8  C   UNL     1       0.365  -2.707   0.011  0.00  0.00    +0.111 A 
ATOM      9  C   UNL     1       0.022  -2.025   1.163  0.00  0.00    -0.024 A 
ATOM     10  C   UNL     1      -0.432  -0.722   1.086  0.00  0.00    +0.008 A 
ATOM     11  C   UNL     1       0.147  -2.701   2.504  0.00  0.00    +0.046 C 
ATOM     12  C   UNL     1       0.623  -2.831  -2.476  0.00  0.00    +0.046 C 
ENDBRANCH   1   8
BRANCH   1  13
ATOM     13  N   UNL     1      -0.383  -5.352   0.139  0.00  0.00    -0.160 NA
ATOM     14  C   UNL     1      -1.020  -5.900   1.350  0.00  0.00    +0.111 C 
ATOM     15  C   UNL     1      -2.483  -6.191   0.931  0.00  0.00    +0.020 C 
ATOM     16  C   UNL     1      -2.296  -6.689  -0.526  0.00  0.00    +0.037 C 
ATOM     17  C   UNL     1      -1.128  -5.821  -1.039  0.00  0.00    +0.182 C 
BRANCH  17  18
ATOM     18  C   UNL     1      -1.650  -4.669  -1.792  0.00  0.00    +0.083 C 
ATOM     19  N   UNL     1      -2.053  -3.780  -2.373  0.00  0.00    -0.195 NA
ENDBRANCH  17  18
ENDBRANCH   1  13
TORSDOF 3
