REMARK  Name = ZINC01957748
REMARK  9 active torsions:
REMARK  status: ('A' for Active; 'I' for Inactive)
REMARK    1  A    between atoms: C_1  and  C_2
REMARK    2  A    between atoms: C_2  and  C_3
REMARK    3  A    between atoms: C_2  and  C_4
REMARK    4  A    between atoms: C_2  and  C_5
REMARK    5  A    between atoms: C_8  and  C_11
REMARK    6  A    between atoms: N_12  and  N_13
REMARK    7  A    between atoms: C_14  and  C_16
REMARK    8  A    between atoms: N_19  and  C_25
REMARK    9  A    between atoms: C_20  and  C_21
REMARK                            x       y       z     vdW  Elec       q    Type
REMARK                         _______ _______ _______ _____ _____    ______ ____
ROOT
ATOM      1  N   UNL     1       1.885   8.018   0.566  0.00  0.00    -0.203 N 
ATOM      2  C   UNL     1       2.365   6.798   0.879  0.00  0.00    +0.267 C 
ATOM      3  O   UNL     1       3.366   6.695   1.564  0.00  0.00    -0.268 OA
ATOM      4  H   UNL     1       1.088   8.099   0.020  0.00  0.00    +0.178 HD
ENDROOT
BRANCH   2   5
ATOM      5  C   UNL     1       1.679   5.588   0.392  0.00  0.00    +0.088 A 
ATOM      6  C   UNL     1       0.514   5.549  -0.407  0.00  0.00    +0.148 A 
ATOM      7  N   UNL     1       0.220   4.298  -0.633  0.00  0.00    -0.174 NA
ATOM      8  N   UNL     1       1.161   3.487   0.010  0.00  0.00    -0.227 N 
ATOM      9  C   UNL     1       2.053   4.281   0.632  0.00  0.00    +0.159 A 
BRANCH   8  10
ATOM     10  C   UNL     1       1.177   2.086   0.002  0.00  0.00    +0.066 A 
ATOM     11  C   UNL     1      -0.017   1.377   0.010  0.00  0.00    +0.028 A 
ATOM     12  C   UNL     1       0.002  -0.004   0.002  0.00  0.00    +0.002 A 
ATOM     13  C   UNL     1       1.208  -0.680  -0.013  0.00  0.00    +0.000 A 
ATOM     14  C   UNL     1       2.398   0.023  -0.021  0.00  0.00    +0.002 A 
ATOM     15  C   UNL     1       2.386   1.404  -0.013  0.00  0.00    +0.028 A 
ENDBRANCH   8  10
BRANCH   9  16
ATOM     16  C   UNL     1       3.240   3.826   1.440  0.00  0.00    +0.435 C 
ATOM     17  F   UNL     1       4.354   3.700   0.603  0.00  0.00    -0.164 F 
ATOM     18  F   UNL     1       3.512   4.767   2.439  0.00  0.00    -0.164 F 
ATOM     19  F   UNL     1       2.957   2.589   2.030  0.00  0.00    -0.164 F 
ENDBRANCH   9  16
ENDBRANCH   2   5
BRANCH   1  21
ATOM     20  C   UNL     1       2.076  10.342   0.728  0.00  0.00    +0.138 C 
ATOM     21  N   UNL     1       2.538   9.167   1.029  0.00  0.00    -0.187 NA
BRANCH  20  25
ATOM     22  C   UNL     1       4.054  13.825   2.131  0.00  0.00    -0.042 A 
ATOM     23  C   UNL     1       2.917  13.946   1.352  0.00  0.00    +0.005 A 
ATOM     24  C   UNL     1       2.269  12.818   0.892  0.00  0.00    +0.010 A 
ATOM     25  C   UNL     1       2.764  11.552   1.215  0.00  0.00    -0.005 A 
ATOM     26  C   UNL     1       3.909  11.438   2.006  0.00  0.00    +0.010 A 
ATOM     27  C   UNL     1       4.550  12.575   2.454  0.00  0.00    +0.005 A 
BRANCH  22  29
ATOM     28  C   UNL     1       3.797  15.879   3.496  0.00  0.00    +0.015 C 
ATOM     29  C   UNL     1       4.757  15.062   2.629  0.00  0.00    -0.013 C 
ATOM     30  C   UNL     1       5.976  14.657   3.459  0.00  0.00    +0.015 C 
ATOM     31  C   UNL     1       5.210  15.906   1.436  0.00  0.00    +0.015 C 
ENDBRANCH  22  29
ENDBRANCH  20  25
ENDBRANCH   1  21
TORSDOF 6
