REMARK  Name = ZINC40262019
REMARK  5 active torsions:
REMARK  status: ('A' for Active; 'I' for Inactive)
REMARK    1  A    between atoms: C_1  and  C_2
REMARK    2  A    between atoms: C_6  and  C_7
REMARK    3  A    between atoms: C_7  and  C_9
REMARK    4  A    between atoms: C_7  and  O_20
REMARK    5  A    between atoms: C_16  and  C_19
REMARK                            x       y       z     vdW  Elec       q    Type
REMARK                         _______ _______ _______ _____ _____    ______ ____
ROOT
ATOM      1  C   UNL     1      -1.334  -0.584   3.118  0.00  0.00    -0.011 A 
ATOM      2  C   UNL     1      -1.667  -1.816   3.649  0.00  0.00    +0.010 A 
ATOM      3  C   UNL     1      -2.912  -2.022   4.204  0.00  0.00    +0.046 A 
ATOM      4  C   UNL     1      -3.847  -0.990   4.234  0.00  0.00    +0.124 A 
ATOM      5  C   UNL     1      -3.503   0.241   3.691  0.00  0.00    -0.002 A 
ATOM      6  C   UNL     1      -2.256   0.448   3.146  0.00  0.00    +0.014 A 
ATOM      7  C   UNL     1      -4.711   1.146   3.843  0.00  0.00    +0.083 C 
ATOM      8  C   UNL     1      -5.834   0.131   4.162  0.00  0.00    +0.175 C 
ATOM      9  O   UNL     1      -5.112  -0.972   4.737  0.00  0.00    -0.488 OA
ATOM     10  C   UNL     1      -6.556  -0.297   2.883  0.00  0.00    +0.052 C 
ENDROOT
BRANCH   1  11
ATOM     11  C   UNL     1       0.030  -0.363   2.516  0.00  0.00    +0.210 C 
BRANCH  11  17
ATOM     12  C   UNL     1      -0.018   1.503   0.010  0.00  0.00    +0.047 C 
ATOM     13  C   UNL     1       0.002  -0.004   0.002  0.00  0.00    -0.007 A 
ATOM     14  C   UNL     1       0.009  -0.840  -1.138  0.00  0.00    +0.045 A 
ATOM     15  C   UNL     1       0.029  -2.109  -0.691  0.00  0.00    +0.195 A 
ATOM     16  O   UNL     1       0.034  -2.085   0.652  0.00  0.00    -0.465 OA
ATOM     17  C   UNL     1       0.023  -0.811   1.078  0.00  0.00    +0.140 A 
ENDBRANCH  11  17
BRANCH  11  18
ATOM     18  O   UNL     1       1.000  -1.117   3.246  0.00  0.00    -0.379 OA
ATOM     19  H   UNL     1       0.839  -2.070   3.245  0.00  0.00    +0.211 HD
ENDBRANCH  11  18
ENDBRANCH   1  11
TORSDOF 3
