REMARK  Name = ZINC35841574
REMARK  9 active torsions:
REMARK  status: ('A' for Active; 'I' for Inactive)
REMARK    1  A    between atoms: C_1  and  C_2
REMARK    2  A    between atoms: C_2  and  N_3
REMARK    3  A    between atoms: N_3  and  C_4
REMARK    4  A    between atoms: C_4  and  C_5
REMARK    5  A    between atoms: C_11  and  C_13
REMARK    6  A    between atoms: C_16  and  C_18
REMARK    7  A    between atoms: C_18  and  N_19
REMARK    8  A    between atoms: N_22  and  C_25
REMARK    9  A    between atoms: C_25  and  C_26
REMARK                            x       y       z     vdW  Elec       q    Type
REMARK                         _______ _______ _______ _____ _____    ______ ____
ROOT
ATOM      1  C   UNL     1       2.769  -0.531  -0.130  0.00  0.00    +0.164 A 
ATOM      2  C   UNL     1       4.061  -0.874  -0.384  0.00  0.00    +0.230 A 
ATOM      3  O   UNL     1       4.341  -0.452  -1.627  0.00  0.00    -0.449 OA
ATOM      4  C   UNL     1       3.245   0.139  -2.126  0.00  0.00    +0.179 A 
ATOM      5  N   UNL     1       2.295   0.094  -1.242  0.00  0.00    -0.210 NA
ENDROOT
BRANCH   1   7
ATOM      6  N   UNL     1       0.709  -0.496   1.186  0.00  0.00    -0.292 N 
ATOM      7  C   UNL     1       2.022  -0.792   1.114  0.00  0.00    +0.268 C 
ATOM      8  O   UNL     1       2.591  -1.274   2.075  0.00  0.00    -0.268 OA
BRANCH   6  10
ATOM      9  C   UNL     1       0.139   1.496  -0.113  0.00  0.00    +0.024 C 
ATOM     10  C   UNL     1      -0.002  -0.024  -0.004  0.00  0.00    +0.105 C 
ENDBRANCH   6  10
BRANCH   6  11
ATOM     11  C   UNL     1      -0.007  -0.648   2.455  0.00  0.00    +0.143 C 
BRANCH  11  12
ATOM     12  C   UNL     1      -0.574  -2.041   2.550  0.00  0.00    -0.030 A 
ATOM     13  C   UNL     1      -1.840  -2.307   2.063  0.00  0.00    +0.005 A 
ATOM     14  C   UNL     1      -2.359  -3.585   2.149  0.00  0.00    +0.000 A 
ATOM     15  C   UNL     1      -1.612  -4.598   2.722  0.00  0.00    +0.000 A 
ATOM     16  C   UNL     1      -0.345  -4.332   3.208  0.00  0.00    +0.000 A 
ATOM     17  C   UNL     1       0.176  -3.055   3.117  0.00  0.00    +0.005 A 
ENDBRANCH  11  12
ENDBRANCH   6  11
ENDBRANCH   1   7
BRANCH   4  18
ATOM     18  C   UNL     1       3.133   0.752  -3.498  0.00  0.00    +0.019 C 
BRANCH  18  19
ATOM     19  N   UNL     1       3.520   2.168  -3.434  0.00  0.00    +0.387 N 
ATOM     20  C   UNL     1       4.941   2.271  -3.076  0.00  0.00    -0.063 C 
ATOM     21  C   UNL     1       5.340   3.746  -2.991  0.00  0.00    +0.066 C 
ATOM     22  N   UNL     1       5.096   4.392  -4.288  0.00  0.00    -0.302 NA
ATOM     23  C   UNL     1       3.682   4.275  -4.672  0.00  0.00    +0.066 C 
ATOM     24  C   UNL     1       3.296   2.796  -4.743  0.00  0.00    -0.063 C 
ATOM     25  H   UNL     1       2.963   2.638  -2.736  0.00  0.00    -0.081 HD
BRANCH  22  26
ATOM     26  C   UNL     1       5.520   5.798  -4.264  0.00  0.00    +0.122 C 
BRANCH  26  27
ATOM     27  C   UNL     1       5.487   6.357  -5.663  0.00  0.00    +0.002 A 
ATOM     28  C   UNL     1       6.655   6.457  -6.395  0.00  0.00    +0.010 A 
ATOM     29  C   UNL     1       6.625   6.969  -7.678  0.00  0.00    +0.039 A 
ATOM     30  C   UNL     1       5.425   7.383  -8.232  0.00  0.00    +0.126 A 
ATOM     31  C   UNL     1       4.255   7.284  -7.500  0.00  0.00    +0.077 A 
ATOM     32  C   UNL     1       4.285   6.765  -6.216  0.00  0.00    +0.131 A 
ATOM     33  F   UNL     1       3.143   6.662  -5.503  0.00  0.00    -0.205 F 
ATOM     34  F   UNL     1       5.397   7.884  -9.486  0.00  0.00    -0.205 F 
ENDBRANCH  26  27
ENDBRANCH  22  26
ENDBRANCH  18  19
ENDBRANCH   4  18
TORSDOF 8
