REMARK  Name = ZINC49428403
REMARK  3 active torsions:
REMARK  status: ('A' for Active; 'I' for Inactive)
REMARK    1  A    between atoms: C_1  and  C_2
REMARK    2  A    between atoms: C_9  and  C_11
REMARK    3  A    between atoms: N_20  and  C_21
REMARK                            x       y       z     vdW  Elec       q    Type
REMARK                         _______ _______ _______ _____ _____    ______ ____
ROOT
ATOM      1  C   UNL     1       1.618  -4.233   1.555  0.00  0.00    +0.093 C 
ATOM      2  C   UNL     1       3.004  -4.842   1.777  0.00  0.00    +0.016 C 
ATOM      3  C   UNL     1       2.874  -6.354   1.970  0.00  0.00    +0.020 C 
ATOM      4  C   UNL     1       2.270  -6.976   0.707  0.00  0.00    +0.109 C 
ATOM      5  N   UNL     1       1.003  -6.295   0.405  0.00  0.00    -0.285 N 
ATOM      6  C   UNL     1       0.999  -4.830   0.288  0.00  0.00    +0.122 C 
ATOM      7  C   UNL     1      -0.133  -7.000   0.237  0.00  0.00    +0.307 C 
ATOM      8  O   UNL     1      -1.155  -6.436  -0.103  0.00  0.00    -0.252 OA
ATOM      9  N   UNL     1      -0.136  -8.332   0.446  0.00  0.00    -0.264 N 
ATOM     10  H   UNL     1       0.693  -8.794   0.645  0.00  0.00    +0.157 HD
ENDROOT
BRANCH   1  18
ATOM     11  C   UNL     1      -2.840  -2.465   2.861  0.00  0.00    +0.009 C 
ATOM     12  C   UNL     1      -1.397  -1.956   2.805  0.00  0.00    +0.003 C 
ATOM     13  C   UNL     1      -1.398  -0.430   2.690  0.00  0.00    +0.006 C 
ATOM     14  C   UNL     1       0.044   0.082   2.668  0.00  0.00    +0.019 C 
ATOM     15  C   UNL     1       0.768  -0.495   1.447  0.00  0.00    +0.108 C 
ATOM     16  N   UNL     1       0.648  -1.959   1.474  0.00  0.00    -0.301 N 
ATOM     17  C   UNL     1      -0.690  -2.557   1.587  0.00  0.00    +0.111 C 
ATOM     18  C   UNL     1       1.744  -2.740   1.398  0.00  0.00    +0.220 C 
ATOM     19  O   UNL     1       2.832  -2.240   1.202  0.00  0.00    -0.275 OA
ENDBRANCH   1  18
BRANCH   9  20
ATOM     20  C   UNL     1      -1.335  -9.047   0.375  0.00  0.00    +0.073 A 
ATOM     21  C   UNL     1      -1.551 -10.380   0.557  0.00  0.00    +0.031 A 
ATOM     22  C   UNL     1      -2.839 -10.869   0.436  0.00  0.00    +0.009 A 
ATOM     23  C   UNL     1      -3.844 -10.010   0.141  0.00  0.00    +0.047 A 
ATOM     24  S   UNL     1      -2.982  -8.451   0.031  0.00  0.00    -0.082 S 
ENDBRANCH   9  20
TORSDOF 2
