REMARK  Name = ZINC40033474
REMARK  6 active torsions:
REMARK  status: ('A' for Active; 'I' for Inactive)
REMARK    1  A    between atoms: C_6  and  C_10
REMARK    2  A    between atoms: C_10  and  N_11
REMARK    3  A    between atoms: N_14  and  C_17
REMARK    4  A    between atoms: C_17  and  C_18
REMARK    5  A    between atoms: C_18  and  S_19
REMARK    6  A    between atoms: S_19  and  C_22
REMARK                            x       y       z     vdW  Elec       q    Type
REMARK                         _______ _______ _______ _____ _____    ______ ____
ROOT
ATOM      1  N   UNL     1       3.802  -3.883   1.321  0.00  0.00    -0.294 NA
ATOM      2  C   UNL     1       4.664  -2.988   2.105  0.00  0.00    +0.100 C 
ATOM      3  C   UNL     1       4.737  -3.491   3.549  0.00  0.00    +0.100 C 
ATOM      4  N   UNL     1       5.261  -4.864   3.560  0.00  0.00    -0.298 NA
ATOM      5  C   UNL     1       4.399  -5.760   2.776  0.00  0.00    +0.100 C 
ATOM      6  C   UNL     1       4.325  -5.256   1.332  0.00  0.00    +0.100 C 
ENDROOT
BRANCH   1   7
ATOM      7  C   UNL     1       3.645  -3.391  -0.054  0.00  0.00    +0.139 C 
BRANCH   7  13
ATOM      8  C   UNL     1      -0.016   1.356   0.009  0.00  0.00    +0.005 A 
ATOM      9  C   UNL     1       1.194   2.068   0.002  0.00  0.00    +0.018 A 
ATOM     10  C   UNL     1       2.372   1.409  -0.013  0.00  0.00    +0.092 A 
ATOM     11  N   UNL     1       2.405   0.045  -0.021  0.00  0.00    -0.308 N 
ATOM     12  C   UNL     1       3.434  -0.856  -0.037  0.00  0.00    +0.115 A 
ATOM     13  C   UNL     1       2.885  -2.090  -0.039  0.00  0.00    +0.048 A 
ATOM     14  N   UNL     1       1.556  -1.965  -0.025  0.00  0.00    -0.342 N 
ATOM     15  C   UNL     1       1.240  -0.678  -0.014  0.00  0.00    +0.115 A 
ATOM     16  C   UNL     1       0.002  -0.004   0.002  0.00  0.00    +0.045 A 
ATOM     17  H   UNL     1       0.922  -2.699  -0.023  0.00  0.00    +0.167 HD
ENDBRANCH   7  13
ENDBRANCH   1   7
BRANCH   4  18
ATOM     18  C   UNL     1       5.418  -5.356   4.936  0.00  0.00    +0.107 C 
BRANCH  18  19
ATOM     19  C   UNL     1       6.190  -6.677   4.920  0.00  0.00    +0.187 C 
BRANCH  19  20
ATOM     20  S   UNL     1       6.383  -7.285   6.618  0.00  0.00    -0.002 S 
ATOM     21  O   UNL     1       7.247  -6.426   7.349  0.00  0.00    -0.169 OA
ATOM     22  O   UNL     1       5.122  -7.666   7.148  0.00  0.00    -0.169 OA
BRANCH  20  23
ATOM     23  C   UNL     1       7.279  -8.794   6.459  0.00  0.00    +0.088 A 
ATOM     24  C   UNL     1       6.599  -9.987   6.294  0.00  0.00    +0.028 A 
ATOM     25  C   UNL     1       7.301 -11.171   6.169  0.00  0.00    +0.022 A 
ATOM     26  C   UNL     1       8.684 -11.163   6.210  0.00  0.00    +0.041 A 
ATOM     27  C   UNL     1       9.364  -9.969   6.376  0.00  0.00    +0.022 A 
ATOM     28  C   UNL     1       8.661  -8.785   6.494  0.00  0.00    +0.028 A 
ATOM     29 CL   UNL     1       9.566 -12.650   6.054  0.00  0.00    -0.084 Cl
ENDBRANCH  20  23
ENDBRANCH  19  20
ENDBRANCH  18  19
ENDBRANCH   4  18
TORSDOF 6
