REMARK  Name = ZINC02931001
REMARK  7 active torsions:
REMARK  status: ('A' for Active; 'I' for Inactive)
REMARK    1  A    between atoms: C_1  and  O_2
REMARK    2  A    between atoms: O_2  and  C_3
REMARK    3  A    between atoms: C_6  and  C_9
REMARK    4  A    between atoms: C_9  and  C_10
REMARK    5  A    between atoms: C_12  and  C_15
REMARK    6  A    between atoms: C_18  and  N_21
REMARK    7  A    between atoms: C_22  and  C_24
REMARK                            x       y       z     vdW  Elec       q    Type
REMARK                         _______ _______ _______ _____ _____    ______ ____
ROOT
ATOM      1  C   UNL     1       3.457   0.524  -0.012  0.00  0.00    +0.023 A 
ATOM      2  C   UNL     1       4.211   1.682  -0.202  0.00  0.00    +0.013 A 
ATOM      3  C   UNL     1       5.587   1.613  -0.215  0.00  0.00    +0.024 A 
ATOM      4  C   UNL     1       6.224   0.388  -0.049  0.00  0.00    +0.034 A 
ATOM      5  C   UNL     1       5.475  -0.768   0.135  0.00  0.00    +0.024 A 
ATOM      6  C   UNL     1       4.098  -0.703   0.154  0.00  0.00    +0.013 A 
ENDROOT
BRANCH   1   9
ATOM      7  C   UNL     1      -0.019   1.312  -0.055  0.00  0.00    +0.232 A 
ATOM      8  N   UNL     1       1.225   1.712  -0.139  0.00  0.00    -0.191 NA
ATOM      9  C   UNL     1       1.976   0.597   0.008  0.00  0.00    +0.202 A 
ATOM     10  N   UNL     1       1.151  -0.405   0.171  0.00  0.00    -0.056 NA
ATOM     11  O   UNL     1       0.005  -0.011   0.138  0.00  0.00    -0.337 OA
BRANCH   7  12
ATOM     12  C   UNL     1      -1.247   2.179  -0.161  0.00  0.00    +0.134 C 
BRANCH  12  16
ATOM     13  C   UNL     1      -2.474   2.416  -4.248  0.00  0.00    +0.120 A 
ATOM     14  C   UNL     1      -2.970   1.410  -3.431  0.00  0.00    +0.046 A 
ATOM     15  C   UNL     1      -2.572   1.336  -2.110  0.00  0.00    +0.007 A 
ATOM     16  C   UNL     1      -1.680   2.262  -1.603  0.00  0.00    -0.038 A 
ATOM     17  C   UNL     1      -1.188   3.268  -2.413  0.00  0.00    +0.007 A 
ATOM     18  C   UNL     1      -1.579   3.344  -3.736  0.00  0.00    +0.046 A 
BRANCH  13  20
ATOM     19  C   UNL     1      -2.312   3.551  -6.330  0.00  0.00    +0.277 C 
ATOM     20  O   UNL     1      -2.863   2.490  -5.548  0.00  0.00    -0.495 OA
ENDBRANCH  13  20
ENDBRANCH  12  16
ENDBRANCH   7  12
ENDBRANCH   1   9
BRANCH   4  21
ATOM     21  N   UNL     1       7.619   0.319  -0.068  0.00  0.00    -0.281 N 
ATOM     22  C   UNL     1       8.233  -0.769  -0.574  0.00  0.00    +0.255 C 
ATOM     23  O   UNL     1       7.577  -1.648  -1.101  0.00  0.00    -0.269 OA
ATOM     24  H   UNL     1       8.146   1.054   0.282  0.00  0.00    +0.155 HD
BRANCH  22  25
ATOM     25  C   UNL     1       9.691  -0.893  -0.489  0.00  0.00    +0.074 A 
ATOM     26  C   UNL     1      10.508  -1.917  -0.941  0.00  0.00    +0.021 A 
ATOM     27  C   UNL     1      11.858  -1.779  -0.731  0.00  0.00    +0.008 A 
ATOM     28  C   UNL     1      12.321  -0.666  -0.103  0.00  0.00    +0.046 A 
ATOM     29  S   UNL     1      10.877   0.239   0.215  0.00  0.00    -0.092 S 
ENDBRANCH  22  25
ENDBRANCH   4  21
TORSDOF 6
