REMARK  Name = ZINC43880475
REMARK  3 active torsions:
REMARK  status: ('A' for Active; 'I' for Inactive)
REMARK    1  A    between atoms: C_1  and  C_2
REMARK    2  A    between atoms: C_2  and  C_3
REMARK    3  A    between atoms: N_12  and  C_13
REMARK                            x       y       z     vdW  Elec       q    Type
REMARK                         _______ _______ _______ _____ _____    ______ ____
ROOT
ATOM      1  C   UNL     1      -1.179  -0.306   1.315  0.00  0.00    +0.006 C 
ATOM      2  C   UNL     1      -1.096  -1.629   0.548  0.00  0.00    +0.006 C 
ATOM      3  C   UNL     1      -2.464  -1.956  -0.056  0.00  0.00    +0.019 C 
ATOM      4  C   UNL     1      -3.490  -2.114   1.070  0.00  0.00    +0.109 C 
ATOM      5  N   UNL     1      -3.473  -0.901   1.900  0.00  0.00    -0.285 N 
ATOM      6  C   UNL     1      -2.192  -0.444   2.456  0.00  0.00    +0.112 C 
ATOM      7  C   UNL     1      -4.609  -0.220   2.145  0.00  0.00    +0.306 C 
ATOM      8  O   UNL     1      -4.596   0.733   2.899  0.00  0.00    -0.252 OA
ATOM      9  N   UNL     1      -5.761  -0.596   1.554  0.00  0.00    -0.269 N 
ATOM     10  H   UNL     1      -5.795  -1.415   1.036  0.00  0.00    +0.156 HD
ENDROOT
BRANCH   9  11
ATOM     11  C   UNL     1      -6.907   0.195   1.690  0.00  0.00    +0.040 A 
ATOM     12  C   UNL     1      -6.793   1.576   1.772  0.00  0.00    +0.061 A 
ATOM     13  C   UNL     1      -7.928   2.356   1.906  0.00  0.00    +0.128 A 
ATOM     14  C   UNL     1      -9.177   1.760   1.957  0.00  0.00    +0.076 A 
ATOM     15  C   UNL     1      -9.293   0.383   1.875  0.00  0.00    +0.128 A 
ATOM     16  C   UNL     1      -8.161  -0.400   1.735  0.00  0.00    +0.061 A 
ATOM     17  F   UNL     1     -10.512  -0.196   1.925  0.00  0.00    -0.205 F 
ATOM     18  F   UNL     1      -7.817   3.700   1.987  0.00  0.00    -0.205 F 
ENDBRANCH   9  11
BRANCH   1  20
ATOM     19  C   UNL     1       0.142   1.416   2.551  0.00  0.00    +0.004 C 
ATOM     20  C   UNL     1       0.196   0.037   1.891  0.00  0.00    +0.002 C 
ENDBRANCH   1  20
TORSDOF 2
