REMARK  Name = ZINC66240397
REMARK  8 active torsions:
REMARK  status: ('A' for Active; 'I' for Inactive)
REMARK    1  A    between atoms: C_1  and  N_2
REMARK    2  A    between atoms: N_2  and  C_3
REMARK    3  A    between atoms: N_2  and  C_4
REMARK    4  A    between atoms: C_9  and  N_10
REMARK    5  A    between atoms: C_11  and  C_13
REMARK    6  A    between atoms: C_16  and  N_19
REMARK    7  A    between atoms: C_20  and  N_26
REMARK    8  A    between atoms: C_21  and  C_24
REMARK                            x       y       z     vdW  Elec       q    Type
REMARK                         _______ _______ _______ _____ _____    ______ ____
ROOT
ATOM      1  C   UNL     1      -1.211  -0.531   4.870  0.00  0.00    +0.037 A 
ATOM      2  C   UNL     1      -0.014   0.189   4.864  0.00  0.00    +0.015 A 
ATOM      3  C   UNL     1       0.533   0.623   6.051  0.00  0.00    +0.028 A 
ATOM      4  C   UNL     1      -0.106   0.345   7.255  0.00  0.00    +0.067 A 
ATOM      5  C   UNL     1      -1.297  -0.372   7.264  0.00  0.00    +0.028 A 
ATOM      6  C   UNL     1      -1.853  -0.804   6.081  0.00  0.00    +0.015 A 
ENDROOT
BRANCH   4   7
ATOM      7  N   UNL     1       0.452   0.787   8.457  0.00  0.00    -0.218 N 
ATOM      8  C   UNL     1      -0.241   1.201   9.551  0.00  0.00    +0.137 A 
ATOM      9  C   UNL     1       0.697   1.551  10.518  0.00  0.00    +0.111 A 
ATOM     10  C   UNL     1       1.976   1.329   9.955  0.00  0.00    +0.155 A 
ATOM     11  N   UNL     1       1.819   0.873   8.744  0.00  0.00    -0.172 NA
BRANCH   8  12
ATOM     12  N   UNL     1      -1.615   1.262   9.678  0.00  0.00    -0.342 N 
ATOM     13  H   UNL     1      -2.183   0.993   8.940  0.00  0.00    +0.144 HD
ATOM     14  H   UNL     1      -2.011   1.574  10.507  0.00  0.00    +0.144 HD
ENDBRANCH   8  12
BRANCH   9  15
ATOM     15  C   UNL     1       0.420   2.044  11.833  0.00  0.00    +0.104 C 
ATOM     16  N   UNL     1       0.200   2.435  12.877  0.00  0.00    -0.191 NA
ENDBRANCH   9  15
ENDBRANCH   4   7
BRANCH   1  18
ATOM     17  N   UNL     1      -1.180  -0.734   2.432  0.00  0.00    -0.280 N 
ATOM     18  C   UNL     1      -1.800  -0.998   3.599  0.00  0.00    +0.248 C 
ATOM     19  O   UNL     1      -2.844  -1.621   3.605  0.00  0.00    -0.270 OA
ATOM     20  H   UNL     1      -0.315  -0.295   2.430  0.00  0.00    +0.155 HD
BRANCH  17  26
ATOM     21  C   UNL     1      -1.627  -0.288   0.093  0.00  0.00    +0.051 A 
ATOM     22  C   UNL     1      -2.224  -0.653  -1.104  0.00  0.00    +0.025 A 
ATOM     23  C   UNL     1      -2.976  -1.810  -1.177  0.00  0.00    +0.002 A 
ATOM     24  C   UNL     1      -3.137  -2.607  -0.058  0.00  0.00    +0.002 A 
ATOM     25  C   UNL     1      -2.546  -2.250   1.140  0.00  0.00    +0.025 A 
ATOM     26  C   UNL     1      -1.784  -1.094   1.220  0.00  0.00    +0.055 A 
BRANCH  21  28
ATOM     27  C   UNL     1      -1.502   2.150   0.532  0.00  0.00    +0.129 C 
ATOM     28  N   UNL     1      -0.864   0.882   0.169  0.00  0.00    -0.335 N 
ATOM     29  C   UNL     1       0.573   0.840  -0.115  0.00  0.00    +0.129 C 
ENDBRANCH  21  28
ENDBRANCH  17  26
ENDBRANCH   1  18
TORSDOF 6
