REMARK  Name = ZINC08889615
REMARK  7 active torsions:
REMARK  status: ('A' for Active; 'I' for Inactive)
REMARK    1  A    between atoms: C_1  and  C_2
REMARK    2  A    between atoms: C_2  and  C_21
REMARK    3  A    between atoms: N_5  and  C_9
REMARK    4  A    between atoms: C_9  and  C_10
REMARK    5  A    between atoms: N_12  and  C_13
REMARK    6  A    between atoms: C_24  and  O_27
REMARK    7  A    between atoms: O_27  and  C_28
REMARK                            x       y       z     vdW  Elec       q    Type
REMARK                         _______ _______ _______ _____ _____    ______ ____
ROOT
ATOM      1  C   UNL     1       7.488   0.255  -0.739  0.00  0.00    +0.047 C 
ATOM      2  C   UNL     1       7.686   1.685  -0.232  0.00  0.00    +0.135 C 
ATOM      3  C   UNL     1       6.618   2.603  -0.792  0.00  0.00    +0.251 C 
ATOM      4  O   UNL     1       6.408   2.856  -1.959  0.00  0.00    -0.272 OA
ATOM      5  N   UNL     1       5.948   3.078   0.277  0.00  0.00    -0.215 N 
ATOM      6  C   UNL     1       6.444   2.596   1.423  0.00  0.00    +0.310 C 
ATOM      7  O   UNL     1       6.008   2.884   2.520  0.00  0.00    -0.252 OA
ATOM      8  N   UNL     1       7.475   1.756   1.224  0.00  0.00    -0.281 N 
ATOM      9  H   UNL     1       7.984   1.291   1.907  0.00  0.00    +0.152 HD
ENDROOT
BRANCH   2  10
ATOM     10  C   UNL     1       9.060   2.188  -0.594  0.00  0.00    -0.015 A 
ATOM     11  C   UNL     1       9.250   2.891  -1.770  0.00  0.00    +0.010 A 
ATOM     12  C   UNL     1      10.507   3.359  -2.101  0.00  0.00    +0.046 A 
ATOM     13  C   UNL     1      11.582   3.113  -1.258  0.00  0.00    +0.120 A 
ATOM     14  C   UNL     1      11.389   2.402  -0.082  0.00  0.00    +0.046 A 
ATOM     15  C   UNL     1      10.129   1.942   0.247  0.00  0.00    +0.010 A 
BRANCH  13  16
ATOM     16  O   UNL     1      12.820   3.567  -1.584  0.00  0.00    -0.495 OA
ATOM     17  C   UNL     1      12.944   4.290  -2.810  0.00  0.00    +0.277 C 
ENDBRANCH  13  16
ENDBRANCH   2  10
BRANCH   5  18
ATOM     18  C   UNL     1       4.821   4.010   0.194  0.00  0.00    +0.214 C 
BRANCH  18  19
ATOM     19  C   UNL     1       3.534   3.234   0.088  0.00  0.00    +0.235 C 
ATOM     20  O   UNL     1       3.555   2.022   0.082  0.00  0.00    -0.274 OA
ATOM     21  N   UNL     1       2.358   3.888   0.000  0.00  0.00    -0.283 N 
ATOM     22  H   UNL     1       2.346   4.855  -0.075  0.00  0.00    +0.155 HD
BRANCH  21  23
ATOM     23  C   UNL     1       1.155   3.171   0.019  0.00  0.00    +0.052 A 
ATOM     24  C   UNL     1       1.100   1.921   0.621  0.00  0.00    +0.027 A 
ATOM     25  C   UNL     1      -0.088   1.216   0.638  0.00  0.00    +0.040 A 
ATOM     26  C   UNL     1      -1.222   1.752   0.051  0.00  0.00    +0.125 A 
ATOM     27  C   UNL     1      -1.171   3.000  -0.546  0.00  0.00    +0.060 A 
ATOM     28  C   UNL     1       0.015   3.709  -0.565  0.00  0.00    +0.065 A 
ATOM     29 CL   UNL     1       0.081   5.272  -1.320  0.00  0.00    -0.082 Cl
ATOM     30  F   UNL     1      -2.380   1.057   0.065  0.00  0.00    -0.205 F 
ENDBRANCH  21  23
ENDBRANCH  18  19
ENDBRANCH   5  18
TORSDOF 5
