REMARK  Name = ZINC64793221
REMARK  6 active torsions:
REMARK  status: ('A' for Active; 'I' for Inactive)
REMARK    1  A    between atoms: C_1  and  C_2
REMARK    2  A    between atoms: C_5  and  C_8
REMARK    3  A    between atoms: C_11  and  C_30
REMARK    4  A    between atoms: N_12  and  C_18
REMARK    5  A    between atoms: C_18  and  C_19
REMARK    6  A    between atoms: N_21  and  C_22
REMARK                            x       y       z     vdW  Elec       q    Type
REMARK                         _______ _______ _______ _____ _____    ______ ____
ROOT
ATOM      1  C   UNL     1      -0.769  -4.469   0.108  0.00  0.00    +0.167 C 
ATOM      2  C   UNL     1       0.638  -4.907   0.417  0.00  0.00    +0.028 C 
ATOM      3  C   UNL     1       1.032  -5.301   1.619  0.00  0.00    +0.043 C 
ATOM      4  N   UNL     1       0.154  -5.351   2.711  0.00  0.00    -0.259 N 
ATOM      5  C   UNL     1      -1.199  -5.223   2.437  0.00  0.00    +0.243 A 
ATOM      6  N   UNL     1      -1.644  -4.815   1.221  0.00  0.00    -0.202 N 
ATOM      7  N   UNL     1      -3.035  -4.814   1.316  0.00  0.00    -0.042 NA
ATOM      8  N   UNL     1      -3.322  -5.194   2.519  0.00  0.00    -0.021 NA
ATOM      9  N   UNL     1      -2.246  -5.434   3.183  0.00  0.00    -0.092 NA
ENDROOT
BRANCH   1  14
ATOM     10  C   UNL     1      -0.872   1.250  -0.712  0.00  0.00    +0.044 C 
ATOM     11  C   UNL     1      -0.845  -0.242  -0.498  0.00  0.00    -0.050 A 
ATOM     12  C   UNL     1      -1.242  -1.093  -1.513  0.00  0.00    +0.004 A 
ATOM     13  C   UNL     1      -1.217  -2.461  -1.317  0.00  0.00    +0.006 A 
ATOM     14  C   UNL     1      -0.795  -2.978  -0.106  0.00  0.00    -0.019 A 
ATOM     15  C   UNL     1      -0.397  -2.127   0.908  0.00  0.00    +0.006 A 
ATOM     16  C   UNL     1      -0.418  -0.759   0.710  0.00  0.00    +0.004 A 
ENDBRANCH   1  14
BRANCH   3  17
ATOM     17  C   UNL     1       2.444  -5.703   1.816  0.00  0.00    -0.004 A 
ATOM     18  C   UNL     1       2.747  -6.919   2.428  0.00  0.00    +0.010 A 
ATOM     19  C   UNL     1       4.064  -7.288   2.608  0.00  0.00    +0.001 A 
ATOM     20  C   UNL     1       5.083  -6.454   2.183  0.00  0.00    +0.000 A 
ATOM     21  C   UNL     1       4.789  -5.247   1.576  0.00  0.00    +0.001 A 
ATOM     22  C   UNL     1       3.475  -4.870   1.385  0.00  0.00    +0.010 A 
ENDBRANCH   3  17
BRANCH   4  23
ATOM     23  C   UNL     1       0.644  -5.530   4.080  0.00  0.00    +0.209 C 
BRANCH  23  24
ATOM     24  C   UNL     1       0.877  -4.182   4.711  0.00  0.00    +0.235 C 
ATOM     25  O   UNL     1       0.655  -3.170   4.079  0.00  0.00    -0.274 OA
ATOM     26  N   UNL     1       1.332  -4.100   5.977  0.00  0.00    -0.282 N 
ATOM     27  H   UNL     1       1.590  -4.905   6.452  0.00  0.00    +0.155 HD
BRANCH  26  28
ATOM     28  C   UNL     1       1.431  -2.853   6.606  0.00  0.00    +0.072 A 
ATOM     29  C   UNL     1       0.709  -1.770   6.122  0.00  0.00    +0.064 A 
ATOM     30  C   UNL     1       0.809  -0.540   6.746  0.00  0.00    +0.125 A 
ATOM     31  C   UNL     1       1.629  -0.387   7.851  0.00  0.00    +0.041 A 
ATOM     32  C   UNL     1       2.350  -1.463   8.335  0.00  0.00    +0.043 A 
ATOM     33  C   UNL     1       2.249  -2.697   7.719  0.00  0.00    +0.145 A 
ATOM     34  F   UNL     1       2.950  -3.750   8.196  0.00  0.00    -0.204 F 
ATOM     35  F   UNL     1       0.107   0.514   6.275  0.00  0.00    -0.205 F 
ENDBRANCH  26  28
ENDBRANCH  23  24
ENDBRANCH   4  23
TORSDOF 5
