REMARK  Name = ZINC00469137
REMARK  4 active torsions:
REMARK  status: ('A' for Active; 'I' for Inactive)
REMARK    1  A    between atoms: C_1  and  C_2
REMARK    2  A    between atoms: C_5  and  N_9
REMARK    3  A    between atoms: C_13  and  C_14
REMARK    4  A    between atoms: N_15  and  N_16
REMARK                            x       y       z     vdW  Elec       q    Type
REMARK                         _______ _______ _______ _____ _____    ______ ____
ROOT
ATOM      1  N   UNL     1       0.059  -4.172  -0.022  0.00  0.00    -0.315 N 
ATOM      2  C   UNL     1      -0.778  -4.974  -0.738  0.00  0.00    +0.092 A 
ATOM      3  C   UNL     1      -0.460  -6.266  -0.493  0.00  0.00    +0.020 A 
ATOM      4  C   UNL     1       0.614  -6.282   0.407  0.00  0.00    +0.029 A 
ATOM      5  C   UNL     1       0.929  -4.969   0.687  0.00  0.00    +0.066 A 
ENDROOT
BRANCH   1  10
ATOM      6  C   UNL     1      -0.018   1.503   0.010  0.00  0.00    +0.045 C 
ATOM      7  C   UNL     1       0.002  -0.004   0.002  0.00  0.00    -0.032 A 
ATOM      8  C   UNL     1       0.006  -0.688  -1.200  0.00  0.00    +0.007 A 
ATOM      9  C   UNL     1       0.025  -2.068  -1.211  0.00  0.00    +0.026 A 
ATOM     10  C   UNL     1       0.040  -2.771  -0.013  0.00  0.00    +0.048 A 
ATOM     11  C   UNL     1       0.037  -2.083   1.192  0.00  0.00    +0.046 A 
ATOM     12  C   UNL     1       0.023  -0.701   1.197  0.00  0.00    +0.046 A 
ATOM     13 CL   UNL     1       0.025   0.161   2.704  0.00  0.00    -0.083 Cl
ENDBRANCH   1  10
BRANCH   5  14
ATOM     14  C   UNL     1       1.995  -4.506   1.580  0.00  0.00    +0.159 C 
ATOM     15  N   UNL     1       2.752  -5.370   2.193  0.00  0.00    -0.170 NA
BRANCH  15  16
ATOM     16  N   UNL     1       3.771  -4.927   3.046  0.00  0.00    -0.207 N 
ATOM     17  C   UNL     1       4.663  -3.924   2.810  0.00  0.00    +0.248 A 
ATOM     18  N   UNL     1       5.436  -3.840   3.860  0.00  0.00    -0.136 NA
ATOM     19  N   UNL     1       5.088  -4.719   4.731  0.00  0.00    -0.136 NA
ATOM     20  C   UNL     1       4.071  -5.407   4.286  0.00  0.00    +0.248 A 
ENDBRANCH  15  16
ENDBRANCH   5  14
TORSDOF 3
