REMARK  Name = ZINC65032437
REMARK  4 active torsions:
REMARK  status: ('A' for Active; 'I' for Inactive)
REMARK    1  A    between atoms: C_1  and  C_2
REMARK    2  A    between atoms: C_6  and  C_7
REMARK    3  A    between atoms: N_12  and  S_15
REMARK    4  A    between atoms: S_15  and  C_18
REMARK                            x       y       z     vdW  Elec       q    Type
REMARK                         _______ _______ _______ _____ _____    ______ ____
ROOT
ATOM      1  C   UNL     1       0.030  -0.283   2.562  0.00  0.00    +0.254 C 
ATOM      2  O   UNL     1       0.119   0.906   2.806  0.00  0.00    -0.269 OA
ATOM      3  N   UNL     1      -0.050  -1.173   3.571  0.00  0.00    -0.295 N 
ATOM      4  C   UNL     1      -0.028  -2.617   3.298  0.00  0.00    +0.125 C 
ATOM      5  C   UNL     1       1.105  -3.253   4.112  0.00  0.00    +0.128 C 
ATOM      6  N   UNL     1       0.995  -2.797   5.505  0.00  0.00    -0.174 NA
ATOM      7  C   UNL     1       0.973  -1.353   5.779  0.00  0.00    +0.128 C 
ATOM      8  C   UNL     1      -0.155  -0.718   4.964  0.00  0.00    +0.125 C 
ENDROOT
BRANCH   1  14
ATOM      9  C   UNL     1       1.647   0.913   0.184  0.00  0.00    +0.045 C 
ATOM     10  C   UNL     1       0.703  -0.256   0.076  0.00  0.00    -0.031 A 
ATOM     11  C   UNL     1       0.480  -0.908  -1.112  0.00  0.00    +0.011 A 
ATOM     12  C   UNL     1      -0.383  -1.954  -1.139  0.00  0.00    +0.046 A 
ATOM     13  S   UNL     1      -0.918  -2.086   0.448  0.00  0.00    -0.092 S 
ATOM     14  C   UNL     1       0.009  -0.747   1.172  0.00  0.00    +0.077 A 
ENDBRANCH   1  14
BRANCH   6  15
ATOM     15  S   UNL     1       0.896  -3.891   6.745  0.00  0.00    +0.061 S 
ATOM     16  O   UNL     1       0.258  -3.224   7.825  0.00  0.00    -0.153 OA
ATOM     17  O   UNL     1       0.388  -5.094   6.185  0.00  0.00    -0.153 OA
BRANCH  15  18
ATOM     18  C   UNL     1       2.543  -4.235   7.268  0.00  0.00    +0.107 A 
ATOM     19  C   UNL     1       3.264  -5.265   6.686  0.00  0.00    +0.030 A 
ATOM     20  C   UNL     1       4.549  -5.548   7.081  0.00  0.00    +0.029 A 
ATOM     21  C   UNL     1       5.175  -4.799   8.091  0.00  0.00    +0.056 A 
ATOM     22  C   UNL     1       4.419  -3.763   8.660  0.00  0.00    +0.042 A 
ATOM     23  C   UNL     1       3.137  -3.476   8.262  0.00  0.00    +0.045 A 
ATOM     24  S   UNL     1       5.526  -3.070   9.865  0.00  0.00    -0.027 S 
ATOM     25  C   UNL     1       6.914  -4.155   9.573  0.00  0.00    +0.289 A 
ATOM     26  O   UNL     1       8.002  -4.165  10.120  0.00  0.00    -0.260 OA
ATOM     27  N   UNL     1       6.454  -4.960   8.596  0.00  0.00    -0.316 N 
ATOM     28  H   UNL     1       7.025  -5.660   8.242  0.00  0.00    +0.169 HD
ENDBRANCH  15  18
ENDBRANCH   6  15
TORSDOF 3
