REMARK  Name = ZINC35530512
REMARK  5 active torsions:
REMARK  status: ('A' for Active; 'I' for Inactive)
REMARK    1  A    between atoms: C_1  and  C_2
REMARK    2  A    between atoms: C_7  and  N_14
REMARK    3  A    between atoms: C_10  and  C_12
REMARK    4  A    between atoms: C_10  and  C_13
REMARK    5  A    between atoms: C_15  and  C_17
REMARK                            x       y       z     vdW  Elec       q    Type
REMARK                         _______ _______ _______ _____ _____    ______ ____
ROOT
ATOM      1  C   UNL     1      -0.255   1.686   0.202  0.00  0.00    +0.047 C 
ATOM      2  C   UNL     1      -0.225   0.185   0.077  0.00  0.00    -0.008 A 
ATOM      3  C   UNL     1      -0.401  -0.533  -1.050  0.00  0.00    +0.198 A 
ATOM      4  O   UNL     1      -0.300  -1.839  -0.744  0.00  0.00    -0.467 OA
ATOM      5  C   UNL     1      -0.062  -1.972   0.566  0.00  0.00    +0.111 A 
ATOM      6  C   UNL     1      -0.001  -0.740   1.112  0.00  0.00    +0.017 A 
ATOM      7  C   UNL     1       0.260  -0.464   2.570  0.00  0.00    +0.107 C 
ATOM      8  C   UNL     1       0.839  -1.734   3.207  0.00  0.00    +0.034 C 
ATOM      9  C   UNL     1      -0.037  -2.934   2.838  0.00  0.00    -0.026 C 
ATOM     10  C   UNL     1       0.119  -3.250   1.348  0.00  0.00    +0.081 C 
ATOM     11  C   UNL     1      -1.502  -2.604   3.131  0.00  0.00    +0.011 C 
ATOM     12  C   UNL     1       0.387  -4.149   3.666  0.00  0.00    +0.011 C 
ENDROOT
BRANCH   7  13
ATOM     13  N   UNL     1       1.219   0.636   2.700  0.00  0.00    -0.308 N 
ATOM     14  C   UNL     1       1.213   1.408   3.804  0.00  0.00    +0.217 C 
ATOM     15  O   UNL     1       0.476   1.139   4.729  0.00  0.00    -0.275 OA
ATOM     16  H   UNL     1       1.859   0.808   1.991  0.00  0.00    +0.149 HD
BRANCH  14  17
ATOM     17  C   UNL     1       2.122   2.607   3.890  0.00  0.00    +0.075 C 
ATOM     18  C   UNL     1       3.578   2.154   3.764  0.00  0.00    +0.013 C 
ATOM     19  C   UNL     1       4.500   3.371   3.851  0.00  0.00    +0.001 C 
ATOM     20  C   UNL     1       4.298   4.069   5.198  0.00  0.00    +0.000 C 
ATOM     21  C   UNL     1       2.842   4.523   5.323  0.00  0.00    +0.001 C 
ATOM     22  C   UNL     1       1.919   3.305   5.236  0.00  0.00    +0.013 C 
ENDBRANCH  14  17
ENDBRANCH   7  13
TORSDOF 2
