REMARK  Name = ZINC44814411
REMARK  4 active torsions:
REMARK  status: ('A' for Active; 'I' for Inactive)
REMARK    1  A    between atoms: C_1  and  C_2
REMARK    2  A    between atoms: C_2  and  C_4
REMARK    3  A    between atoms: C_2  and  C_6
REMARK    4  A    between atoms: N_8  and  C_9
REMARK                            x       y       z     vdW  Elec       q    Type
REMARK                         _______ _______ _______ _____ _____    ______ ____
ROOT
ATOM      1  C   UNL     1      -3.579  -0.613   0.993  0.00  0.00    +0.071 A 
ATOM      2  C   UNL     1      -3.974  -1.650   0.157  0.00  0.00    +0.065 A 
ATOM      3  C   UNL     1      -5.300  -2.039   0.120  0.00  0.00    +0.042 A 
ATOM      4  C   UNL     1      -6.234  -1.397   0.914  0.00  0.00    +0.044 A 
ATOM      5  C   UNL     1      -5.843  -0.363   1.747  0.00  0.00    +0.042 A 
ATOM      6  C   UNL     1      -4.518   0.026   1.793  0.00  0.00    +0.065 A 
ATOM      7 CL   UNL     1      -4.028   1.319   2.844  0.00  0.00    -0.082 Cl
ATOM      8 CL   UNL     1      -7.898  -1.887   0.864  0.00  0.00    -0.083 Cl
ATOM      9 CL   UNL     1      -2.804  -2.456  -0.840  0.00  0.00    -0.082 Cl
ENDROOT
BRANCH   1  12
ATOM     10  C   UNL     1      -1.796   0.756   0.211  0.00  0.00    +0.234 C 
ATOM     11  O   UNL     1      -2.538   1.224  -0.627  0.00  0.00    -0.274 OA
ATOM     12  N   UNL     1      -2.236  -0.217   1.033  0.00  0.00    -0.282 N 
ATOM     13  H   UNL     1      -1.623  -0.642   1.653  0.00  0.00    +0.155 HD
BRANCH  10  15
ATOM     14  C   UNL     1      -0.163   1.835   1.733  0.00  0.00    +0.033 C 
ATOM     15  C   UNL     1      -0.381   1.261   0.331  0.00  0.00    +0.174 C 
BRANCH  15  16
ATOM     16  C   UNL     1      -0.149   2.313  -0.672  0.00  0.00    +0.075 C 
ATOM     17  N   UNL     1       0.030   3.125  -1.446  0.00  0.00    -0.196 NA
ENDBRANCH  15  16
ENDBRANCH  10  15
ENDBRANCH   1  12
TORSDOF 3
