REMARK  Name = ZINC27745691
REMARK  5 active torsions:
REMARK  status: ('A' for Active; 'I' for Inactive)
REMARK    1  A    between atoms: C_3  and  N_27
REMARK    2  A    between atoms: C_6  and  C_7
REMARK    3  A    between atoms: N_9  and  C_10
REMARK    4  A    between atoms: N_9  and  C_19
REMARK    5  A    between atoms: C_10  and  C_11
REMARK                            x       y       z     vdW  Elec       q    Type
REMARK                         _______ _______ _______ _____ _____    ______ ____
ROOT
ATOM      1  C   UNL     1      -1.326  -0.882   0.457  0.00  0.00    +0.247 C 
ATOM      2  O   UNL     1      -2.305  -0.571   1.107  0.00  0.00    -0.270 OA
ATOM      3  N   UNL     1      -1.248  -2.107  -0.099  0.00  0.00    -0.289 N 
ENDROOT
BRANCH   3   4
ATOM      4  C   UNL     1       0.030  -2.823  -0.115  0.00  0.00    +0.099 C 
ATOM      5  C   UNL     1       0.754  -2.624   1.226  0.00  0.00    +0.047 C 
ATOM      6  C   UNL     1       2.223  -3.098   1.109  0.00  0.00    +0.168 C 
ATOM      7  S   UNL     1       2.589  -2.837  -0.675  0.00  0.00    -0.029 S 
ATOM      8  O   UNL     1       2.869  -4.093  -1.278  0.00  0.00    -0.174 OA
ATOM      9  O   UNL     1       3.524  -1.775  -0.805  0.00  0.00    -0.174 OA
ATOM     10  C   UNL     1       0.937  -2.254  -1.244  0.00  0.00    +0.188 C 
ENDBRANCH   3   4
BRANCH   1  16
ATOM     11  C   UNL     1      -0.491   1.453   0.215  0.00  0.00    +0.015 A 
ATOM     12  C   UNL     1       0.544   2.349   0.046  0.00  0.00    +0.033 A 
ATOM     13  C   UNL     1       1.846   1.894  -0.065  0.00  0.00    +0.126 A 
ATOM     14  C   UNL     1       2.120   0.539  -0.005  0.00  0.00    +0.033 A 
ATOM     15  C   UNL     1       1.094  -0.368   0.164  0.00  0.00    +0.015 A 
ATOM     16  C   UNL     1      -0.222   0.085   0.275  0.00  0.00    +0.037 A 
BRANCH  13  17
ATOM     17  N   UNL     1       2.952   2.861  -0.247  0.00  0.00    +0.056 N 
ATOM     18  O   UNL     1       4.099   2.464  -0.344  0.00  0.00    -0.126 OA
ATOM     19  O   UNL     1       2.715   4.055  -0.299  0.00  0.00    -0.126 OA
ENDBRANCH  13  17
ENDBRANCH   1  16
BRANCH   3  20
ATOM     20  C   UNL     1      -2.440  -2.723  -0.686  0.00  0.00    +0.145 C 
BRANCH  20  21
ATOM     21  C   UNL     1      -2.536  -2.345  -2.142  0.00  0.00    -0.012 A 
ATOM     22  C   UNL     1      -3.392  -1.335  -2.539  0.00  0.00    +0.008 A 
ATOM     23  C   UNL     1      -3.476  -0.985  -3.873  0.00  0.00    +0.020 A 
ATOM     24  C   UNL     1      -2.711  -1.652  -4.813  0.00  0.00    +0.042 A 
ATOM     25  C   UNL     1      -1.858  -2.667  -4.417  0.00  0.00    +0.040 A 
ATOM     26  C   UNL     1      -1.771  -3.013  -3.081  0.00  0.00    +0.047 A 
ATOM     27 CL   UNL     1      -0.701  -4.287  -2.583  0.00  0.00    -0.083 Cl
ATOM     28 CL   UNL     1      -2.821  -1.216  -6.490  0.00  0.00    -0.083 Cl
ENDBRANCH  20  21
ENDBRANCH   3  20
TORSDOF 5
