REMARK  Name = ZINC04782826
REMARK  4 active torsions:
REMARK  status: ('A' for Active; 'I' for Inactive)
REMARK    1  A    between atoms: C_1  and  O_2
REMARK    2  A    between atoms: O_2  and  C_3
REMARK    3  A    between atoms: C_6  and  C_9
REMARK    4  A    between atoms: C_14  and  C_22
REMARK                            x       y       z     vdW  Elec       q    Type
REMARK                         _______ _______ _______ _____ _____    ______ ____
ROOT
ATOM      1  C   UNL     1       2.505  -2.503  -4.381  0.00  0.00    +0.032 C 
ATOM      2  C   UNL     1       1.497  -3.394  -5.111  0.00  0.00    +0.060 C 
ATOM      3  C   UNL     1       2.180  -4.094  -6.263  0.00  0.00    +0.020 C 
ATOM      4  C   UNL     1       3.486  -4.429  -6.194  0.00  0.00    +0.044 C 
ATOM      5  C   UNL     1       4.193  -5.145  -7.323  0.00  0.00    +0.211 C 
ATOM      6  N   UNL     1       3.383  -5.089  -8.533  0.00  0.00    -0.218 N 
ATOM      7  C   UNL     1       2.077  -4.725  -8.540  0.00  0.00    +0.219 A 
ATOM      8  N   UNL     1       1.648  -4.786  -9.771  0.00  0.00    -0.201 NA
ATOM      9  C   UNL     1       2.644  -5.177 -10.573  0.00  0.00    +0.247 A 
ATOM     10  N   UNL     1       3.723  -5.373  -9.855  0.00  0.00    -0.156 NA
ATOM     11  N   UNL     1       1.420  -4.365  -7.375  0.00  0.00    -0.287 N 
ATOM     12  C   UNL     1       4.252  -4.116  -5.056  0.00  0.00    +0.164 C 
ATOM     13  O   UNL     1       5.421  -4.444  -5.018  0.00  0.00    -0.292 OA
ATOM     14  C   UNL     1       3.657  -3.384  -3.885  0.00  0.00    +0.088 C 
ATOM     15  H   UNL     1       0.452  -4.308  -7.345  0.00  0.00    +0.155 HD
ENDROOT
BRANCH   1  19
ATOM     16  C   UNL     1       0.606  -0.607  -1.056  0.00  0.00    +0.120 A 
ATOM     17  C   UNL     1       1.173   0.161  -2.062  0.00  0.00    +0.046 A 
ATOM     18  C   UNL     1       1.786  -0.455  -3.136  0.00  0.00    +0.007 A 
ATOM     19  C   UNL     1       1.835  -1.835  -3.209  0.00  0.00    -0.043 A 
ATOM     20  C   UNL     1       1.270  -2.602  -2.207  0.00  0.00    +0.007 A 
ATOM     21  C   UNL     1       0.661  -1.992  -1.128  0.00  0.00    +0.046 A 
BRANCH  16  23
ATOM     22  C   UNL     1      -0.017   1.425   0.010  0.00  0.00    +0.277 C 
ATOM     23  O   UNL     1       0.002  -0.004   0.002  0.00  0.00    -0.495 OA
ENDBRANCH  16  23
ENDBRANCH   1  19
BRANCH   5  24
ATOM     24  C   UNL     1       5.522  -4.482  -7.582  0.00  0.00    +0.134 A 
ATOM     25  C   UNL     1       6.726  -5.074  -7.497  0.00  0.00    +0.047 A 
ATOM     26  C   UNL     1       7.690  -4.091  -7.819  0.00  0.00    +0.041 A 
ATOM     27  C   UNL     1       7.016  -2.957  -8.082  0.00  0.00    +0.195 A 
ATOM     28  O   UNL     1       5.703  -3.201  -7.942  0.00  0.00    -0.465 OA
ENDBRANCH   5  24
TORSDOF 3
