REMARK  Name = ZINC44449740
REMARK  2 active torsions:
REMARK  status: ('A' for Active; 'I' for Inactive)
REMARK    1  A    between atoms: C_4  and  C_8
REMARK    2  A    between atoms: N_10  and  C_11
REMARK                            x       y       z     vdW  Elec       q    Type
REMARK                         _______ _______ _______ _____ _____    ______ ____
ROOT
ATOM      1  C   UNL     1       3.695  -0.685  -0.037  0.00  0.00    +0.252 C 
ATOM      2  O   UNL     1       4.738  -0.060  -0.044  0.00  0.00    -0.270 OA
ATOM      3  N   UNL     1       3.717  -2.033  -0.045  0.00  0.00    -0.250 N 
ATOM      4  H   UNL     1       2.885  -2.531  -0.039  0.00  0.00    +0.158 HD
ENDROOT
BRANCH   1   8
ATOM      5  C   UNL     1      -0.017   1.381   0.010  0.00  0.00    +0.021 A 
ATOM      6  C   UNL     1       1.168   2.095   0.002  0.00  0.00    +0.022 A 
ATOM      7  C   UNL     1       2.378   1.430  -0.013  0.00  0.00    +0.053 A 
ATOM      8  C   UNL     1       2.404   0.033  -0.021  0.00  0.00    +0.057 A 
ATOM      9  C   UNL     1       1.205  -0.681  -0.013  0.00  0.00    +0.034 A 
ATOM     10  C   UNL     1       0.002  -0.004   0.002  0.00  0.00    +0.042 A 
ATOM     11 CL   UNL     1      -1.491  -0.890   0.012  0.00  0.00    -0.084 Cl
ATOM     12 CL   UNL     1       3.864   2.328  -0.023  0.00  0.00    -0.083 Cl
ENDBRANCH   1   8
BRANCH   3  13
ATOM     13  C   UNL     1       4.928  -2.706  -0.061  0.00  0.00    +0.228 A 
ATOM     14  C   UNL     1       5.094  -4.069  -0.075  0.00  0.00    +0.048 A 
ATOM     15  C   UNL     1       6.458  -4.334  -0.088  0.00  0.00    +0.099 A 
ATOM     16  N   UNL     1       7.100  -3.180  -0.082  0.00  0.00    -0.080 NA
ATOM     17  O   UNL     1       6.143  -2.142  -0.070  0.00  0.00    -0.339 OA
ATOM     18  C   UNL     1       6.872  -5.803  -0.105  0.00  0.00    +0.128 C 
ATOM     19  S   UNL     1       5.308  -6.641   0.382  0.00  0.00    -0.150 S 
ATOM     20  C   UNL     1       4.162  -5.279  -0.080  0.00  0.00    +0.111 C 
ENDBRANCH   3  13
TORSDOF 2
