REMARK  Name = ZINC66222213
REMARK  7 active torsions:
REMARK  status: ('A' for Active; 'I' for Inactive)
REMARK    1  A    between atoms: C_1  and  N_2
REMARK    2  A    between atoms: C_3  and  C_5
REMARK    3  A    between atoms: C_9  and  N_11
REMARK    4  A    between atoms: C_12  and  C_14
REMARK    5  A    between atoms: C_20  and  C_23
REMARK    6  A    between atoms: C_23  and  C_24
REMARK    7  A    between atoms: C_24  and  C_25
REMARK                            x       y       z     vdW  Elec       q    Type
REMARK                         _______ _______ _______ _____ _____    ______ ____
ROOT
ATOM      1  N   UNL     1       1.704  -4.888  -3.197  0.00  0.00    -0.276 N 
ATOM      2  C   UNL     1       2.395  -4.238  -4.154  0.00  0.00    +0.303 C 
ATOM      3  O   UNL     1       2.633  -3.054  -4.033  0.00  0.00    -0.265 OA
ATOM      4  H   UNL     1       1.557  -5.844  -3.270  0.00  0.00    +0.155 HD
ENDROOT
BRANCH   2   5
ATOM      5  C   UNL     1       2.868  -4.974  -5.365  0.00  0.00    +0.302 C 
ATOM      6  O   UNL     1       2.736  -6.179  -5.432  0.00  0.00    -0.265 OA
ATOM      7  N   UNL     1       3.442  -4.301  -6.382  0.00  0.00    -0.294 N 
ATOM      8  C   UNL     1       3.443  -2.832  -6.401  0.00  0.00    +0.108 C 
ATOM      9  C   UNL     1       2.854  -2.356  -7.732  0.00  0.00    +0.019 C 
ATOM     10  C   UNL     1       3.626  -3.000  -8.886  0.00  0.00    +0.006 C 
ATOM     11  C   UNL     1       3.482  -4.522  -8.811  0.00  0.00    +0.007 C 
ATOM     12  C   UNL     1       4.083  -5.023  -7.489  0.00  0.00    +0.111 C 
BRANCH  11  13
ATOM     13  C   UNL     1       4.226  -5.163  -9.985  0.00  0.00    +0.014 C 
BRANCH  13  14
ATOM     14  C   UNL     1       3.980  -6.673  -9.981  0.00  0.00    +0.096 C 
BRANCH  14  15
ATOM     15  C   UNL     1       4.712  -7.305 -11.136  0.00  0.00    +0.210 C 
ATOM     16  O   UNL     1       5.367  -6.615 -11.889  0.00  0.00    -0.276 OA
ATOM     17  N   UNL     1       4.640  -8.636 -11.333  0.00  0.00    -0.329 N 
ATOM     18  H   UNL     1       4.116  -9.188 -10.731  0.00  0.00    +0.145 HD
ATOM     19  H   UNL     1       5.111  -9.043 -12.077  0.00  0.00    +0.145 HD
ENDBRANCH  14  15
ENDBRANCH  13  14
ENDBRANCH  11  13
ENDBRANCH   2   5
BRANCH   1  24
ATOM     20  C   UNL     1       1.386  -2.400  -0.498  0.00  0.00    +0.039 A 
ATOM     21  C   UNL     1       0.180  -2.800   0.082  0.00  0.00    +0.014 A 
ATOM     22  C   UNL     1      -0.505  -3.882  -0.428  0.00  0.00    +0.022 A 
ATOM     23  C   UNL     1      -0.002  -4.575  -1.515  0.00  0.00    +0.062 A 
ATOM     24  C   UNL     1       1.199  -4.184  -2.100  0.00  0.00    +0.053 A 
ATOM     25  C   UNL     1       1.891  -3.094  -1.597  0.00  0.00    +0.037 A 
ATOM     26 CL   UNL     1      -0.871  -5.937  -2.151  0.00  0.00    -0.082 Cl
BRANCH  20  29
ATOM     27  C   UNL     1       2.362   0.580   1.651  0.00  0.00    +0.128 C 
ATOM     28  N   UNL     1       1.633  -0.570   1.110  0.00  0.00    -0.314 N 
ATOM     29  C   UNL     1       2.122  -1.240   0.048  0.00  0.00    +0.244 C 
ATOM     30  O   UNL     1       3.169  -0.890  -0.461  0.00  0.00    -0.270 OA
ATOM     31  H   UNL     1       0.797  -0.849   1.517  0.00  0.00    +0.149 HD
ENDBRANCH  20  29
ENDBRANCH   1  24
TORSDOF 6
