REMARK  Name = ZINC66187086
REMARK  8 active torsions:
REMARK  status: ('A' for Active; 'I' for Inactive)
REMARK    1  A    between atoms: C_1  and  N_2
REMARK    2  A    between atoms: N_2  and  C_3
REMARK    3  A    between atoms: N_2  and  C_4
REMARK    4  A    between atoms: C_4  and  C_6
REMARK    5  A    between atoms: C_4  and  C_23
REMARK    6  A    between atoms: C_6  and  N_7
REMARK    7  A    between atoms: C_13  and  N_16
REMARK    8  A    between atoms: C_17  and  C_19
REMARK                            x       y       z     vdW  Elec       q    Type
REMARK                         _______ _______ _______ _____ _____    ______ ____
ROOT
ATOM      1  N   UNL     1      -2.713  -4.700   0.881  0.00  0.00    -0.300 N 
ATOM      2  C   UNL     1      -2.734  -3.793   1.879  0.00  0.00    +0.302 C 
ATOM      3  O   UNL     1      -3.191  -2.684   1.682  0.00  0.00    -0.253 OA
ATOM      4  N   UNL     1      -2.247  -4.116   3.093  0.00  0.00    -0.286 N 
ATOM      5  C   UNL     1      -2.369  -3.182   4.221  0.00  0.00    +0.111 C 
ATOM      6  C   UNL     1      -3.034  -3.909   5.394  0.00  0.00    +0.041 C 
ATOM      7  C   UNL     1      -2.245  -5.181   5.714  0.00  0.00    +0.076 C 
ATOM      8  C   UNL     1      -2.259  -6.111   4.498  0.00  0.00    +0.041 C 
ATOM      9  C   UNL     1      -1.591  -5.411   3.317  0.00  0.00    +0.111 C 
ATOM     10  H   UNL     1      -2.414  -5.606   1.056  0.00  0.00    +0.150 HD
ENDROOT
BRANCH   7  11
ATOM     11  N   UNL     1      -2.859  -5.862   6.856  0.00  0.00    -0.312 N 
ATOM     12  C   UNL     1      -2.118  -6.677   7.632  0.00  0.00    +0.216 C 
ATOM     13  O   UNL     1      -0.943  -6.848   7.385  0.00  0.00    -0.276 OA
ATOM     14  H   UNL     1      -3.799  -5.725   7.055  0.00  0.00    +0.149 HD
BRANCH  12  15
ATOM     15  C   UNL     1      -2.750  -7.378   8.808  0.00  0.00    +0.075 C 
ATOM     16  C   UNL     1      -2.839  -6.504  10.070  0.00  0.00    +0.013 C 
ATOM     17  C   UNL     1      -2.454  -7.759  10.871  0.00  0.00    +0.001 C 
ATOM     18  C   UNL     1      -1.772  -8.270   9.591  0.00  0.00    +0.013 C 
ENDBRANCH  12  15
ENDBRANCH   7  11
BRANCH   1  19
ATOM     19  C   UNL     1      -3.142  -4.317  -0.466  0.00  0.00    +0.095 C 
BRANCH  19  20
ATOM     20  C   UNL     1      -2.897  -5.480  -1.429  0.00  0.00    -0.021 C 
BRANCH  20  21
ATOM     21  C   UNL     1      -1.417  -5.747  -1.528  0.00  0.00    -0.059 A 
ATOM     22  C   UNL     1      -0.624  -4.950  -2.334  0.00  0.00    +0.005 A 
ATOM     23  C   UNL     1       0.733  -5.194  -2.426  0.00  0.00    +0.038 A 
ATOM     24  C   UNL     1       1.299  -6.235  -1.710  0.00  0.00    +0.123 A 
ATOM     25  C   UNL     1       0.504  -7.032  -0.904  0.00  0.00    +0.038 A 
ATOM     26  C   UNL     1      -0.852  -6.784  -0.809  0.00  0.00    +0.005 A 
ATOM     27  F   UNL     1       2.626  -6.474  -1.799  0.00  0.00    -0.205 F 
ENDBRANCH  20  21
BRANCH  20  29
ATOM     28  C   UNL     1      -3.121  -6.221  -3.700  0.00  0.00    -0.096 C 
ATOM     29  N   UNL     1      -3.422  -5.135  -2.757  0.00  0.00    +0.382 N 
ATOM     30  C   UNL     1      -4.877  -4.948  -2.674  0.00  0.00    -0.096 C 
ATOM     31  H   UNL     1      -2.991  -4.282  -3.078  0.00  0.00    -0.082 HD
ENDBRANCH  20  29
ENDBRANCH  19  20
ENDBRANCH   1  19
TORSDOF 6
