REMARK  Name = ZINC29775860
REMARK  8 active torsions:
REMARK  status: ('A' for Active; 'I' for Inactive)
REMARK    1  A    between atoms: C_1  and  C_2
REMARK    2  A    between atoms: C_7  and  C_9
REMARK    3  A    between atoms: C_7  and  C_10
REMARK    4  A    between atoms: N_13  and  C_17
REMARK    5  A    between atoms: C_17  and  C_18
REMARK    6  A    between atoms: C_23  and  C_26
REMARK    7  A    between atoms: C_26  and  C_27
REMARK    8  A    between atoms: C_26  and  C_28
REMARK                            x       y       z     vdW  Elec       q    Type
REMARK                         _______ _______ _______ _____ _____    ______ ____
ROOT
ATOM      1  C   UNL     1      -0.019   1.528   0.010  0.00  0.00    +0.007 C 
ATOM      2  C   UNL     1       0.002  -0.004   0.002  0.00  0.00    -0.011 C 
ATOM      3  C   UNL     1      -1.435  -0.529   0.021  0.00  0.00    +0.038 C 
ATOM      4  C   UNL     1      -1.427  -2.050  -0.036  0.00  0.00    +0.113 C 
ATOM      5  C   UNL     1      -0.575  -2.676   1.049  0.00  0.00    +0.041 C 
ATOM      6  C   UNL     1       0.782  -2.031   1.270  0.00  0.00    -0.032 C 
ATOM      7  C   UNL     1       0.719  -0.508   1.253  0.00  0.00    +0.009 C 
ATOM      8  C   UNL     1       1.296  -2.464   2.661  0.00  0.00    +0.011 C 
ATOM      9  C   UNL     1       1.795  -2.526   0.234  0.00  0.00    +0.011 C 
ATOM     10  C   UNL     1      -1.044  -2.534  -1.413  0.00  0.00    +0.247 C 
ATOM     11  O   UNL     1      -0.058  -2.253  -2.060  0.00  0.00    -0.273 OA
ATOM     12  N   UNL     1      -2.050  -3.344  -1.810  0.00  0.00    -0.215 N 
ATOM     13  C   UNL     1      -3.063  -3.331  -0.937  0.00  0.00    +0.310 C 
ATOM     14  O   UNL     1      -4.088  -3.969  -1.082  0.00  0.00    -0.252 OA
ATOM     15  N   UNL     1      -2.817  -2.537   0.119  0.00  0.00    -0.285 N 
ATOM     16  H   UNL     1      -3.418  -2.318   0.845  0.00  0.00    +0.151 HD
ENDROOT
BRANCH  12  17
ATOM     17  C   UNL     1      -2.031  -4.134  -3.043  0.00  0.00    +0.214 C 
BRANCH  17  18
ATOM     18  C   UNL     1      -1.431  -5.488  -2.763  0.00  0.00    +0.237 C 
ATOM     19  O   UNL     1      -1.057  -5.765  -1.643  0.00  0.00    -0.274 OA
ATOM     20  N   UNL     1      -1.311  -6.390  -3.757  0.00  0.00    -0.263 N 
ATOM     21  C   UNL     1      -0.758  -7.639  -3.498  0.00  0.00    +0.165 A 
ATOM     22  N   UNL     1      -0.558  -8.634  -4.335  0.00  0.00    -0.229 NA
ATOM     23  C   UNL     1      -0.017  -9.768  -3.931  0.00  0.00    +0.053 A 
ATOM     24  C   UNL     1       0.322  -9.856  -2.621  0.00  0.00    +0.072 A 
ATOM     25  S   UNL     1      -0.174  -8.242  -2.040  0.00  0.00    -0.060 S 
ATOM     26  H   UNL     1      -1.611  -6.169  -4.652  0.00  0.00    +0.157 HD
BRANCH  23  27
ATOM     27  C   UNL     1       0.215 -10.913  -4.883  0.00  0.00    +0.032 C 
ATOM     28  C   UNL     1       1.649 -10.853  -5.413  0.00  0.00    +0.014 C 
ATOM     29  C   UNL     1      -0.002 -12.238  -4.149  0.00  0.00    +0.014 C 
ENDBRANCH  23  27
ENDBRANCH  17  18
ENDBRANCH  12  17
TORSDOF 3
