REMARK  Name = ZINC03594280
REMARK  6 active torsions:
REMARK  status: ('A' for Active; 'I' for Inactive)
REMARK    1  A    between atoms: C_1  and  C_2
REMARK    2  A    between atoms: C_2  and  C_19
REMARK    3  A    between atoms: N_5  and  C_9
REMARK    4  A    between atoms: C_9  and  C_10
REMARK    5  A    between atoms: N_12  and  C_13
REMARK    6  A    between atoms: C_13  and  C_14
REMARK                            x       y       z     vdW  Elec       q    Type
REMARK                         _______ _______ _______ _____ _____    ______ ____
ROOT
ATOM      1  C   UNL     1       4.267  11.042   1.826  0.00  0.00    +0.047 C 
ATOM      2  C   UNL     1       3.517  10.575   3.075  0.00  0.00    +0.136 C 
ATOM      3  C   UNL     1       3.330   9.071   3.063  0.00  0.00    +0.251 C 
ATOM      4  O   UNL     1       4.198   8.225   3.062  0.00  0.00    -0.272 OA
ATOM      5  N   UNL     1       1.997   8.870   3.051  0.00  0.00    -0.215 N 
ATOM      6  C   UNL     1       1.323  10.025   3.062  0.00  0.00    +0.310 C 
ATOM      7  O   UNL     1       0.110  10.100   3.059  0.00  0.00    -0.252 OA
ATOM      8  N   UNL     1       2.139  11.095   3.076  0.00  0.00    -0.281 N 
ATOM      9  H   UNL     1       1.871  12.028   3.086  0.00  0.00    +0.152 HD
ENDROOT
BRANCH   2  10
ATOM     10  C   UNL     1       4.247  11.005   4.321  0.00  0.00    -0.002 A 
ATOM     11  C   UNL     1       5.415  11.736   4.221  0.00  0.00    +0.007 A 
ATOM     12  C   UNL     1       6.085  12.131   5.364  0.00  0.00    +0.000 A 
ATOM     13  C   UNL     1       5.586  11.794   6.609  0.00  0.00    +0.001 A 
ATOM     14  C   UNL     1       4.418  11.063   6.710  0.00  0.00    +0.015 A 
ATOM     15  C   UNL     1       3.745  10.672   5.566  0.00  0.00    +0.024 A 
ATOM     16 BR   UNL     1       2.142   9.678   5.705  0.00  0.00    -0.050 Br
ENDBRANCH   2  10
BRANCH   5  17
ATOM     17  C   UNL     1       1.365   7.548   3.036  0.00  0.00    +0.213 C 
BRANCH  17  18
ATOM     18  C   UNL     1       1.152   7.110   1.610  0.00  0.00    +0.231 C 
ATOM     19  O   UNL     1       1.495   7.830   0.697  0.00  0.00    -0.274 OA
ATOM     20  N   UNL     1       0.581   5.917   1.349  0.00  0.00    -0.309 N 
ATOM     21  H   UNL     1       0.306   5.341   2.080  0.00  0.00    +0.149 HD
BRANCH  20  22
ATOM     22  C   UNL     1       0.374   5.491  -0.037  0.00  0.00    +0.146 C 
BRANCH  22  23
ATOM     23  C   UNL     1      -0.276   4.132  -0.053  0.00  0.00    +0.007 A 
ATOM     24  C   UNL     1      -1.595   3.817  -0.060  0.00  0.00    +0.013 A 
ATOM     25  C   UNL     1      -1.965   2.485  -0.080  0.00  0.00    +0.008 A 
ATOM     26  C   UNL     1      -1.000   1.534  -0.081  0.00  0.00    +0.045 A 
ATOM     27  S   UNL     1       0.489   2.519  -0.067  0.00  0.00    -0.100 S 
ENDBRANCH  22  23
ENDBRANCH  20  22
ENDBRANCH  17  18
ENDBRANCH   5  17
TORSDOF 5
