REMARK  Name = ZINC36266679
REMARK  6 active torsions:
REMARK  status: ('A' for Active; 'I' for Inactive)
REMARK    1  A    between atoms: C_1  and  C_2
REMARK    2  A    between atoms: N_8  and  S_9
REMARK    3  A    between atoms: S_9  and  N_12
REMARK    4  A    between atoms: N_12  and  C_13
REMARK    5  A    between atoms: C_13  and  C_14
REMARK    6  A    between atoms: C_14  and  N_20
REMARK                            x       y       z     vdW  Elec       q    Type
REMARK                         _______ _______ _______ _____ _____    ______ ____
ROOT
ATOM      1  N   UNL     1       0.273   0.674   3.461  0.00  0.00    -0.181 NA
ATOM      2  H   UNL     1      -0.235   1.479   3.647  0.00  0.00    +0.149 HD
ENDROOT
BRANCH   1   3
ATOM      3  S   UNL     1       1.349   0.648   2.203  0.00  0.00    +0.097 S 
ATOM      4  O   UNL     1       2.562   0.116   2.717  0.00  0.00    -0.141 OA
ATOM      5  O   UNL     1       1.280   1.924   1.582  0.00  0.00    -0.141 OA
BRANCH   3  12
ATOM      6  C   UNL     1      -0.754   1.345   0.441  0.00  0.00    +0.026 C 
ATOM      7  C   UNL     1      -0.364  -0.120   0.239  0.00  0.00    +0.078 C 
ATOM      8  C   UNL     1       0.029  -0.350  -1.224  0.00  0.00    +0.020 C 
ATOM      9  C   UNL     1       0.550  -1.779  -1.389  0.00  0.00    +0.003 C 
ATOM     10  C   UNL     1       1.794  -1.975  -0.518  0.00  0.00    +0.017 C 
ATOM     11  C   UNL     1       1.420  -1.764   0.953  0.00  0.00    +0.111 C 
ATOM     12  N   UNL     1       0.783  -0.448   1.097  0.00  0.00    -0.164 NA
ENDBRANCH   3  12
ENDBRANCH   1   3
BRANCH   1  13
ATOM     13  C   UNL     1       0.089  -0.517   4.293  0.00  0.00    +0.094 C 
BRANCH  13  14
ATOM     14  C   UNL     1      -0.649  -0.134   5.577  0.00  0.00    -0.057 C 
ATOM     15  C   UNL     1       0.171   0.904   6.346  0.00  0.00    -0.012 C 
ATOM     16  C   UNL     1       1.537   0.313   6.701  0.00  0.00    -0.001 C 
ATOM     17  C   UNL     1       1.345  -0.931   7.570  0.00  0.00    -0.000 C 
ATOM     18  C   UNL     1       0.525  -1.969   6.800  0.00  0.00    -0.001 C 
ATOM     19  C   UNL     1      -0.841  -1.378   6.446  0.00  0.00    -0.012 C 
BRANCH  14  20
ATOM     20  N   UNL     1      -1.961   0.433   5.237  0.00  0.00    +0.383 N 
ATOM     21  H   UNL     1      -2.502  -0.251   4.730  0.00  0.00    -0.089 HD
ATOM     22  H   UNL     1      -2.448   0.686   6.084  0.00  0.00    -0.089 HD
ATOM     23  H   UNL     1      -1.834   1.254   4.664  0.00  0.00    -0.089 HD
ENDBRANCH  14  20
ENDBRANCH  13  14
ENDBRANCH   1  13
TORSDOF 5
