REMARK  Name = ZINC57555966
REMARK  5 active torsions:
REMARK  status: ('A' for Active; 'I' for Inactive)
REMARK    1  A    between atoms: N_5  and  C_12
REMARK    2  A    between atoms: C_7  and  C_8
REMARK    3  A    between atoms: C_12  and  C_13
REMARK    4  A    between atoms: C_16  and  N_22
REMARK    5  A    between atoms: C_17  and  C_20
REMARK                            x       y       z     vdW  Elec       q    Type
REMARK                         _______ _______ _______ _____ _____    ______ ____
ROOT
ATOM      1  C   UNL     1       3.623  -0.720  -0.037  0.00  0.00    +0.225 C 
ENDROOT
BRANCH   1   6
ATOM      2  C   UNL     1      -0.017   1.398   0.010  0.00  0.00    +0.019 A 
ATOM      3  C   UNL     1       1.164   2.081   0.002  0.00  0.00    +0.071 A 
ATOM      4  C   UNL     1       2.373   1.364  -0.013  0.00  0.00    +0.252 A 
ATOM      5  O   UNL     1       3.437   1.963  -0.020  0.00  0.00    -0.268 OA
ATOM      6  N   UNL     1       2.358   0.018  -0.020  0.00  0.00    -0.306 N 
ATOM      7  C   UNL     1       1.184  -0.664  -0.013  0.00  0.00    +0.102 A 
ATOM      8  C   UNL     1       0.002  -0.004   0.002  0.00  0.00    +0.071 A 
BRANCH   8   9
ATOM      9  C   UNL     1      -1.292  -0.776   0.010  0.00  0.00    +0.419 C 
ATOM     10  F   UNL     1      -1.740  -0.923   1.327  0.00  0.00    -0.166 F 
ATOM     11  F   UNL     1      -2.253  -0.083  -0.734  0.00  0.00    -0.166 F 
ATOM     12  F   UNL     1      -1.086  -2.038  -0.556  0.00  0.00    -0.166 F 
ENDBRANCH   8   9
ENDBRANCH   1   6
BRANCH   1  13
ATOM     13  C   UNL     1       4.072  -0.981   1.378  0.00  0.00    +0.269 C 
ATOM     14  O   UNL     1       3.402  -0.590   2.305  0.00  0.00    -0.269 OA
ATOM     15  N   UNL     1       5.219  -1.650   1.609  0.00  0.00    -0.183 N 
ATOM     16  C   UNL     1       5.733  -1.955   2.836  0.00  0.00    +0.140 A 
ATOM     17  C   UNL     1       6.920  -2.645   2.616  0.00  0.00    +0.111 A 
ATOM     18  C   UNL     1       7.093  -2.739   1.214  0.00  0.00    +0.155 A 
ATOM     19  N   UNL     1       6.084  -2.155   0.633  0.00  0.00    -0.169 NA
BRANCH  16  20
ATOM     20  N   UNL     1       5.181  -1.640   4.059  0.00  0.00    -0.342 N 
ATOM     21  H   UNL     1       4.343  -1.152   4.102  0.00  0.00    +0.144 HD
ATOM     22  H   UNL     1       5.630  -1.906   4.876  0.00  0.00    +0.144 HD
ENDBRANCH  16  20
BRANCH  17  23
ATOM     23  C   UNL     1       7.801  -3.163   3.619  0.00  0.00    +0.104 C 
ATOM     24  N   UNL     1       8.501  -3.574   4.415  0.00  0.00    -0.191 NA
ENDBRANCH  17  23
ENDBRANCH   1  13
TORSDOF 5
