REMARK  Name = ZINC65689757
REMARK  6 active torsions:
REMARK  status: ('A' for Active; 'I' for Inactive)
REMARK    1  A    between atoms: C_1  and  C_2
REMARK    2  A    between atoms: C_5  and  C_7
REMARK    3  A    between atoms: C_7  and  N_8
REMARK    4  A    between atoms: C_13  and  C_19
REMARK    5  A    between atoms: C_15  and  C_17
REMARK    6  A    between atoms: C_15  and  C_18
REMARK                            x       y       z     vdW  Elec       q    Type
REMARK                         _______ _______ _______ _____ _____    ______ ____
ROOT
ATOM      1  N   UNL     1       1.210  -4.510  -1.412  0.00  0.00    -0.295 N 
ATOM      2  C   UNL     1       1.680  -5.747  -1.667  0.00  0.00    +0.303 C 
ATOM      3  O   UNL     1       2.051  -6.458  -0.753  0.00  0.00    -0.253 OA
ATOM      4  N   UNL     1       1.739  -6.196  -2.937  0.00  0.00    -0.280 N 
ATOM      5  C   UNL     1       1.406  -5.316  -4.068  0.00  0.00    +0.140 C 
ATOM      6  C   UNL     1       0.396  -6.043  -4.964  0.00  0.00    +0.133 C 
ATOM      7  O   UNL     1       0.906  -7.337  -5.295  0.00  0.00    -0.368 OA
ATOM      8  C   UNL     1       1.094  -8.197  -4.169  0.00  0.00    +0.080 C 
ATOM      9  C   UNL     1       2.145  -7.580  -3.232  0.00  0.00    +0.143 C 
ATOM     10  C   UNL     1       1.580  -9.566  -4.648  0.00  0.00    +0.043 C 
ATOM     11  C   UNL     1      -0.231  -8.357  -3.421  0.00  0.00    +0.043 C 
ATOM     12  C   UNL     1       0.178  -5.236  -6.246  0.00  0.00    +0.039 C 
ATOM     13  H   UNL     1       0.984  -3.916  -2.144  0.00  0.00    +0.151 HD
ENDROOT
BRANCH   1  14
ATOM     14  C   UNL     1       1.041  -4.062  -0.027  0.00  0.00    +0.148 C 
BRANCH  14  19
ATOM     15  C   UNL     1      -0.018   1.502   0.012  0.00  0.00    +0.051 C 
ATOM     16  C   UNL     1       0.002  -0.004   0.003  0.00  0.00    -0.013 A 
ATOM     17  C   UNL     1      -1.040  -0.872   0.001  0.00  0.00    +0.011 A 
ATOM     18  C   UNL     1      -0.781  -2.230  -0.009  0.00  0.00    +0.013 A 
ATOM     19  C   UNL     1       0.506  -2.654  -0.016  0.00  0.00    +0.007 A 
ATOM     20  S   UNL     1       1.403  -1.110  -0.016  0.00  0.00    -0.097 S 
ENDBRANCH  14  19
ENDBRANCH   1  14
TORSDOF 2
