REMARK  Name = ZINC12497275
REMARK  7 active torsions:
REMARK  status: ('A' for Active; 'I' for Inactive)
REMARK    1  A    between atoms: C_1  and  C_2
REMARK    2  A    between atoms: C_5  and  N_8
REMARK    3  A    between atoms: C_13  and  C_25
REMARK    4  A    between atoms: C_15  and  C_20
REMARK    5  A    between atoms: C_15  and  C_21
REMARK    6  A    between atoms: C_21  and  O_23
REMARK    7  A    between atoms: O_23  and  C_24
REMARK                            x       y       z     vdW  Elec       q    Type
REMARK                         _______ _______ _______ _____ _____    ______ ____
ROOT
ATOM      1  N   UNL     1      -0.017   1.362   0.009  0.00  0.00    -0.210 N 
ATOM      2  C   UNL     1       1.242   1.911   0.001  0.00  0.00    +0.229 C 
ATOM      3  O   UNL     1       1.539   3.069  -0.200  0.00  0.00    -0.275 OA
ATOM      4  C   UNL     1       2.133   0.817   0.280  0.00  0.00    +0.078 C 
ATOM      5  C   UNL     1       3.545   0.422   0.193  0.00  0.00    -0.020 C 
ATOM      6  C   UNL     1       2.118  -1.531   0.326  0.00  0.00    +0.041 C 
ATOM      7  C   UNL     1       1.391  -0.401  -0.383  0.00  0.00    +0.086 C 
ATOM      8  C   UNL     1       0.002  -0.004   0.002  0.00  0.00    +0.229 C 
ATOM      9  O   UNL     1      -0.923  -0.746   0.256  0.00  0.00    -0.275 OA
ATOM     10  C   UNL     1       2.158  -2.774  -0.566  0.00  0.00    +0.002 C 
ATOM     11  N   UNL     1       3.494  -1.025   0.572  0.00  0.00    +0.396 N 
ATOM     12  H   UNL     1       3.730  -1.131   1.565  0.00  0.00    -0.083 HD
ATOM     13  H   UNL     1       4.165  -1.556   0.003  0.00  0.00    -0.083 HD
ENDROOT
BRANCH   1  18
ATOM     14  C   UNL     1      -4.785   4.440   0.047  0.00  0.00    +0.044 C 
ATOM     15  C   UNL     1      -3.519   3.623   0.037  0.00  0.00    -0.050 A 
ATOM     16  C   UNL     1      -2.289   4.255   0.036  0.00  0.00    +0.005 A 
ATOM     17  C   UNL     1      -1.127   3.509   0.027  0.00  0.00    +0.024 A 
ATOM     18  C   UNL     1      -1.194   2.123   0.019  0.00  0.00    +0.044 A 
ATOM     19  C   UNL     1      -2.430   1.490   0.016  0.00  0.00    +0.024 A 
ATOM     20  C   UNL     1      -3.589   2.242   0.030  0.00  0.00    +0.005 A 
ENDBRANCH   1  18
BRANCH   5  21
ATOM     21  C   UNL     1       4.062   0.590  -1.213  0.00  0.00    -0.023 A 
ATOM     22  C   UNL     1       4.881   1.547  -1.713  0.00  0.00    +0.009 A 
ATOM     23  C   UNL     1       5.230   1.500  -3.049  0.00  0.00    +0.008 A 
ATOM     24  C   UNL     1       4.736   0.503  -3.823  0.00  0.00    +0.045 A 
ATOM     25  S   UNL     1       3.748  -0.417  -2.654  0.00  0.00    -0.103 S 
ENDBRANCH   5  21
BRANCH   6  26
ATOM     26  C   UNL     1       1.437  -1.849   1.632  0.00  0.00    +0.296 C 
ATOM     27  O   UNL     1       0.265  -1.593   1.780  0.00  0.00    -0.252 OA
BRANCH  26  28
ATOM     28  O   UNL     1       2.131  -2.416   2.630  0.00  0.00    -0.469 OA
ATOM     29  C   UNL     1       1.410  -2.694   3.860  0.00  0.00    +0.280 C 
ENDBRANCH  26  28
ENDBRANCH   6  26
TORSDOF 4
