REMARK  Name = ZINC05235484
REMARK  5 active torsions:
REMARK  status: ('A' for Active; 'I' for Inactive)
REMARK    1  A    between atoms: C_1  and  C_2
REMARK    2  A    between atoms: C_2  and  C_3
REMARK    3  A    between atoms: C_9  and  C_10
REMARK    4  A    between atoms: C_9  and  N_49
REMARK    5  A    between atoms: C_11  and  O_25
REMARK                            x       y       z     vdW  Elec       q    Type
REMARK                         _______ _______ _______ _____ _____    ______ ____
ROOT
ATOM      1  C   UNL     1       0.949   1.677  -2.809  0.00  0.00    +0.022 A 
ATOM      2  C   UNL     1       0.939   2.888  -3.482  0.00  0.00    +0.140 A 
ATOM      3  C   UNL     1       2.134   3.541  -3.784  0.00  0.00    +0.083 A 
ATOM      4  C   UNL     1       3.332   2.987  -3.431  0.00  0.00    +0.035 A 
ATOM      5  C   UNL     1       3.360   1.761  -2.758  0.00  0.00    +0.023 A 
ATOM      6  C   UNL     1       2.157   1.102  -2.444  0.00  0.00    +0.144 A 
ATOM      7  O   UNL     1       2.191  -0.080  -1.793  0.00  0.00    -0.422 OA
ATOM      8  C   UNL     1       3.351  -0.650  -1.435  0.00  0.00    +0.341 A 
ATOM      9  O   UNL     1       3.330  -1.718  -0.849  0.00  0.00    -0.245 OA
ATOM     10  C   UNL     1       4.597  -0.046  -1.718  0.00  0.00    +0.041 A 
ATOM     11  C   UNL     1       4.630   1.144  -2.369  0.00  0.00    -0.027 A 
ATOM     12  C   UNL     1       6.058   1.597  -2.563  0.00  0.00    +0.036 C 
ATOM     13  C   UNL     1       6.915   0.333  -2.333  0.00  0.00    +0.010 C 
ATOM     14  C   UNL     1       6.005  -0.507  -1.410  0.00  0.00    +0.043 C 
ATOM     15 CL   UNL     1       2.099   5.061  -4.620  0.00  0.00    -0.080 Cl
ENDROOT
BRANCH   2  16
ATOM     16  O   UNL     1      -0.244   3.447  -3.844  0.00  0.00    -0.505 OA
ATOM     17  H   UNL     1      -0.580   4.100  -3.214  0.00  0.00    +0.292 HD
ENDBRANCH   2  16
BRANCH   1  18
ATOM     18  C   UNL     1      -0.348   0.984  -2.481  0.00  0.00    -0.035 C 
BRANCH  18  24
ATOM     19  C   UNL     1      -1.992   0.628  -0.740  0.00  0.00    -0.068 C 
ATOM     20  C   UNL     1      -2.282   0.847   0.747  0.00  0.00    -0.015 C 
ATOM     21  C   UNL     1      -2.372   2.349   1.029  0.00  0.00    -0.003 C 
ATOM     22  C   UNL     1      -1.063   3.019   0.605  0.00  0.00    -0.019 C 
ATOM     23  C   UNL     1      -0.808   2.738  -0.877  0.00  0.00    -0.078 C 
ATOM     24  N   UNL     1      -0.707   1.277  -1.078  0.00  0.00    +0.384 N 
ATOM     25  H   UNL     1       0.026   0.905  -0.462  0.00  0.00    -0.081 HD
BRANCH  19  27
ATOM     26  C   UNL     1      -3.229  -1.543  -0.752  0.00  0.00    +0.002 C 
ATOM     27  C   UNL     1      -1.881  -0.871  -1.022  0.00  0.00    -0.019 C 
ENDBRANCH  19  27
ENDBRANCH  18  24
ENDBRANCH   1  18
TORSDOF 4
