REMARK  Name = ZINC09076637
REMARK  8 active torsions:
REMARK  status: ('A' for Active; 'I' for Inactive)
REMARK    1  A    between atoms: C_1  and  O_2
REMARK    2  A    between atoms: O_2  and  C_3
REMARK    3  A    between atoms: C_8  and  O_9
REMARK    4  A    between atoms: O_9  and  C_10
REMARK    5  A    between atoms: C_11  and  C_26
REMARK    6  A    between atoms: C_15  and  C_16
REMARK    7  A    between atoms: C_15  and  N_51
REMARK    8  A    between atoms: C_18  and  C_21
REMARK                            x       y       z     vdW  Elec       q    Type
REMARK                         _______ _______ _______ _____ _____    ______ ____
ROOT
ATOM      1  C   UNL     1       2.794  -5.209   5.375  0.00  0.00    +0.162 A 
ATOM      2  C   UNL     1       2.941  -3.865   5.082  0.00  0.00    +0.053 A 
ATOM      3  C   UNL     1       2.706  -3.397   3.797  0.00  0.00    -0.043 A 
ATOM      4  C   UNL     1       2.327  -4.274   2.803  0.00  0.00    -0.049 A 
ATOM      5  C   UNL     1       2.177  -5.623   3.092  0.00  0.00    +0.052 A 
ATOM      6  C   UNL     1       2.408  -6.095   4.372  0.00  0.00    +0.162 A 
ATOM      7  C   UNL     1       2.066  -3.812   1.393  0.00  0.00    +0.001 C 
ATOM      8  C   UNL     1       2.984  -1.675   2.025  0.00  0.00    -0.072 C 
ATOM      9  C   UNL     1       2.875  -1.923   3.530  0.00  0.00    +0.017 C 
ATOM     10  N   UNL     1       1.848  -2.356   1.372  0.00  0.00    +0.393 N 
ATOM     11  H   UNL     1       0.986  -2.139   1.886  0.00  0.00    -0.080 HD
ENDROOT
BRANCH   7  12
ATOM     12  C   UNL     1       0.832  -4.497   0.866  0.00  0.00    -0.019 A 
ATOM     13  C   UNL     1       0.737  -5.581   0.057  0.00  0.00    +0.010 A 
ATOM     14  C   UNL     1      -0.516  -6.043  -0.300  0.00  0.00    +0.008 A 
ATOM     15  C   UNL     1      -1.612  -5.393   0.162  0.00  0.00    +0.045 A 
ATOM     16  S   UNL     1      -0.884  -4.088   1.139  0.00  0.00    -0.103 S 
ENDBRANCH   7  12
BRANCH   1  18
ATOM     17  C   UNL     1       3.419  -4.696   7.611  0.00  0.00    +0.277 C 
ATOM     18  O   UNL     1       3.026  -5.663   6.635  0.00  0.00    -0.491 OA
ENDBRANCH   1  18
BRANCH   6  19
ATOM     19  O   UNL     1       2.259  -7.417   4.650  0.00  0.00    -0.491 OA
ATOM     20  C   UNL     1       1.861  -8.266   3.571  0.00  0.00    +0.277 C 
ENDBRANCH   6  19
BRANCH  10  21
ATOM     21  C   UNL     1       1.708  -1.885  -0.024  0.00  0.00    +0.023 C 
BRANCH  21  22
ATOM     22  C   UNL     1       1.264  -0.445  -0.012  0.00  0.00    +0.211 A 
ATOM     23  N   UNL     1       2.041   0.609  -0.014  0.00  0.00    -0.193 NA
ATOM     24  C   UNL     1       1.209   1.675  -0.001  0.00  0.00    +0.202 A 
ATOM     25  N   UNL     1      -0.014   1.209   0.009  0.00  0.00    -0.056 NA
ATOM     26  O   UNL     1       0.002  -0.004   0.002  0.00  0.00    -0.340 OA
BRANCH  24  27
ATOM     27  C   UNL     1       1.607   3.103   0.003  0.00  0.00    +0.029 A 
ATOM     28  C   UNL     1       0.645   4.112   0.018  0.00  0.00    +0.019 A 
ATOM     29  C   UNL     1       1.079   5.392   0.020  0.00  0.00    +0.046 A 
ATOM     30  S   UNL     1       2.851   5.194   0.001  0.00  0.00    -0.104 S 
ATOM     31  C   UNL     1       2.923   3.462  -0.003  0.00  0.00    +0.057 A 
ENDBRANCH  24  27
ENDBRANCH  21  22
ENDBRANCH  10  21
TORSDOF 6
