REMARK  Name = ZINC31055728
REMARK  7 active torsions:
REMARK  status: ('A' for Active; 'I' for Inactive)
REMARK    1  A    between atoms: C_1  and  C_2
REMARK    2  A    between atoms: C_2  and  C_4
REMARK    3  A    between atoms: C_2  and  N_11
REMARK    4  A    between atoms: C_12  and  C_14
REMARK    5  A    between atoms: N_19  and  C_21
REMARK    6  A    between atoms: C_21  and  C_22
REMARK    7  A    between atoms: C_24  and  C_27
REMARK                            x       y       z     vdW  Elec       q    Type
REMARK                         _______ _______ _______ _____ _____    ______ ____
ROOT
ATOM      1  C   UNL     1       2.292   7.033  -2.870  0.00  0.00    +0.058 C 
ATOM      2  C   UNL     1       3.188   6.062  -3.644  0.00  0.00    +0.009 C 
ATOM      3  C   UNL     1       2.604   4.650  -3.542  0.00  0.00    -0.018 C 
ATOM      4  C   UNL     1       2.488   4.257  -2.067  0.00  0.00    -0.078 C 
ATOM      5  N   UNL     1       1.621   5.216  -1.371  0.00  0.00    +0.386 N 
ATOM      6  C   UNL     1       2.185   6.571  -1.415  0.00  0.00    -0.065 C 
ATOM      7  H   UNL     1       0.655   5.238  -1.896  0.00  0.00    -0.081 HD
ENDROOT
BRANCH   1   9
ATOM      8  N   UNL     1       3.082   9.028  -4.101  0.00  0.00    -0.309 N 
ATOM      9  C   UNL     1       2.891   8.415  -2.916  0.00  0.00    +0.215 C 
ATOM     10  O   UNL     1       3.202   8.976  -1.886  0.00  0.00    -0.276 OA
ATOM     11  H   UNL     1       2.800   8.519  -5.035  0.00  0.00    +0.149 HD
BRANCH   8  13
ATOM     12  C   UNL     1       2.560  11.413  -3.951  0.00  0.00    +0.033 C 
ATOM     13  C   UNL     1       3.664  10.372  -4.146  0.00  0.00    +0.100 C 
BRANCH  13  14
ATOM     14  C   UNL     1       4.328  10.587  -5.481  0.00  0.00    -0.027 A 
ATOM     15  C   UNL     1       3.731  10.112  -6.634  0.00  0.00    +0.008 A 
ATOM     16  C   UNL     1       4.337  10.313  -7.860  0.00  0.00    +0.038 A 
ATOM     17  C   UNL     1       5.547  10.982  -7.932  0.00  0.00    +0.123 A 
ATOM     18  C   UNL     1       6.146  11.454  -6.776  0.00  0.00    +0.038 A 
ATOM     19  C   UNL     1       5.536  11.256  -5.552  0.00  0.00    +0.008 A 
ATOM     20  F   UNL     1       6.142  11.175  -9.129  0.00  0.00    -0.205 F 
ENDBRANCH  13  14
ENDBRANCH   8  13
ENDBRANCH   1   9
BRANCH   5  21
ATOM     21  C   UNL     1       1.374   4.793   0.014  0.00  0.00    +0.022 C 
BRANCH  21  22
ATOM     22  C   UNL     1       0.577   3.515   0.015  0.00  0.00    +0.211 A 
ATOM     23  N   UNL     1       1.059   2.297   0.004  0.00  0.00    -0.193 NA
ATOM     24  C   UNL     1      -0.018   1.480   0.010  0.00  0.00    +0.203 A 
ATOM     25  N   UNL     1      -1.081   2.241   0.019  0.00  0.00    -0.056 NA
ATOM     26  O   UNL     1      -0.756   3.410   0.027  0.00  0.00    -0.340 OA
BRANCH  24  27
ATOM     27  C   UNL     1       0.002  -0.004   0.002  0.00  0.00    +0.041 A 
ATOM     28  C   UNL     1       1.217  -0.687  -0.019  0.00  0.00    +0.014 A 
ATOM     29  C   UNL     1       1.231  -2.066  -0.020  0.00  0.00    +0.021 A 
ATOM     30  C   UNL     1       0.040  -2.773  -0.013  0.00  0.00    +0.042 A 
ATOM     31  C   UNL     1      -1.170  -2.101   0.002  0.00  0.00    +0.040 A 
ATOM     32  C   UNL     1      -1.194  -0.720   0.010  0.00  0.00    +0.053 A 
ATOM     33 CL   UNL     1      -2.712   0.123   0.028  0.00  0.00    -0.083 Cl
ATOM     34 CL   UNL     1       0.065  -4.509  -0.023  0.00  0.00    -0.083 Cl
ENDBRANCH  24  27
ENDBRANCH  21  22
ENDBRANCH   5  21
TORSDOF 6
