REMARK  Name = ZINC08589333
REMARK  4 active torsions:
REMARK  status: ('A' for Active; 'I' for Inactive)
REMARK    1  A    between atoms: C_4  and  C_7
REMARK    2  A    between atoms: C_7  and  N_8
REMARK    3  A    between atoms: C_18  and  S_21
REMARK    4  A    between atoms: S_21  and  C_24
REMARK                            x       y       z     vdW  Elec       q    Type
REMARK                         _______ _______ _______ _____ _____    ______ ____
ROOT
ATOM      1  N   UNL     1       4.152  -0.952   1.338  0.00  0.00    -0.324 N 
ATOM      2  C   UNL     1       5.342  -1.618   1.575  0.00  0.00    +0.137 A 
ATOM      3  C   UNL     1       5.761  -1.858   2.887  0.00  0.00    +0.077 A 
ATOM      4  C   UNL     1       6.957  -2.527   3.166  0.00  0.00    +0.087 A 
ATOM      5  C   UNL     1       7.256  -2.701   4.519  0.00  0.00    +0.036 A 
ATOM      6  C   UNL     1       6.413  -2.234   5.467  0.00  0.00    +0.048 A 
ATOM      7  S   UNL     1       5.107  -1.499   4.497  0.00  0.00    -0.092 S 
ATOM      8  N   UNL     1       7.691  -2.933   2.047  0.00  0.00    -0.192 N 
ATOM      9  C   UNL     1       7.241  -2.676   0.784  0.00  0.00    +0.204 A 
ATOM     10  N   UNL     1       6.082  -2.033   0.561  0.00  0.00    -0.209 NA
ATOM     11  C   UNL     1       8.194  -3.205  -0.073  0.00  0.00    +0.249 A 
ATOM     12  N   UNL     1       9.160  -3.748   0.657  0.00  0.00    -0.108 NA
ATOM     13  N   UNL     1       8.907  -3.612   1.913  0.00  0.00    -0.057 NA
ATOM     14  H   UNL     1       3.610  -0.648   2.082  0.00  0.00    +0.148 HD
ENDROOT
BRANCH  11  15
ATOM     15  S   UNL     1       8.132  -3.163  -1.833  0.00  0.00    +0.047 S 
ATOM     16  O   UNL     1       8.936  -4.242  -2.293  0.00  0.00    -0.163 OA
ATOM     17  O   UNL     1       6.763  -3.028  -2.189  0.00  0.00    -0.163 OA
BRANCH  15  18
ATOM     18  C   UNL     1       8.935  -1.682  -2.348  0.00  0.00    +0.096 A 
ATOM     19  C   UNL     1       8.207  -0.516  -2.494  0.00  0.00    +0.029 A 
ATOM     20  C   UNL     1       8.836   0.646  -2.898  0.00  0.00    +0.022 A 
ATOM     21  C   UNL     1      10.196   0.643  -3.156  0.00  0.00    +0.041 A 
ATOM     22  C   UNL     1      10.924  -0.524  -3.009  0.00  0.00    +0.022 A 
ATOM     23  C   UNL     1      10.295  -1.685  -2.600  0.00  0.00    +0.029 A 
ATOM     24 CL   UNL     1      10.987   2.103  -3.664  0.00  0.00    -0.084 Cl
ENDBRANCH  15  18
ENDBRANCH  11  15
BRANCH   1  25
ATOM     25  C   UNL     1       3.711  -0.707  -0.038  0.00  0.00    +0.138 C 
BRANCH  25  29
ATOM     26  C   UNL     1      -0.017   1.378   0.010  0.00  0.00    +0.000 A 
ATOM     27  C   UNL     1       1.171   2.086   0.002  0.00  0.00    +0.000 A 
ATOM     28  C   UNL     1       2.377   1.411  -0.013  0.00  0.00    +0.005 A 
ATOM     29  C   UNL     1       2.396   0.029  -0.020  0.00  0.00    -0.030 A 
ATOM     30  C   UNL     1       1.208  -0.679  -0.012  0.00  0.00    +0.005 A 
ATOM     31  C   UNL     1       0.002  -0.004   0.002  0.00  0.00    +0.000 A 
ENDBRANCH  25  29
ENDBRANCH   1  25
TORSDOF 4
