REMARK  Name = ZINC46056759
REMARK  8 active torsions:
REMARK  status: ('A' for Active; 'I' for Inactive)
REMARK    1  A    between atoms: C_1  and  C_2
REMARK    2  A    between atoms: C_5  and  C_30
REMARK    3  A    between atoms: C_6  and  C_8
REMARK    4  A    between atoms: C_8  and  C_10
REMARK    5  A    between atoms: C_18  and  C_29
REMARK    6  A    between atoms: N_20  and  C_21
REMARK    7  A    between atoms: C_24  and  C_28
REMARK    8  A    between atoms: C_25  and  C_27
REMARK                            x       y       z     vdW  Elec       q    Type
REMARK                         _______ _______ _______ _____ _____    ______ ____
ROOT
ATOM      1  C   UNL     1       0.700  -2.192   3.923  0.00  0.00    +0.104 C 
ATOM      2  C   UNL     1      -0.637  -2.149   4.670  0.00  0.00    +0.112 C 
ATOM      3  C   UNL     1      -0.439  -1.817   6.122  0.00  0.00    +0.219 C 
ATOM      4  O   UNL     1      -1.239  -1.092   6.674  0.00  0.00    -0.275 OA
ATOM      5  N   UNL     1       0.602  -2.302   6.832  0.00  0.00    -0.270 N 
ATOM      6  C   UNL     1       1.614  -2.967   6.141  0.00  0.00    +0.133 A 
ATOM      7  C   UNL     1       1.694  -2.941   4.773  0.00  0.00    +0.026 A 
ATOM      8  C   UNL     1       2.796  -3.692   4.393  0.00  0.00    +0.066 A 
ATOM      9  N   UNL     1       3.378  -4.149   5.478  0.00  0.00    -0.170 NA
ATOM     10  N   UNL     1       2.654  -3.696   6.595  0.00  0.00    -0.218 N 
ATOM     11  C   UNL     1       3.248  -3.943   2.978  0.00  0.00    +0.068 C 
ATOM     12  H   UNL     1       0.645  -2.191   7.794  0.00  0.00    +0.156 HD
ENDROOT
BRANCH  10  13
ATOM     13  C   UNL     1       2.960  -3.953   7.939  0.00  0.00    +0.068 A 
ATOM     14  C   UNL     1       2.713  -2.988   8.906  0.00  0.00    +0.028 A 
ATOM     15  C   UNL     1       3.015  -3.244  10.229  0.00  0.00    +0.006 A 
ATOM     16  C   UNL     1       3.564  -4.461  10.591  0.00  0.00    -0.047 A 
ATOM     17  C   UNL     1       3.812  -5.424   9.630  0.00  0.00    -0.046 A 
ATOM     18  C   UNL     1       3.506  -5.176   8.306  0.00  0.00    +0.031 A 
ATOM     19  C   UNL     1       4.410  -6.748  10.029  0.00  0.00    +0.044 C 
ATOM     20  C   UNL     1       3.893  -4.737  12.035  0.00  0.00    +0.044 C 
ENDBRANCH  10  13
BRANCH   1  21
ATOM     21  C   UNL     1       0.523  -2.901   2.605  0.00  0.00    +0.171 C 
ATOM     22  O   UNL     1       0.038  -4.011   2.574  0.00  0.00    -0.291 OA
BRANCH  21  28
ATOM     23  C   UNL     1       2.719   0.913   0.260  0.00  0.00    +0.044 C 
ATOM     24  C   UNL     1       1.995  -0.409   0.219  0.00  0.00    -0.050 A 
ATOM     25  C   UNL     1       1.720  -1.008  -0.998  0.00  0.00    +0.003 A 
ATOM     26  C   UNL     1       1.056  -2.221  -1.045  0.00  0.00    +0.004 A 
ATOM     27  C   UNL     1       0.664  -2.843   0.121  0.00  0.00    -0.040 A 
ATOM     28  C   UNL     1       0.939  -2.244   1.355  0.00  0.00    +0.021 A 
ATOM     29  C   UNL     1       1.615  -1.021   1.395  0.00  0.00    +0.015 A 
ATOM     30  C   UNL     1      -0.060  -4.164   0.068  0.00  0.00    +0.044 C 
ENDBRANCH  21  28
ENDBRANCH   1  21
TORSDOF 3
