REMARK  Name = ZINC15885168
REMARK  5 active torsions:
REMARK  status: ('A' for Active; 'I' for Inactive)
REMARK    1  A    between atoms: C_1  and  N_2
REMARK    2  A    between atoms: C_10  and  N_11
REMARK    3  A    between atoms: N_11  and  N_12
REMARK    4  A    between atoms: C_13  and  C_15
REMARK    5  A    between atoms: C_24  and  O_25
REMARK                            x       y       z     vdW  Elec       q    Type
REMARK                         _______ _______ _______ _____ _____    ______ ____
ROOT
ATOM      1  N   UNL     1       1.875  -5.611   0.170  0.00  0.00    -0.233 N 
ATOM      2  C   UNL     1       1.353  -6.850   0.267  0.00  0.00    +0.264 C 
ATOM      3  O   UNL     1       0.147  -7.004   0.272  0.00  0.00    -0.269 OA
ATOM      4  H   UNL     1       2.837  -5.489   0.166  0.00  0.00    +0.173 HD
ENDROOT
BRANCH   2   5
ATOM      5  C   UNL     1       2.246  -8.021   0.367  0.00  0.00    +0.080 A 
ATOM      6  C   UNL     1       3.620  -7.841   0.367  0.00  0.00    +0.025 A 
ATOM      7  C   UNL     1       4.463  -8.957   0.463  0.00  0.00    -0.017 A 
ATOM      8  C   UNL     1       5.863  -8.810   0.466  0.00  0.00    +0.008 A 
ATOM      9  C   UNL     1       6.655  -9.912   0.560  0.00  0.00    +0.001 A 
ATOM     10  C   UNL     1       6.101 -11.188   0.654  0.00  0.00    +0.001 A 
ATOM     11  C   UNL     1       4.752 -11.369   0.654  0.00  0.00    +0.008 A 
ATOM     12  C   UNL     1       3.900 -10.255   0.559  0.00  0.00    -0.014 A 
ATOM     13  C   UNL     1       2.504 -10.411   0.557  0.00  0.00    +0.054 A 
ATOM     14  C   UNL     1       1.696  -9.316   0.468  0.00  0.00    +0.130 A 
BRANCH  14  15
ATOM     15  O   UNL     1       0.347  -9.474   0.473  0.00  0.00    -0.506 OA
ATOM     16  H   UNL     1      -0.038  -9.591  -0.406  0.00  0.00    +0.292 HD
ENDBRANCH  14  15
ENDBRANCH   2   5
BRANCH   1  17
ATOM     17  N   UNL     1       1.027  -4.500   0.075  0.00  0.00    -0.271 N 
ATOM     18  H   UNL     1       0.065  -4.622   0.079  0.00  0.00    +0.169 HD
BRANCH  17  28
ATOM     19  C   UNL     1      -0.042   1.447  -0.252  0.00  0.00    +0.138 C 
ATOM     20  N   UNL     1      -0.008  -0.009  -0.100  0.00  0.00    -0.270 N 
ATOM     21  C   UNL     1      -1.119  -0.794   0.183  0.00  0.00    +0.044 A 
ATOM     22  C   UNL     1      -2.456  -0.467   0.385  0.00  0.00    +0.024 A 
ATOM     23  C   UNL     1      -3.377  -1.458   0.656  0.00  0.00    +0.002 A 
ATOM     24  C   UNL     1      -2.985  -2.784   0.731  0.00  0.00    +0.001 A 
ATOM     25  C   UNL     1      -1.663  -3.127   0.534  0.00  0.00    +0.010 A 
ATOM     26  C   UNL     1      -0.727  -2.136   0.260  0.00  0.00    +0.010 A 
ATOM     27  C   UNL     1       0.732  -2.159   0.004  0.00  0.00    +0.061 C 
ATOM     28  C   UNL     1       1.553  -3.249  -0.023  0.00  0.00    +0.101 C 
ATOM     29  C   UNL     1       1.102  -0.757  -0.221  0.00  0.00    +0.252 C 
ATOM     30  O   UNL     1       2.221  -0.343  -0.470  0.00  0.00    -0.270 OA
ENDBRANCH  17  28
ENDBRANCH   1  17
TORSDOF 4
