REMARK  Name = ZINC38840634
REMARK  8 active torsions:
REMARK  status: ('A' for Active; 'I' for Inactive)
REMARK    1  A    between atoms: C_1  and  C_2
REMARK    2  A    between atoms: N_11  and  C_12
REMARK    3  A    between atoms: C_12  and  C_13
REMARK    4  A    between atoms: C_19  and  C_21
REMARK    5  A    between atoms: C_21  and  N_22
REMARK    6  A    between atoms: N_22  and  C_23
REMARK    7  A    between atoms: N_22  and  S_24
REMARK    8  A    between atoms: S_24  and  C_27
REMARK                            x       y       z     vdW  Elec       q    Type
REMARK                         _______ _______ _______ _____ _____    ______ ____
ROOT
ATOM      1  C   UNL     1      -0.018   1.503   0.010  0.00  0.00    +0.046 C 
ATOM      2  C   UNL     1       0.002  -0.004   0.002  0.00  0.00    -0.023 A 
ATOM      3  C   UNL     1       0.005  -0.675  -1.193  0.00  0.00    +0.025 A 
ATOM      4  C   UNL     1       0.024  -2.062  -1.246  0.00  0.00    +0.042 A 
ATOM      5  C   UNL     1       0.039  -2.785  -0.066  0.00  0.00    +0.037 A 
ATOM      6  C   UNL     1       0.036  -2.120   1.135  0.00  0.00    +0.042 A 
ATOM      7  C   UNL     1       0.023  -0.710   1.227  0.00  0.00    +0.083 A 
ATOM      8  N   UNL     1       0.028  -0.205   2.480  0.00  0.00    -0.224 NA
ATOM      9  C   UNL     1       0.048  -0.968   3.548  0.00  0.00    +0.168 A 
ATOM     10  S   UNL     1       0.051  -2.610   2.843  0.00  0.00    -0.052 S 
ATOM     11  N   UNL     1       0.056  -0.595   4.882  0.00  0.00    -0.247 N 
ATOM     12  C   UNL     1       0.041   0.711   5.217  0.00  0.00    +0.237 C 
ATOM     13  O   UNL     1       0.022   1.559   4.351  0.00  0.00    -0.274 OA
ATOM     14 CL   UNL     1       0.026  -2.882  -2.776  0.00  0.00    -0.083 Cl
ENDROOT
BRANCH  11  15
ATOM     15  C   UNL     1       0.079  -1.619   5.929  0.00  0.00    +0.147 C 
BRANCH  15  16
ATOM     16  C   UNL     1       1.529  -1.957   6.280  0.00  0.00    +0.136 C 
ATOM     17  C   UNL     1       1.577  -3.065   7.362  0.00  0.00    +0.035 C 
ATOM     18  C   UNL     1       2.978  -3.679   7.094  0.00  0.00    +0.031 C 
ATOM     19  C   UNL     1       3.108  -3.542   5.561  0.00  0.00    +0.160 C 
ATOM     20  O   UNL     1       2.202  -2.514   5.139  0.00  0.00    -0.375 OA
ENDBRANCH  15  16
ENDBRANCH  11  15
BRANCH  12  21
ATOM     21  C   UNL     1       0.049   1.116   6.668  0.00  0.00    +0.205 C 
BRANCH  21  22
ATOM     22  N   UNL     1       0.031   2.578   6.767  0.00  0.00    -0.176 NA
ATOM     23  C   UNL     1      -1.243   3.299   6.718  0.00  0.00    +0.131 C 
BRANCH  22  24
ATOM     24  S   UNL     1       1.450   3.415   6.934  0.00  0.00    +0.029 S 
ATOM     25  O   UNL     1       1.086   4.619   7.595  0.00  0.00    -0.158 OA
ATOM     26  O   UNL     1       2.344   2.495   7.546  0.00  0.00    -0.158 OA
ATOM     27  C   UNL     1       1.985   3.769   5.237  0.00  0.00    +0.215 C 
ENDBRANCH  22  24
ENDBRANCH  21  22
ENDBRANCH  12  21
TORSDOF 5
