REMARK  Name = ZINC65505283
REMARK  4 active torsions:
REMARK  status: ('A' for Active; 'I' for Inactive)
REMARK    1  A    between atoms: C_1  and  C_2
REMARK    2  A    between atoms: C_2  and  C_3
REMARK    3  A    between atoms: C_2  and  N_4
REMARK    4  A    between atoms: C_11  and  C_13
REMARK                            x       y       z     vdW  Elec       q    Type
REMARK                         _______ _______ _______ _____ _____    ______ ____
ROOT
ATOM      1  N   UNL     1      -1.372  -0.511   0.012  0.00  0.00    -0.327 N 
ATOM      2  C   UNL     1      -2.360  -0.239   1.060  0.00  0.00    +0.110 C 
ATOM      3  C   UNL     1      -3.631  -0.983   0.620  0.00  0.00    +0.056 C 
ATOM      4  C   UNL     1      -3.251  -1.641  -0.688  0.00  0.00    -0.025 A 
ATOM      5  C   UNL     1      -1.934  -1.319  -0.977  0.00  0.00    +0.033 A 
ATOM      6  C   UNL     1      -1.358  -1.813  -2.149  0.00  0.00    +0.024 A 
ATOM      7  C   UNL     1      -2.092  -2.606  -3.005  0.00  0.00    +0.006 A 
ATOM      8  C   UNL     1      -3.406  -2.918  -2.709  0.00  0.00    -0.039 A 
ATOM      9  C   UNL     1      -3.982  -2.439  -1.546  0.00  0.00    +0.009 A 
ENDROOT
BRANCH   8  10
ATOM     10  C   UNL     1      -4.207  -3.784  -3.647  0.00  0.00    +0.063 C 
ATOM     11  C   UNL     1      -3.523  -5.146  -3.802  0.00  0.00    +0.109 C 
ATOM     12  C   UNL     1      -2.310  -5.066  -4.680  0.00  0.00    +0.219 C 
ATOM     13  O   UNL     1      -1.341  -5.736  -4.392  0.00  0.00    -0.275 OA
ATOM     14  N   UNL     1      -2.251  -4.281  -5.777  0.00  0.00    -0.269 N 
ATOM     15  C   UNL     1      -3.317  -3.399  -6.010  0.00  0.00    +0.150 A 
ATOM     16  C   UNL     1      -4.278  -3.132  -5.005  0.00  0.00    +0.020 A 
ATOM     17  C   UNL     1      -5.166  -2.260  -5.500  0.00  0.00    +0.111 A 
ATOM     18  N   UNL     1      -4.799  -1.976  -6.771  0.00  0.00    -0.283 N 
ATOM     19  H   UNL     1      -5.259  -1.372  -7.375  0.00  0.00    +0.188 HD
ATOM     20  N   UNL     1      -3.633  -2.708  -7.064  0.00  0.00    -0.158 NA
ATOM     21  H   UNL     1      -1.495  -4.325  -6.384  0.00  0.00    +0.156 HD
ENDBRANCH   8  10
BRANCH   1  23
ATOM     22  C   UNL     1      -0.019   1.526   0.010  0.00  0.00    +0.027 C 
ATOM     23  C   UNL     1       0.002  -0.004   0.002  0.00  0.00    +0.067 C 
ATOM     24  C   UNL     1       0.742  -0.511   1.242  0.00  0.00    +0.027 C 
ENDBRANCH   1  23
TORSDOF 2
