REMARK  Name = ZINC50037953
REMARK  4 active torsions:
REMARK  status: ('A' for Active; 'I' for Inactive)
REMARK    1  A    between atoms: C_4  and  N_21
REMARK    2  A    between atoms: C_5  and  C_7
REMARK    3  A    between atoms: C_9  and  C_12
REMARK    4  A    between atoms: C_12  and  C_13
REMARK                            x       y       z     vdW  Elec       q    Type
REMARK                         _______ _______ _______ _____ _____    ______ ____
ROOT
ATOM      1  C   UNL     1       1.280  -2.158  -0.080  0.00  0.00    +0.260 A 
ATOM      2  N   UNL     1       0.244  -2.959  -0.199  0.00  0.00    -0.191 NA
ATOM      3  C   UNL     1       0.649  -4.231  -0.198  0.00  0.00    +0.176 A 
ATOM      4  N   UNL     1       1.946  -4.266  -0.078  0.00  0.00    -0.061 NA
ATOM      5  O   UNL     1       2.387  -2.918  -0.004  0.00  0.00    -0.333 OA
ENDROOT
BRANCH   1  10
ATOM      6  C   UNL     1       0.441   1.399  -0.936  0.00  0.00    +0.001 A 
ATOM      7  C   UNL     1       1.156   2.089   0.029  0.00  0.00    +0.002 A 
ATOM      8  C   UNL     1       1.912   1.406   0.960  0.00  0.00    +0.023 A 
ATOM      9  C   UNL     1       1.960   0.019   0.935  0.00  0.00    +0.037 A 
ATOM     10  C   UNL     1       1.237  -0.683  -0.041  0.00  0.00    +0.060 A 
ATOM     11  C   UNL     1       0.477   0.021  -0.977  0.00  0.00    +0.015 A 
BRANCH   9  12
ATOM     12  N   UNL     1       2.721  -0.672   1.872  0.00  0.00    -0.357 N 
ATOM     13  H   UNL     1       3.292  -0.184   2.487  0.00  0.00    +0.142 HD
ATOM     14  H   UNL     1       2.682  -1.640   1.910  0.00  0.00    +0.142 HD
ENDBRANCH   9  12
ENDBRANCH   1  10
BRANCH   3  15
ATOM     15  C   UNL     1      -0.251  -5.434  -0.316  0.00  0.00    +0.115 C 
BRANCH  15  16
ATOM     16  C   UNL     1      -0.419  -5.795  -1.769  0.00  0.00    -0.038 A 
ATOM     17  C   UNL     1      -1.448  -5.236  -2.505  0.00  0.00    +0.005 A 
ATOM     18  C   UNL     1      -1.604  -5.566  -3.838  0.00  0.00    +0.022 A 
ATOM     19  C   UNL     1      -0.731  -6.456  -4.437  0.00  0.00    +0.059 A 
ATOM     20  C   UNL     1       0.300  -7.016  -3.700  0.00  0.00    +0.060 A 
ATOM     21  C   UNL     1       0.458  -6.680  -2.367  0.00  0.00    +0.025 A 
ATOM     22 CL   UNL     1       1.396  -8.133  -4.450  0.00  0.00    -0.082 Cl
ATOM     23 CL   UNL     1      -0.926  -6.872  -6.111  0.00  0.00    -0.082 Cl
ENDBRANCH  15  16
ENDBRANCH   3  15
TORSDOF 4
