REMARK  Name = ZINC20438865
REMARK  6 active torsions:
REMARK  status: ('A' for Active; 'I' for Inactive)
REMARK    1  A    between atoms: CB_1  and  CA_2
REMARK    2  A    between atoms: CA_2  and  C_4
REMARK    3  A    between atoms: CA_2  and  N_6
REMARK    4  A    between atoms: C_4  and  O_5
REMARK    5  A    between atoms: C_24  and  C_26
REMARK    6  A    between atoms: C_24  and  C_27
REMARK                            x       y       z     vdW  Elec       q    Type
REMARK                         _______ _______ _______ _____ _____    ______ ____
ROOT
ATOM      1  N   ALA A   1       3.925   5.999   0.001  0.00  0.00    -0.323 N 
ATOM      2  C   UNK A   0       4.228   4.646  -0.012  0.00  0.00    +0.137 A 
ATOM      3  C   UNK A   0       3.220   3.692  -0.008  0.00  0.00    +0.080 A 
ATOM      4  C   UNK A   0       3.523   2.325  -0.021  0.00  0.00    +0.093 A 
ATOM      5  C   UNK A   0       2.368   1.409  -0.015  0.00  0.00    +0.037 A 
ATOM      6  C   UNK A   0       2.390  -0.008  -0.026  0.00  0.00    -0.024 A 
ATOM      7  C   UNK A   0       1.218  -0.697  -0.015  0.00  0.00    +0.022 A 
ATOM      8  C   UNK A   0       0.002  -0.004   0.002  0.00  0.00    +0.128 A 
ATOM      9  N   UNK A   0      -0.016   1.319   0.009  0.00  0.00    -0.224 NA
ATOM     10  C   UNK A   0       1.101   2.017   0.002  0.00  0.00    +0.113 A 
ATOM     11  S   UNK A   0       1.450   3.758   0.012  0.00  0.00    -0.064 S 
ATOM     12  N   UNK A   0      -1.193  -0.710   0.012  0.00  0.00    -0.315 N 
ATOM     13  C   UNK A   0      -1.313  -1.536   1.240  0.00  0.00    +0.106 C 
ATOM     14  C   UNK A   0      -2.836  -1.804   1.340  0.00  0.00    +0.020 C 
ATOM     15  C   UNK A   0      -3.453  -0.468   0.865  0.00  0.00    +0.020 C 
ATOM     16  C   UNK A   0      -2.352   0.210   0.030  0.00  0.00    +0.106 C 
ATOM     17  C   UNK A   0       1.191  -2.204  -0.016  0.00  0.00    +0.199 C 
ATOM     18  O   UNK A   0       2.464  -2.720  -0.403  0.00  0.00    -0.369 OA
ATOM     19  C   UNK A   0       3.549  -2.169   0.353  0.00  0.00    +0.068 C 
ATOM     20  C   UNK A   0       3.724  -0.704  -0.052  0.00  0.00    +0.070 C 
ATOM     21  C   UNK A   0       3.234  -2.257   1.847  0.00  0.00    +0.041 C 
ATOM     22  C   UNK A   0       4.834  -2.944   0.050  0.00  0.00    +0.041 C 
ATOM     23  N   UNK A   0       4.838   2.009  -0.038  0.00  0.00    -0.234 NA
ATOM     24  C   UNK A   0       5.762   2.936  -0.042  0.00  0.00    +0.224 A 
ATOM     25  N   UNK A   0       5.493   4.229  -0.029  0.00  0.00    -0.220 NA
ATOM     26  H   ALA A   1       2.876   6.329   0.014  0.00  0.00    +0.148 HD
ENDROOT
BRANCH   1  28
ATOM     27  CB  ALA A   1       5.449   7.254  -1.444  0.00  0.00    +0.030 C 
ATOM     28  CA  ALA A   1       5.004   6.991  -0.004  0.00  0.00    +0.094 C 
BRANCH  28  29
ATOM     29  C   ALA A   1       4.502   8.294   0.620  0.00  0.00    +0.177 C 
BRANCH  29  30
ATOM     30  O   ALA A   1       3.473   8.850  -0.201  0.00  0.00    -0.393 OA
ATOM     31  H   ALA A   1       2.988   9.794   0.088  0.00  0.00    +0.209 HD
ENDBRANCH  29  30
ENDBRANCH  28  29
ENDBRANCH   1  28
TORSDOF 3
