REMARK  Name = ZINC05418980
REMARK  7 active torsions:
REMARK  status: ('A' for Active; 'I' for Inactive)
REMARK    1  A    between atoms: C_1  and  C_2
REMARK    2  A    between atoms: C_5  and  N_8
REMARK    3  A    between atoms: C_9  and  N_16
REMARK    4  A    between atoms: C_17  and  C_19
REMARK    5  A    between atoms: N_21  and  C_22
REMARK    6  A    between atoms: C_22  and  C_24
REMARK    7  A    between atoms: C_22  and  C_25
REMARK                            x       y       z     vdW  Elec       q    Type
REMARK                         _______ _______ _______ _____ _____    ______ ____
ROOT
ATOM      1  N   UNL     1       2.288   4.344   0.482  0.00  0.00    -0.262 N 
ATOM      2  C   UNL     1       3.345   3.791   1.109  0.00  0.00    +0.304 C 
ATOM      3  O   UNL     1       4.269   4.489   1.473  0.00  0.00    -0.265 OA
ATOM      4  H   UNL     1       1.576   3.779   0.143  0.00  0.00    +0.157 HD
ENDROOT
BRANCH   1   6
ATOM      5  N   UNL     1       1.085   6.463   0.222  0.00  0.00    -0.218 N 
ATOM      6  C   UNL     1       2.218   5.724   0.323  0.00  0.00    +0.133 A 
ATOM      7  C   UNL     1       3.287   6.589   0.244  0.00  0.00    +0.026 A 
ATOM      8  C   UNL     1       2.784   7.869   0.083  0.00  0.00    +0.079 A 
ATOM      9  N   UNL     1       1.461   7.799   0.073  0.00  0.00    -0.168 NA
ATOM     10  C   UNL     1       3.806   8.999  -0.032  0.00  0.00    +0.127 C 
ATOM     11  S   UNL     1       5.354   8.072  -0.389  0.00  0.00    -0.150 S 
ATOM     12  C   UNL     1       4.807   6.446   0.276  0.00  0.00    +0.110 C 
BRANCH   5  17
ATOM     13  C   UNL     1      -4.230   4.479   0.378  0.00  0.00    +0.044 C 
ATOM     14  C   UNL     1      -2.819   5.006   0.336  0.00  0.00    -0.050 A 
ATOM     15  C   UNL     1      -2.499   6.174   1.003  0.00  0.00    +0.005 A 
ATOM     16  C   UNL     1      -1.206   6.660   0.967  0.00  0.00    +0.028 A 
ATOM     17  C   UNL     1      -0.228   5.973   0.261  0.00  0.00    +0.067 A 
ATOM     18  C   UNL     1      -0.554   4.803  -0.412  0.00  0.00    +0.028 A 
ATOM     19  C   UNL     1      -1.847   4.320  -0.369  0.00  0.00    +0.005 A 
ENDBRANCH   5  17
ENDBRANCH   1   6
BRANCH   2  20
ATOM     20  C   UNL     1       3.381   2.318   1.356  0.00  0.00    +0.300 C 
ATOM     21  O   UNL     1       2.457   1.620   0.992  0.00  0.00    -0.265 OA
ATOM     22  N   UNL     1       4.438   1.765   1.982  0.00  0.00    -0.301 N 
ATOM     23  H   UNL     1       5.174   2.324   2.276  0.00  0.00    +0.150 HD
BRANCH  22  24
ATOM     24  C   UNL     1       4.473   0.321   2.224  0.00  0.00    +0.101 C 
ATOM     25  C   UNL     1       5.021  -0.391   0.986  0.00  0.00    +0.033 C 
BRANCH  24  26
ATOM     26  C   UNL     1       5.363   0.031   3.405  0.00  0.00    -0.027 A 
ATOM     27  C   UNL     1       6.547   0.726   3.566  0.00  0.00    +0.005 A 
ATOM     28  C   UNL     1       7.361   0.463   4.651  0.00  0.00    +0.000 A 
ATOM     29  C   UNL     1       6.996  -0.502   5.571  0.00  0.00    +0.000 A 
ATOM     30  C   UNL     1       5.814  -1.201   5.408  0.00  0.00    +0.000 A 
ATOM     31  C   UNL     1       4.998  -0.935   4.325  0.00  0.00    +0.005 A 
ENDBRANCH  24  26
ENDBRANCH  22  24
ENDBRANCH   2  20
TORSDOF 5
