REMARK  Name = ZINC53773393
REMARK  10 active torsions:
REMARK  status: ('A' for Active; 'I' for Inactive)
REMARK    1  A    between atoms: C_1  and  C_2
REMARK    2  A    between atoms: C_2  and  C_3
REMARK    3  A    between atoms: C_2  and  C_4
REMARK    4  A    between atoms: C_4  and  C_6
REMARK    5  A    between atoms: C_4  and  N_15
REMARK    6  A    between atoms: N_8  and  C_9
REMARK    7  A    between atoms: C_9  and  C_10
REMARK    8  A    between atoms: C_10  and  S_11
REMARK    9  A    between atoms: S_11  and  N_14
REMARK   10  A    between atoms: C_16  and  C_18
REMARK                            x       y       z     vdW  Elec       q    Type
REMARK                         _______ _______ _______ _____ _____    ______ ____
ROOT
ATOM      1  C   UNL     1       0.765  -0.592  -1.187  0.00  0.00    +0.162 C 
ENDROOT
BRANCH   1   2
ATOM      2  C   UNL     1       0.152  -0.095  -2.471  0.00  0.00    +0.234 C 
ATOM      3  O   UNL     1      -0.385  -0.875  -3.229  0.00  0.00    -0.274 OA
ATOM      4  N   UNL     1       0.201   1.216  -2.779  0.00  0.00    -0.312 N 
ATOM      5  H   UNL     1       0.565   1.850  -2.141  0.00  0.00    +0.149 HD
BRANCH   4   6
ATOM      6  C   UNL     1      -0.296   1.684  -4.075  0.00  0.00    +0.128 C 
BRANCH   6   7
ATOM      7  C   UNL     1      -0.125   3.202  -4.169  0.00  0.00    +0.203 C 
BRANCH   7   8
ATOM      8  S   UNL     1      -0.741   3.781  -5.774  0.00  0.00    +0.028 S 
ATOM      9  O   UNL     1       0.097   3.307  -6.819  0.00  0.00    -0.158 OA
ATOM     10  O   UNL     1      -2.150   3.619  -5.845  0.00  0.00    -0.158 OA
BRANCH   8  11
ATOM     11  N   UNL     1      -0.504   5.420  -5.754  0.00  0.00    -0.208 NA
ATOM     12  H   UNL     1      -0.335   5.896  -6.582  0.00  0.00    +0.144 HD
ATOM     13  H   UNL     1      -0.534   5.904  -4.914  0.00  0.00    +0.144 HD
ENDBRANCH   8  11
ENDBRANCH   7   8
ENDBRANCH   6   7
ENDBRANCH   4   6
ENDBRANCH   1   2
BRANCH   1  14
ATOM     14  N   UNL     1       1.134  -2.002  -1.336  0.00  0.00    -0.300 N 
ATOM     15  C   UNL     1       2.112  -2.526  -0.571  0.00  0.00    +0.246 C 
ATOM     16  O   UNL     1       2.688  -1.829   0.241  0.00  0.00    -0.270 OA
ATOM     17  H   UNL     1       0.674  -2.558  -1.984  0.00  0.00    +0.150 HD
BRANCH  15  18
ATOM     18  C   UNL     1       2.484  -3.948  -0.721  0.00  0.00    +0.055 A 
ATOM     19  C   UNL     1       1.828  -4.750  -1.658  0.00  0.00    +0.016 A 
ATOM     20  C   UNL     1       2.179  -6.076  -1.793  0.00  0.00    +0.021 A 
ATOM     21  C   UNL     1       3.181  -6.615  -1.001  0.00  0.00    +0.042 A 
ATOM     22  C   UNL     1       3.836  -5.826  -0.071  0.00  0.00    +0.040 A 
ATOM     23  C   UNL     1       3.498  -4.495   0.070  0.00  0.00    +0.054 A 
ATOM     24 CL   UNL     1       4.325  -3.505   1.232  0.00  0.00    -0.083 Cl
ATOM     25 CL   UNL     1       3.617  -8.286  -1.178  0.00  0.00    -0.083 Cl
ENDBRANCH  15  18
ENDBRANCH   1  14
BRANCH   1  27
ATOM     26  C   UNL     1      -1.437  -1.375  -0.303  0.00  0.00    +0.009 C 
ATOM     27  C   UNL     1      -0.248  -0.447  -0.050  0.00  0.00    +0.012 C 
ATOM     28  C   UNL     1       0.418  -0.820   1.276  0.00  0.00    +0.009 C 
ENDBRANCH   1  27
TORSDOF 8
