REMARK  Name = ZINC39579305
REMARK  5 active torsions:
REMARK  status: ('A' for Active; 'I' for Inactive)
REMARK    1  A    between atoms: C_1  and  C_2
REMARK    2  A    between atoms: C_5  and  C_8
REMARK    3  A    between atoms: C_8  and  C_23
REMARK    4  A    between atoms: N_9  and  N_10
REMARK    5  A    between atoms: C_11  and  C_13
REMARK                            x       y       z     vdW  Elec       q    Type
REMARK                         _______ _______ _______ _____ _____    ______ ____
ROOT
ATOM      1  N   UNL     1      -0.053  -4.189  -2.356  0.00  0.00    -0.205 N 
ATOM      2  C   UNL     1      -0.253  -4.848  -3.514  0.00  0.00    +0.263 C 
ATOM      3  O   UNL     1      -0.419  -6.049  -3.508  0.00  0.00    -0.271 OA
ATOM      4  H   UNL     1       0.081  -3.228  -2.361  0.00  0.00    +0.177 HD
ENDROOT
BRANCH   2   5
ATOM      5  C   UNL     1      -0.269  -4.091  -4.818  0.00  0.00    +0.243 C 
ATOM      6  C   UNL     1      -1.623  -3.476  -5.062  0.00  0.00    -0.012 C 
ATOM      7  C   UNL     1      -2.062  -4.046  -6.189  0.00  0.00    +0.065 C 
ATOM      8  C   UNL     1      -3.402  -3.717  -6.810  0.00  0.00    +0.057 C 
ATOM      9  C   UNL     1      -4.271  -3.025  -5.755  0.00  0.00    +0.006 C 
ATOM     10  C   UNL     1      -3.490  -1.873  -5.117  0.00  0.00    +0.005 C 
ATOM     11  C   UNL     1      -2.359  -2.449  -4.253  0.00  0.00    +0.035 C 
ATOM     12  N   UNL     1      -1.144  -4.923  -6.651  0.00  0.00    -0.158 NA
ATOM     13  N   UNL     1      -0.119  -5.013  -5.960  0.00  0.00    -0.170 NA
ENDBRANCH   2   5
BRANCH   1  15
ATOM     14  C   UNL     1       0.269  -4.279  -0.042  0.00  0.00    +0.063 C 
ATOM     15  N   UNL     1      -0.037  -4.892  -1.144  0.00  0.00    -0.184 NA
ATOM     16  C   UNL     1       0.121  -4.987   1.280  0.00  0.00    +0.068 C 
BRANCH  14  21
ATOM     17  C   UNL     1       2.195   1.138  -0.203  0.00  0.00    +0.044 C 
ATOM     18  C   UNL     1       1.690  -0.281  -0.161  0.00  0.00    -0.050 A 
ATOM     19  C   UNL     1       0.884  -0.695   0.885  0.00  0.00    +0.004 A 
ATOM     20  C   UNL     1       0.419  -1.992   0.930  0.00  0.00    +0.010 A 
ATOM     21  C   UNL     1       0.763  -2.890  -0.084  0.00  0.00    -0.003 A 
ATOM     22  C   UNL     1       1.576  -2.465  -1.137  0.00  0.00    +0.010 A 
ATOM     23  C   UNL     1       2.030  -1.163  -1.172  0.00  0.00    +0.004 A 
ENDBRANCH  14  21
ENDBRANCH   1  15
TORSDOF 3
