REMARK  Name = ZINC58378144
REMARK  4 active torsions:
REMARK  status: ('A' for Active; 'I' for Inactive)
REMARK    1  A    between atoms: C_1  and  C_2
REMARK    2  A    between atoms: C_4  and  C_14
REMARK    3  A    between atoms: C_14  and  N_16
REMARK    4  A    between atoms: N_18  and  C_22
REMARK                            x       y       z     vdW  Elec       q    Type
REMARK                         _______ _______ _______ _____ _____    ______ ____
ROOT
ATOM      1  C   UNL     1      -0.126   1.461   0.179  0.00  0.00    +0.056 C 
ATOM      2  C   UNL     1      -0.073  -0.064   0.064  0.00  0.00    +0.220 C 
ATOM      3  C   UNL     1      -1.496  -0.624  -0.053  0.00  0.00    +0.301 C 
ATOM      4  O   UNL     1      -1.411  -2.050  -0.144  0.00  0.00    -0.472 OA
ATOM      5  C   UNL     1      -0.585  -2.671   0.743  0.00  0.00    +0.163 A 
ATOM      6  C   UNL     1      -0.720  -4.035   0.959  0.00  0.00    +0.049 A 
ATOM      7  C   UNL     1       0.114  -4.679   1.853  0.00  0.00    +0.004 A 
ATOM      8  C   UNL     1       1.084  -3.968   2.534  0.00  0.00    +0.004 A 
ATOM      9  C   UNL     1       1.223  -2.609   2.324  0.00  0.00    +0.049 A 
ATOM     10  C   UNL     1       0.388  -1.955   1.429  0.00  0.00    +0.163 A 
ATOM     11  O   UNL     1       0.532  -0.615   1.239  0.00  0.00    -0.481 OA
ENDROOT
BRANCH   3  12
ATOM     12  C   UNL     1      -2.159  -0.074  -1.290  0.00  0.00    +0.283 C 
ATOM     13  O   UNL     1      -2.463  -0.822  -2.200  0.00  0.00    -0.269 OA
BRANCH  12  14
ATOM     14  N   UNL     1      -2.411   1.225  -1.385  0.00  0.00    -0.153 NA
ATOM     15  C   UNL     1      -3.646   1.646  -1.668  0.00  0.00    +0.165 A 
ATOM     16  N   UNL     1      -4.794   0.920  -1.726  0.00  0.00    -0.331 N 
ATOM     17  C   UNL     1      -5.957   1.554  -2.035  0.00  0.00    +0.094 A 
ATOM     18  C   UNL     1      -5.895   2.869  -2.266  0.00  0.00    +0.066 A 
ATOM     19  S   UNL     1      -4.160   3.205  -2.033  0.00  0.00    -0.061 S 
ATOM     20  C   UNL     1      -4.779  -0.521  -1.459  0.00  0.00    +0.150 C 
ENDBRANCH  12  14
ENDBRANCH   3  12
TORSDOF 2
