REMARK  Name = ZINC42981721
REMARK  11 active torsions:
REMARK  status: ('A' for Active; 'I' for Inactive)
REMARK    1  A    between atoms: C_1  and  C_2
REMARK    2  A    between atoms: C_3  and  C_7
REMARK    3  A    between atoms: C_10  and  S_13
REMARK    4  A    between atoms: N_11  and  N_12
REMARK    5  A    between atoms: S_13  and  C_14
REMARK    6  A    between atoms: C_14  and  C_16
REMARK    7  A    between atoms: C_14  and  C_19
REMARK    8  A    between atoms: C_16  and  C_17
REMARK    9  A    between atoms: C_16  and  C_18
REMARK   10  A    between atoms: C_23  and  C_30
REMARK   11  A    between atoms: C_26  and  C_29
REMARK                            x       y       z     vdW  Elec       q    Type
REMARK                         _______ _______ _______ _____ _____    ______ ____
ROOT
ATOM      1  S   UNL     1      -6.354  -0.859  -0.225  0.00  0.00    -0.071 S 
ENDROOT
BRANCH   1   5
ATOM      2  C   UNL     1      -6.941  -2.407  -3.765  0.00  0.00    +0.185 A 
ATOM      3  N   UNL     1      -7.702  -1.339  -3.787  0.00  0.00    -0.127 NA
ATOM      4  N   UNL     1      -7.613  -0.713  -2.668  0.00  0.00    -0.121 NA
ATOM      5  C   UNL     1      -6.789  -1.343  -1.863  0.00  0.00    +0.209 A 
ATOM      6  N   UNL     1      -6.336  -2.447  -2.530  0.00  0.00    -0.224 N 
BRANCH   2   9
ATOM      7  C   UNL     1      -8.322  -2.311  -6.577  0.00  0.00    +0.087 C 
ATOM      8  C   UNL     1      -7.359  -3.361  -6.085  0.00  0.00    +0.112 A 
ATOM      9  C   UNL     1      -6.769  -3.387  -4.860  0.00  0.00    +0.061 A 
ATOM     10  C   UNL     1      -5.926  -4.589  -4.849  0.00  0.00    +0.053 A 
ATOM     11  C   UNL     1      -6.087  -5.165  -6.052  0.00  0.00    +0.196 A 
ATOM     12  O   UNL     1      -6.944  -4.431  -6.778  0.00  0.00    -0.467 OA
ENDBRANCH   2   9
BRANCH   6  13
ATOM     13  N   UNL     1      -5.463  -3.390  -2.068  0.00  0.00    -0.295 N 
ATOM     14  H   UNL     1      -4.511  -3.138  -2.283  0.00  0.00    +0.163 HD
ATOM     15  H   UNL     1      -5.583  -3.540  -1.077  0.00  0.00    +0.163 HD
ENDBRANCH   6  13
ENDBRANCH   1   5
BRANCH   1  16
ATOM     16  C   UNL     1      -7.180   0.741  -0.006  0.00  0.00    +0.143 C 
BRANCH  16  17
ATOM     17  C   UNL     1      -8.673   0.538   0.002  0.00  0.00    +0.229 C 
ATOM     18  O   UNL     1      -9.139  -0.524   0.359  0.00  0.00    -0.274 OA
ATOM     19  N   UNL     1      -9.491   1.535  -0.388  0.00  0.00    -0.300 N 
ATOM     20  C   UNL     1      -8.941   2.784  -0.933  0.00  0.00    +0.111 C 
ATOM     21  C   UNL     1      -9.593   3.058  -2.292  0.00  0.00    +0.004 C 
ATOM     22  C   UNL     1     -11.115   3.058  -2.133  0.00  0.00    +0.009 C 
ATOM     23  C   UNL     1     -11.579   1.685  -1.643  0.00  0.00    +0.004 C 
ATOM     24  C   UNL     1     -10.949   1.393  -0.282  0.00  0.00    +0.111 C 
ATOM     25  C   UNL     1     -13.103   1.676  -1.516  0.00  0.00    +0.009 C 
ATOM     26  C   UNL     1      -9.183   1.967  -3.284  0.00  0.00    +0.009 C 
ENDBRANCH  16  17
BRANCH  16  27
ATOM     27  C   UNL     1      -6.743   1.362   1.322  0.00  0.00    +0.005 C 
ATOM     28  C   UNL     1      -5.238   1.635   1.287  0.00  0.00    +0.009 C 
ATOM     29  C   UNL     1      -7.495   2.676   1.542  0.00  0.00    +0.009 C 
ENDBRANCH  16  27
ENDBRANCH   1  16
TORSDOF 6
