REMARK  Name = ZINC37192937
REMARK  5 active torsions:
REMARK  status: ('A' for Active; 'I' for Inactive)
REMARK    1  A    between atoms: C_1  and  C_2
REMARK    2  A    between atoms: C_5  and  S_9
REMARK    3  A    between atoms: C_6  and  N_8
REMARK    4  A    between atoms: S_9  and  C_10
REMARK    5  A    between atoms: C_10  and  C_11
REMARK                            x       y       z     vdW  Elec       q    Type
REMARK                         _______ _______ _______ _____ _____    ______ ____
ROOT
ATOM      1  S   UNL     1       0.062  -4.537  -0.037  0.00  0.00    -0.117 S 
ENDROOT
BRANCH   1   6
ATOM      2  C   UNL     1      -0.018   1.503   0.010  0.00  0.00    +0.044 C 
ATOM      3  C   UNL     1       0.002  -0.004   0.002  0.00  0.00    -0.049 A 
ATOM      4  C   UNL     1       0.006  -0.687  -1.200  0.00  0.00    +0.004 A 
ATOM      5  C   UNL     1       0.024  -2.069  -1.215  0.00  0.00    +0.017 A 
ATOM      6  C   UNL     1       0.039  -2.775  -0.021  0.00  0.00    +0.029 A 
ATOM      7  C   UNL     1       0.036  -2.086   1.192  0.00  0.00    +0.038 A 
ATOM      8  C   UNL     1       0.023  -0.700   1.197  0.00  0.00    +0.027 A 
BRANCH   7   9
ATOM      9  N   UNL     1       0.051  -2.792   2.401  0.00  0.00    -0.357 N 
ATOM     10  H   UNL     1       0.063  -3.762   2.395  0.00  0.00    +0.142 HD
ATOM     11  H   UNL     1       0.049  -2.312   3.243  0.00  0.00    +0.142 HD
ENDBRANCH   7   9
ENDBRANCH   1   6
BRANCH   1  12
ATOM     12  C   UNL     1       0.058  -4.960  -1.801  0.00  0.00    +0.130 C 
BRANCH  12  13
ATOM     13  C   UNL     1       0.077  -6.459  -1.958  0.00  0.00    +0.059 A 
ATOM     14  C   UNL     1      -1.061  -7.139  -2.336  0.00  0.00    +0.096 A 
ATOM     15  C   UNL     1      -1.024  -8.527  -2.476  0.00  0.00    +0.275 A 
ATOM     16  O   UNL     1      -2.029  -9.135  -2.811  0.00  0.00    -0.266 OA
ATOM     17  N   UNL     1       0.138  -9.204  -2.238  0.00  0.00    -0.171 N 
ATOM     18  C   UNL     1       1.218  -8.451  -1.867  0.00  0.00    +0.199 A 
ATOM     19  N   UNL     1       1.193  -7.149  -1.739  0.00  0.00    -0.225 NA
ATOM     20  S   UNL     1       2.488  -9.680  -1.659  0.00  0.00    -0.036 S 
ATOM     21  C   UNL     1       1.502 -11.109  -2.077  0.00  0.00    +0.182 A 
ATOM     22  N   UNL     1       0.345 -10.576  -2.330  0.00  0.00    -0.163 NA
ENDBRANCH  12  13
ENDBRANCH   1  12
TORSDOF 4
