REMARK  Name = ZINC45068676
REMARK  5 active torsions:
REMARK  status: ('A' for Active; 'I' for Inactive)
REMARK    1  A    between atoms: C_1  and  C_2
REMARK    2  A    between atoms: C_3  and  N_22
REMARK    3  A    between atoms: C_7  and  S_8
REMARK    4  A    between atoms: S_8  and  N_11
REMARK    5  A    between atoms: C_15  and  C_17
REMARK                            x       y       z     vdW  Elec       q    Type
REMARK                         _______ _______ _______ _____ _____    ______ ____
ROOT
ATOM      1  S   UNL     1       0.471   0.146   2.653  0.00  0.00    +0.061 S 
ATOM      2  O   UNL     1       0.907  -1.206   2.611  0.00  0.00    -0.153 OA
ATOM      3  O   UNL     1      -0.192   0.767   1.561  0.00  0.00    -0.153 OA
ENDROOT
BRANCH   1  10
ATOM      4  C   UNL     1       1.126  -0.878   5.421  0.00  0.00    +0.047 C 
ATOM      5  C   UNL     1      -0.219  -0.215   5.268  0.00  0.00    -0.004 A 
ATOM      6  C   UNL     1      -1.067  -0.102   6.362  0.00  0.00    +0.029 A 
ATOM      7  C   UNL     1      -2.305   0.510   6.216  0.00  0.00    +0.023 A 
ATOM      8  C   UNL     1      -2.690   1.003   4.985  0.00  0.00    +0.004 A 
ATOM      9  C   UNL     1      -1.843   0.888   3.897  0.00  0.00    +0.029 A 
ATOM     10  C   UNL     1      -0.607   0.284   4.040  0.00  0.00    +0.110 A 
BRANCH   6  11
ATOM     11  N   UNL     1      -0.675  -0.601   7.606  0.00  0.00    -0.358 N 
ATOM     12  H   UNL     1       0.190  -1.029   7.707  0.00  0.00    +0.142 HD
ATOM     13  H   UNL     1      -1.268  -0.521   8.370  0.00  0.00    +0.142 HD
ENDBRANCH   6  11
ENDBRANCH   1  10
BRANCH   1  14
ATOM     14  N   UNL     1       1.809   1.066   2.979  0.00  0.00    -0.173 NA
ATOM     15  C   UNL     1       3.098   0.558   3.484  0.00  0.00    +0.110 C 
ATOM     16  C   UNL     1       3.753   1.772   4.190  0.00  0.00    +0.019 C 
ATOM     17  C   UNL     1       3.325   2.940   3.263  0.00  0.00    +0.022 C 
ATOM     18  C   UNL     1       1.910   2.522   2.808  0.00  0.00    +0.083 C 
BRANCH  18  19
ATOM     19  C   UNL     1       1.704   2.888   1.336  0.00  0.00    +0.008 C 
ATOM     20  C   UNL     1       2.768   2.189   0.464  0.00  0.00    +0.005 C 
ATOM     21  C   UNL     1       3.108   3.232  -0.629  0.00  0.00    +0.000 C 
ATOM     22  C   UNL     1       3.074   4.569   0.152  0.00  0.00    +0.000 C 
ATOM     23  C   UNL     1       1.899   4.402   1.138  0.00  0.00    +0.005 C 
ENDBRANCH  18  19
ENDBRANCH   1  14
TORSDOF 4
