REMARK  Name = ZINC14869557
REMARK  5 active torsions:
REMARK  status: ('A' for Active; 'I' for Inactive)
REMARK    1  A    between atoms: C_1  and  N_2
REMARK    2  A    between atoms: C_3  and  C_5
REMARK    3  A    between atoms: C_10  and  N_11
REMARK    4  A    between atoms: N_11  and  S_12
REMARK    5  A    between atoms: S_12  and  C_15
REMARK                            x       y       z     vdW  Elec       q    Type
REMARK                         _______ _______ _______ _____ _____    ______ ____
ROOT
ATOM      1  S   UNL     1       3.159  -2.821   3.860  0.00  0.00    +0.072 S 
ATOM      2  O   UNL     1       3.487  -1.934   4.920  0.00  0.00    -0.150 OA
ATOM      3  O   UNL     1       2.852  -4.191   4.081  0.00  0.00    -0.150 OA
ENDROOT
BRANCH   1   4
ATOM      4  C   UNL     1       4.513  -2.783   2.734  0.00  0.00    +0.109 A 
ATOM      5  C   UNL     1       4.735  -3.852   1.885  0.00  0.00    +0.030 A 
ATOM      6  C   UNL     1       5.795  -3.826   1.000  0.00  0.00    +0.025 A 
ATOM      7  C   UNL     1       6.640  -2.724   0.965  0.00  0.00    +0.037 A 
ATOM      8  C   UNL     1       6.414  -1.652   1.818  0.00  0.00    -0.024 A 
ATOM      9  C   UNL     1       5.349  -1.682   2.697  0.00  0.00    +0.034 A 
ATOM     10  C   UNL     1       7.330  -0.457   1.779  0.00  0.00    +0.046 C 
ATOM     11  C   UNL     1       8.753  -0.913   1.454  0.00  0.00    +0.101 C 
ATOM     12  C   UNL     1       8.736  -1.836   0.266  0.00  0.00    +0.218 C 
ATOM     13  O   UNL     1       9.654  -1.810  -0.526  0.00  0.00    -0.275 OA
ATOM     14  N   UNL     1       7.715  -2.691   0.072  0.00  0.00    -0.285 N 
ATOM     15  H   UNL     1       7.725  -3.288  -0.693  0.00  0.00    +0.155 HD
ENDBRANCH   1   4
BRANCH   1  16
ATOM     16  N   UNL     1       1.855  -2.164   3.080  0.00  0.00    -0.216 N 
ATOM     17  H   UNL     1       1.427  -1.369   3.435  0.00  0.00    +0.174 HD
BRANCH  16  23
ATOM     18  C   UNL     1       0.858  -1.952   0.884  0.00  0.00    +0.059 A 
ATOM     19  C   UNL     1       0.382  -2.556  -0.283  0.00  0.00    +0.015 A 
ATOM     20  C   UNL     1       0.415  -3.927  -0.410  0.00  0.00    +0.001 A 
ATOM     21  C   UNL     1       0.918  -4.714   0.614  0.00  0.00    +0.002 A 
ATOM     22  C   UNL     1       1.392  -4.133   1.773  0.00  0.00    +0.025 A 
ATOM     23  C   UNL     1       1.373  -2.751   1.917  0.00  0.00    +0.060 A 
BRANCH  18  26
ATOM     24  C   UNL     1       0.298   1.735   0.175  0.00  0.00    +0.128 C 
ATOM     25  N   UNL     1       0.330   0.278   0.033  0.00  0.00    -0.314 N 
ATOM     26  C   UNL     1       0.826  -0.485   1.027  0.00  0.00    +0.246 C 
ATOM     27  O   UNL     1       1.245   0.036   2.042  0.00  0.00    -0.270 OA
ATOM     28  H   UNL     1      -0.005  -0.138  -0.777  0.00  0.00    +0.149 HD
ENDBRANCH  18  26
ENDBRANCH  16  23
ENDBRANCH   1  16
TORSDOF 4
