REMARK  Name = ZINC09722940
REMARK  10 active torsions:
REMARK  status: ('A' for Active; 'I' for Inactive)
REMARK    1  A    between atoms: C_1  and  C_2
REMARK    2  A    between atoms: C_5  and  N_8
REMARK    3  A    between atoms: N_8  and  C_9
REMARK    4  A    between atoms: N_8  and  S_21
REMARK    5  A    between atoms: C_9  and  C_10
REMARK    6  A    between atoms: N_12  and  C_13
REMARK    7  A    between atoms: S_21  and  C_24
REMARK    8  A    between atoms: C_25  and  C_31
REMARK    9  A    between atoms: N_27  and  C_30
REMARK   10  A    between atoms: C_28  and  C_29
REMARK                            x       y       z     vdW  Elec       q    Type
REMARK                         _______ _______ _______ _____ _____    ______ ____
ROOT
ATOM      1  N   UNL     1       0.002  -0.004   0.002  0.00  0.00    -0.194 N 
ENDROOT
BRANCH   1   6
ATOM      2  C   UNL     1       0.265   5.604  -0.798  0.00  0.00    +0.044 C 
ATOM      3  C   UNL     1       0.195   4.114  -0.586  0.00  0.00    -0.050 A 
ATOM      4  C   UNL     1      -0.802   3.576   0.207  0.00  0.00    +0.005 A 
ATOM      5  C   UNL     1      -0.869   2.211   0.404  0.00  0.00    +0.025 A 
ATOM      6  C   UNL     1       0.067   1.377  -0.195  0.00  0.00    +0.052 A 
ATOM      7  C   UNL     1       1.070   1.921  -0.987  0.00  0.00    +0.025 A 
ATOM      8  C   UNL     1       1.128   3.287  -1.184  0.00  0.00    +0.005 A 
ENDBRANCH   1   6
BRANCH   1   9
ATOM      9  S   UNL     1      -1.339  -0.848  -0.480  0.00  0.00    +0.079 S 
ATOM     10  O   UNL     1      -1.310  -2.087   0.214  0.00  0.00    -0.150 OA
ATOM     11  O   UNL     1      -2.437   0.050  -0.392  0.00  0.00    -0.150 OA
BRANCH   9  12
ATOM     12  C   UNL     1      -1.131  -1.223  -2.189  0.00  0.00    +0.152 A 
ATOM     13  C   UNL     1      -0.523  -2.369  -2.712  0.00  0.00    +0.087 A 
ATOM     14  N   UNL     1      -0.558  -2.291  -4.018  0.00  0.00    -0.174 NA
ATOM     15  N   UNL     1      -1.191  -1.091  -4.367  0.00  0.00    -0.269 N 
ATOM     16  C   UNL     1      -1.537  -0.456  -3.228  0.00  0.00    +0.063 A 
ATOM     17  C   UNL     1      -2.247   0.870  -3.129  0.00  0.00    +0.067 C 
ATOM     18  C   UNL     1      -1.437  -0.611  -5.730  0.00  0.00    +0.172 C 
ATOM     19  C   UNL     1       0.069  -3.499  -1.910  0.00  0.00    +0.069 C 
ENDBRANCH   9  12
ENDBRANCH   1   9
BRANCH   1  20
ATOM     20  C   UNL     1       1.121  -0.707   0.636  0.00  0.00    +0.227 C 
BRANCH  20  21
ATOM     21  C   UNL     1       0.977  -0.631   2.134  0.00  0.00    +0.232 C 
ATOM     22  O   UNL     1       0.033  -0.048   2.624  0.00  0.00    -0.274 OA
ATOM     23  N   UNL     1       1.897  -1.212   2.929  0.00  0.00    -0.311 N 
ATOM     24  H   UNL     1       2.652  -1.678   2.537  0.00  0.00    +0.149 HD
BRANCH  23  25
ATOM     25  C   UNL     1       1.758  -1.138   4.386  0.00  0.00    +0.073 C 
ATOM     26  C   UNL     1       2.363   0.173   4.891  0.00  0.00    +0.022 C 
ATOM     27  C   UNL     1       1.879   0.442   6.317  0.00  0.00    +0.002 C 
ATOM     28  C   UNL     1       0.379   0.156   6.410  0.00  0.00    +0.000 C 
ATOM     29  C   UNL     1       0.146  -1.059   7.311  0.00  0.00    +0.000 C 
ATOM     30  C   UNL     1       0.506  -2.335   6.548  0.00  0.00    +0.000 C 
ATOM     31  C   UNL     1       2.028  -2.476   6.478  0.00  0.00    +0.002 C 
ATOM     32  C   UNL     1       2.490  -2.318   5.028  0.00  0.00    +0.022 C 
ENDBRANCH  23  25
ENDBRANCH  20  21
ENDBRANCH   1  20
TORSDOF 6
