REMARK  Name = ZINC13260301
REMARK  4 active torsions:
REMARK  status: ('A' for Active; 'I' for Inactive)
REMARK    1  A    between atoms: C_1  and  C_2
REMARK    2  A    between atoms: C_11  and  C_13
REMARK    3  A    between atoms: N_15  and  C_16
REMARK    4  A    between atoms: C_21  and  C_22
REMARK                            x       y       z     vdW  Elec       q    Type
REMARK                         _______ _______ _______ _____ _____    ______ ____
ROOT
ATOM      1  C   UNL     1      -2.321  -0.261   0.085  0.00  0.00    +0.248 C 
ATOM      2  O   UNL     1      -1.259  -0.830   0.246  0.00  0.00    -0.270 OA
ATOM      3  N   UNL     1      -2.360   1.084   0.007  0.00  0.00    -0.281 N 
ATOM      4  H   UNL     1      -3.213   1.543  -0.044  0.00  0.00    +0.155 HD
ENDROOT
BRANCH   1  15
ATOM      5  C   UNL     1      -9.301  -4.179  -0.669  0.00  0.00    +0.109 C 
ATOM      6  C   UNL     1      -8.266  -3.100  -0.486  0.00  0.00    +0.217 C 
ATOM      7  O   UNL     1      -8.598  -1.933  -0.497  0.00  0.00    -0.276 OA
ATOM      8  N   UNL     1      -6.971  -3.430  -0.310  0.00  0.00    -0.271 N 
ATOM      9  C   UNL     1      -6.467  -4.799  -0.174  0.00  0.00    +0.118 C 
ATOM     10  C   UNL     1      -4.946  -4.653   0.004  0.00  0.00    +0.056 C 
ATOM     11  C   UNL     1      -4.700  -3.162  -0.048  0.00  0.00    -0.024 A 
ATOM     12  C   UNL     1      -5.919  -2.520  -0.231  0.00  0.00    +0.040 A 
ATOM     13  C   UNL     1      -5.951  -1.124  -0.311  0.00  0.00    +0.024 A 
ATOM     14  C   UNL     1      -4.792  -0.393  -0.204  0.00  0.00    +0.015 A 
ATOM     15  C   UNL     1      -3.568  -1.042  -0.025  0.00  0.00    +0.037 A 
ATOM     16  C   UNL     1      -3.534  -2.437   0.055  0.00  0.00    +0.018 A 
ENDBRANCH   1  15
BRANCH   3  17
ATOM     17  C   UNL     1      -1.175   1.815   0.000  0.00  0.00    +0.048 A 
ATOM     18  C   UNL     1      -0.045   1.307  -0.627  0.00  0.00    +0.025 A 
ATOM     19  C   UNL     1       1.127   2.035  -0.638  0.00  0.00    +0.022 A 
ATOM     20  C   UNL     1       1.189   3.275  -0.020  0.00  0.00    +0.042 A 
ATOM     21  C   UNL     1       0.078   3.793   0.612  0.00  0.00    +0.037 A 
ATOM     22  C   UNL     1      -1.115   3.067   0.631  0.00  0.00    +0.086 A 
ATOM     23 CL   UNL     1       2.671   4.178  -0.042  0.00  0.00    -0.084 Cl
BRANCH  22  24
ATOM     24  C   UNL     1      -2.306   3.615   1.305  0.00  0.00    +0.388 C 
ATOM     25  O   UNL     1      -3.366   3.024   1.242  0.00  0.00    -0.241 OA
ATOM     26  O   UNL     1      -2.220   4.772   1.990  0.00  0.00    -0.241 OA
ENDBRANCH  22  24
ENDBRANCH   3  17
TORSDOF 3
