REMARK  Name = ZINC01921553
REMARK  6 active torsions:
REMARK  status: ('A' for Active; 'I' for Inactive)
REMARK    1  A    between atoms: C_10  and  N_11
REMARK    2  A    between atoms: C_12  and  N_20
REMARK    3  A    between atoms: C_21  and  C_23
REMARK    4  A    between atoms: C_23  and  S_24
REMARK    5  A    between atoms: S_24  and  C_25
REMARK    6  A    between atoms: C_25  and  C_26
REMARK                            x       y       z     vdW  Elec       q    Type
REMARK                         _______ _______ _______ _____ _____    ______ ____
ROOT
ATOM      1  N   UNL     1       1.217  -0.659  -0.107  0.00  0.00    -0.249 N 
ATOM      2  C   UNL     1       0.003  -0.018  -0.028  0.00  0.00    +0.119 A 
ATOM      3  C   UNL     1      -0.034   1.345   0.030  0.00  0.00    +0.112 A 
ATOM      4  C   UNL     1       1.176   2.062   0.006  0.00  0.00    +0.256 A 
ATOM      5  O   UNL     1       1.168   3.280   0.055  0.00  0.00    -0.268 OA
ATOM      6  N   UNL     1       2.344   1.394  -0.073  0.00  0.00    -0.275 N 
ATOM      7  H   UNL     1       3.205   1.901  -0.090  0.00  0.00    +0.173 HD
ATOM      8  C   UNL     1       2.360   0.050  -0.129  0.00  0.00    +0.335 A 
ATOM      9  O   UNL     1       3.425  -0.534  -0.200  0.00  0.00    -0.246 OA
ENDROOT
BRANCH   1  19
ATOM     10  C   UNL     1       1.195  -4.362   3.323  0.00  0.00    +0.001 A 
ATOM     11  C   UNL     1       1.148  -2.972   3.404  0.00  0.00    +0.001 A 
ATOM     12  C   UNL     1       1.170  -2.204   2.280  0.00  0.00    +0.010 A 
ATOM     13  C   UNL     1       1.239  -2.818   1.020  0.00  0.00    +0.006 A 
ATOM     14  C   UNL     1       1.286  -4.232   0.936  0.00  0.00    -0.016 A 
ATOM     15  C   UNL     1       1.262  -4.992   2.119  0.00  0.00    +0.008 A 
ATOM     16  C   UNL     1       1.356  -4.848  -0.324  0.00  0.00    +0.008 A 
ATOM     17  C   UNL     1       1.378  -4.087  -1.453  0.00  0.00    +0.003 A 
ATOM     18  C   UNL     1       1.326  -2.698  -1.383  0.00  0.00    +0.027 A 
ATOM     19  C   UNL     1       1.263  -2.055  -0.166  0.00  0.00    +0.060 A 
ENDBRANCH   1  19
BRANCH   2  20
ATOM     20  N   UNL     1      -1.168  -0.746  -0.006  0.00  0.00    -0.271 N 
ATOM     21  C   UNL     1      -1.848  -0.962  -1.149  0.00  0.00    +0.228 C 
ATOM     22  O   UNL     1      -1.386  -0.595  -2.208  0.00  0.00    -0.275 OA
ATOM     23  H   UNL     1      -1.502  -1.103   0.832  0.00  0.00    +0.156 HD
BRANCH  21  24
ATOM     24  C   UNL     1      -3.183  -1.661  -1.111  0.00  0.00    +0.165 C 
BRANCH  24  25
ATOM     25  S   UNL     1      -3.841  -1.800  -2.796  0.00  0.00    -0.144 S 
BRANCH  25  26
ATOM     26  C   UNL     1      -5.428  -2.651  -2.578  0.00  0.00    +0.143 C 
BRANCH  26  27
ATOM     27  C   UNL     1      -6.089  -2.833  -3.920  0.00  0.00    +0.115 A 
ATOM     28  C   UNL     1      -5.934  -3.891  -4.736  0.00  0.00    +0.045 A 
ATOM     29  C   UNL     1      -6.730  -3.648  -5.878  0.00  0.00    +0.041 A 
ATOM     30  C   UNL     1      -7.325  -2.456  -5.692  0.00  0.00    +0.195 A 
ATOM     31  O   UNL     1      -6.937  -1.970  -4.502  0.00  0.00    -0.467 OA
ENDBRANCH  26  27
ENDBRANCH  25  26
ENDBRANCH  24  25
ENDBRANCH  21  24
ENDBRANCH   2  20
TORSDOF 6
