REMARK  Name = ZINC18219523
REMARK  8 active torsions:
REMARK  status: ('A' for Active; 'I' for Inactive)
REMARK    1  A    between atoms: C_1  and  C_2
REMARK    2  A    between atoms: C_2  and  C_29
REMARK    3  A    between atoms: C_6  and  C_14
REMARK    4  A    between atoms: N_16  and  C_17
REMARK    5  A    between atoms: C_19  and  O_26
REMARK    6  A    between atoms: C_22  and  O_23
REMARK    7  A    between atoms: O_23  and  C_24
REMARK    8  A    between atoms: O_26  and  C_27
REMARK                            x       y       z     vdW  Elec       q    Type
REMARK                         _______ _______ _______ _____ _____    ______ ____
ROOT
ATOM      1  C   UNL     1      -1.131  -4.585   2.119  0.00  0.00    +0.225 C 
ATOM      2  O   UNL     1      -1.508  -3.720   2.880  0.00  0.00    -0.275 OA
ATOM      3  N   UNL     1      -1.315  -5.884   2.429  0.00  0.00    -0.282 N 
ATOM      4  H   UNL     1      -1.087  -6.574   1.787  0.00  0.00    +0.155 HD
ENDROOT
BRANCH   1  10
ATOM      5  C   UNL     1       0.006   1.525   0.021  0.00  0.00    +0.011 C 
ATOM      6  C   UNL     1       0.026  -0.005   0.013  0.00  0.00    -0.023 C 
ATOM      7  C   UNL     1      -1.409  -0.537   0.032  0.00  0.00    +0.086 C 
ATOM      8  C   UNL     1      -1.389  -2.038   0.121  0.00  0.00    +0.162 C 
ATOM      9  C   UNL     1      -0.375  -2.704   0.719  0.00  0.00    +0.026 C 
ATOM     10  C   UNL     1      -0.457  -4.209   0.825  0.00  0.00    +0.119 C 
ATOM     11  C   UNL     1       0.953  -4.800   0.794  0.00  0.00    +0.115 C 
ATOM     12  C   UNL     1       1.849  -4.004   1.705  0.00  0.00    +0.237 C 
ATOM     13  O   UNL     1       2.686  -4.577   2.374  0.00  0.00    -0.274 OA
ATOM     14  N   UNL     1       1.736  -2.684   1.787  0.00  0.00    -0.185 NA
ATOM     15  C   UNL     1       0.719  -2.026   1.266  0.00  0.00    +0.042 C 
ATOM     16  C   UNL     1       0.756  -0.516   1.258  0.00  0.00    +0.060 C 
ATOM     17  O   UNL     1      -2.409  -2.738  -0.408  0.00  0.00    -0.292 OA
ATOM     18  C   UNL     1       0.745  -0.502  -1.243  0.00  0.00    +0.011 C 
ENDBRANCH   1  10
BRANCH   3  19
ATOM     19  C   UNL     1      -1.836  -6.238   3.682  0.00  0.00    +0.079 A 
ATOM     20  C   UNL     1      -1.690  -5.380   4.762  0.00  0.00    +0.074 A 
ATOM     21  C   UNL     1      -2.205  -5.732   6.000  0.00  0.00    +0.140 A 
ATOM     22  C   UNL     1      -2.868  -6.942   6.158  0.00  0.00    +0.086 A 
ATOM     23  C   UNL     1      -3.016  -7.798   5.082  0.00  0.00    +0.071 A 
ATOM     24  C   UNL     1      -2.507  -7.447   3.841  0.00  0.00    +0.143 A 
ATOM     25 CL   UNL     1      -3.513  -7.380   7.709  0.00  0.00    -0.080 Cl
BRANCH  24  26
ATOM     26  O   UNL     1      -2.658  -8.287   2.782  0.00  0.00    -0.493 OA
ATOM     27  C   UNL     1      -3.357  -9.511   3.018  0.00  0.00    +0.277 C 
ENDBRANCH  24  26
BRANCH  21  28
ATOM     28  O   UNL     1      -2.062  -4.892   7.060  0.00  0.00    -0.494 OA
ATOM     29  C   UNL     1      -1.369  -3.665   6.825  0.00  0.00    +0.277 C 
ENDBRANCH  21  28
ENDBRANCH   3  19
TORSDOF 4
