REMARK  Name = ZINC20451700
REMARK  6 active torsions:
REMARK  status: ('A' for Active; 'I' for Inactive)
REMARK    1  A    between atoms: C_1  and  C_2
REMARK    2  A    between atoms: C_3  and  C_12
REMARK    3  A    between atoms: C_5  and  C_7
REMARK    4  A    between atoms: C_12  and  N_13
REMARK    5  A    between atoms: C_16  and  C_25
REMARK    6  A    between atoms: C_16  and  O_31
REMARK                            x       y       z     vdW  Elec       q    Type
REMARK                         _______ _______ _______ _____ _____    ______ ____
ROOT
ATOM      1  N   UNL     1       2.306   0.269   1.174  0.00  0.00    +0.386 N 
ATOM      2  C   UNL     1       2.077   1.708   1.356  0.00  0.00    -0.075 C 
ATOM      3  C   UNL     1       1.317   2.263   0.149  0.00  0.00    +0.021 C 
ATOM      4  C   UNL     1      -0.019   1.527   0.010  0.00  0.00    +0.091 C 
ATOM      5  C   UNL     1       0.248   0.026  -0.132  0.00  0.00    +0.012 C 
ATOM      6  C   UNL     1       1.036  -0.463   1.085  0.00  0.00    -0.062 C 
ATOM      7  C   UNL     1       1.320  -1.959   0.944  0.00  0.00    -0.015 C 
ATOM      8  C   UNL     1       2.137  -2.206  -0.326  0.00  0.00    -0.002 C 
ATOM      9  C   UNL     1       1.348  -1.719  -1.543  0.00  0.00    +0.000 C 
ATOM     10  C   UNL     1       1.058  -0.226  -1.405  0.00  0.00    +0.005 C 
ATOM     11  H   UNL     1       2.839   0.133   0.222  0.00  0.00    -0.081 HD
ENDROOT
BRANCH   4  12
ATOM     12  C   UNL     1      -0.745   2.028  -1.211  0.00  0.00    -0.016 A 
ATOM     13  C   UNL     1      -0.033   2.379  -2.343  0.00  0.00    +0.006 A 
ATOM     14  C   UNL     1      -0.700   2.833  -3.466  0.00  0.00    +0.000 A 
ATOM     15  C   UNL     1      -2.077   2.947  -3.453  0.00  0.00    +0.000 A 
ATOM     16  C   UNL     1      -2.789   2.602  -2.319  0.00  0.00    +0.000 A 
ATOM     17  C   UNL     1      -2.123   2.142  -1.198  0.00  0.00    +0.006 A 
ENDBRANCH   4  12
BRANCH   4  18
ATOM     18  O   UNL     1      -0.817   1.763   1.172  0.00  0.00    -0.384 OA
ATOM     19  H   UNL     1      -1.817   1.312   1.253  0.00  0.00    +0.211 HD
ENDBRANCH   4  18
BRANCH   1  20
ATOM     20  C   UNL     1       3.151  -0.270   2.248  0.00  0.00    -0.018 C 
BRANCH  20  23
ATOM     21  C   UNL     1       3.247   2.149   4.224  0.00  0.00    +0.088 C 
ATOM     22  C   UNL     1       4.364   1.688   3.324  0.00  0.00    +0.124 A 
ATOM     23  C   UNL     1       4.324   0.649   2.473  0.00  0.00    +0.066 A 
ATOM     24  N   UNL     1       5.518   0.570   1.863  0.00  0.00    -0.216 NA
ATOM     25  C   UNL     1       6.283   1.538   2.312  0.00  0.00    +0.231 A 
ATOM     26  O   UNL     1       5.590   2.243   3.222  0.00  0.00    -0.440 OA
BRANCH  25  27
ATOM     27  C   UNL     1       7.675   1.804   1.892  0.00  0.00    +0.074 A 
ATOM     28  C   UNL     1       8.559   2.872   2.376  0.00  0.00    +0.054 A 
ATOM     29  C   UNL     1       9.718   2.721   1.715  0.00  0.00    +0.195 A 
ATOM     30  O   UNL     1       9.616   1.671   0.886  0.00  0.00    -0.470 OA
ATOM     31  C   UNL     1       8.405   1.106   0.980  0.00  0.00    +0.208 A 
ENDBRANCH  25  27
ENDBRANCH  20  23
ENDBRANCH   1  20
TORSDOF 5
