REMARK  Name = ZINC08673295
REMARK  9 active torsions:
REMARK  status: ('A' for Active; 'I' for Inactive)
REMARK    1  A    between atoms: C_1  and  C_2
REMARK    2  A    between atoms: C_4  and  C_29
REMARK    3  A    between atoms: C_6  and  N_8
REMARK    4  A    between atoms: C_9  and  C_11
REMARK    5  A    between atoms: C_11  and  N_12
REMARK    6  A    between atoms: C_15  and  S_23
REMARK    7  A    between atoms: S_23  and  N_26
REMARK    8  A    between atoms: N_26  and  C_27
REMARK    9  A    between atoms: N_26  and  C_28
REMARK                            x       y       z     vdW  Elec       q    Type
REMARK                         _______ _______ _______ _____ _____    ______ ____
ROOT
ATOM      1  N   UNL     1       0.370  -1.959   5.973  0.00  0.00    -0.261 N 
ATOM      2  C   UNL     1       1.644  -1.532   6.335  0.00  0.00    +0.052 A 
ATOM      3  C   UNL     1       2.682  -1.617   5.414  0.00  0.00    +0.053 A 
ATOM      4  C   UNL     1       3.954  -1.204   5.759  0.00  0.00    +0.107 A 
ATOM      5  C   UNL     1       4.210  -0.701   7.022  0.00  0.00    +0.030 A 
ATOM      6  C   UNL     1       3.187  -0.609   7.948  0.00  0.00    +0.018 A 
ATOM      7  C   UNL     1       1.909  -1.020   7.607  0.00  0.00    +0.030 A 
ATOM      8  S   UNL     1       0.592  -0.898   8.775  0.00  0.00    -0.114 S 
ATOM      9  C   UNL     1      -0.859  -0.645   7.708  0.00  0.00    +0.170 C 
ATOM     10  C   UNL     1      -0.775  -1.589   6.540  0.00  0.00    +0.230 C 
ATOM     11  O   UNL     1      -1.808  -2.043   6.095  0.00  0.00    -0.274 OA
ENDROOT
BRANCH   4  12
ATOM     12  S   UNL     1       5.260  -1.317   4.582  0.00  0.00    +0.060 S 
ATOM     13  O   UNL     1       6.471  -1.375   5.323  0.00  0.00    -0.153 OA
ATOM     14  O   UNL     1       4.885  -2.326   3.655  0.00  0.00    -0.153 OA
BRANCH  12  15
ATOM     15  N   UNL     1       5.288   0.110   3.742  0.00  0.00    -0.183 NA
ATOM     16  C   UNL     1       6.108   1.226   4.220  0.00  0.00    +0.131 C 
ATOM     17  C   UNL     1       4.492   0.257   2.521  0.00  0.00    +0.131 C 
ENDBRANCH  12  15
ENDBRANCH   4  12
BRANCH   1  18
ATOM     18  C   UNL     1       0.280  -2.900   4.854  0.00  0.00    +0.209 C 
BRANCH  18  20
ATOM     19  N   UNL     1       0.052  -2.797   2.393  0.00  0.00    -0.284 N 
ATOM     20  C   UNL     1       0.150  -2.134   3.562  0.00  0.00    +0.235 C 
ATOM     21  O   UNL     1       0.134  -0.922   3.575  0.00  0.00    -0.274 OA
ATOM     22  H   UNL     1      -0.003  -3.766   2.387  0.00  0.00    +0.155 HD
BRANCH  19  28
ATOM     23  C   UNL     1       1.264  -2.495  -2.362  0.00  0.00    +0.044 C 
ATOM     24  C   UNL     1       0.609  -1.918  -1.134  0.00  0.00    -0.048 A 
ATOM     25  C   UNL     1      -0.016  -0.686  -1.198  0.00  0.00    +0.006 A 
ATOM     26  C   UNL     1      -0.619  -0.154  -0.073  0.00  0.00    -0.048 A 
ATOM     27  C   UNL     1      -0.598  -0.851   1.119  0.00  0.00    +0.026 A 
ATOM     28  C   UNL     1       0.029  -2.088   1.187  0.00  0.00    +0.034 A 
ATOM     29  C   UNL     1       0.629  -2.623   0.054  0.00  0.00    +0.026 A 
ATOM     30  C   UNL     1      -1.298   1.189  -0.148  0.00  0.00    +0.044 C 
ENDBRANCH  19  28
ENDBRANCH  18  20
ENDBRANCH   1  18
TORSDOF 5
