REMARK  Name = ZINC12437334
REMARK  8 active torsions:
REMARK  status: ('A' for Active; 'I' for Inactive)
REMARK    1  A    between atoms: C_1  and  C_2
REMARK    2  A    between atoms: C_2  and  O_3
REMARK    3  A    between atoms: O_3  and  C_4
REMARK    4  A    between atoms: C_6  and  C_11
REMARK    5  A    between atoms: C_9  and  O_10
REMARK    6  A    between atoms: N_15  and  N_19
REMARK    7  A    between atoms: C_20  and  C_22
REMARK    8  A    between atoms: C_25  and  C_28
REMARK                            x       y       z     vdW  Elec       q    Type
REMARK                         _______ _______ _______ _____ _____    ______ ____
ROOT
ATOM      1  C   UNL     1      -6.890   2.663   8.681  0.00  0.00    +0.028 C 
ATOM      2  C   UNL     1      -5.844   3.147   7.963  0.00  0.00    +0.079 C 
ATOM      3  C   UNL     1      -5.114   2.537   6.835  0.00  0.00    +0.275 C 
ATOM      4  O   UNL     1      -5.410   1.438   6.401  0.00  0.00    -0.267 OA
ATOM      5  N   UNL     1      -4.120   3.242   6.321  0.00  0.00    -0.169 N 
ATOM      6  C   UNL     1      -3.800   4.461   6.800  0.00  0.00    +0.138 C 
ATOM      7  S   UNL     1      -2.564   5.520   6.270  0.00  0.00    -0.026 S 
ATOM      8  S   UNL     1      -4.977   4.702   8.121  0.00  0.00    -0.059 S 
ENDROOT
BRANCH   1  11
ATOM      9  C   UNL     1      -7.065   5.131  11.499  0.00  0.00    +0.162 A 
ATOM     10  C   UNL     1      -6.618   4.457  10.380  0.00  0.00    +0.057 A 
ATOM     11  C   UNL     1      -7.357   3.381   9.874  0.00  0.00    -0.020 A 
ATOM     12  C   UNL     1      -8.540   2.987  10.512  0.00  0.00    +0.012 A 
ATOM     13  C   UNL     1      -8.975   3.662  11.631  0.00  0.00    +0.050 A 
ATOM     14  C   UNL     1      -8.243   4.733  12.129  0.00  0.00    +0.158 A 
BRANCH  14  15
ATOM     15  O   UNL     1      -8.678   5.394  13.234  0.00  0.00    -0.503 OA
ATOM     16  H   UNL     1      -8.343   5.032  14.066  0.00  0.00    +0.292 HD
ENDBRANCH  14  15
BRANCH   9  17
ATOM     17  O   UNL     1      -6.353   6.180  11.991  0.00  0.00    -0.489 OA
BRANCH  17  19
ATOM     18  C   UNL     1      -4.496   7.727  11.990  0.00  0.00    +0.048 C 
ATOM     19  C   UNL     1      -5.155   6.533  11.296  0.00  0.00    +0.226 C 
ENDBRANCH  17  19
ENDBRANCH   9  17
ENDBRANCH   1  11
BRANCH   5  20
ATOM     20  N   UNL     1      -3.387   2.712   5.250  0.00  0.00    -0.222 N 
ATOM     21  C   UNL     1      -2.145   2.232   5.457  0.00  0.00    +0.261 C 
ATOM     22  O   UNL     1      -1.661   2.257   6.571  0.00  0.00    -0.269 OA
ATOM     23  H   UNL     1      -3.774   2.692   4.361  0.00  0.00    +0.174 HD
BRANCH  21  24
ATOM     24  C   UNL     1      -1.372   1.673   4.327  0.00  0.00    +0.038 A 
ATOM     25  C   UNL     1      -0.085   1.175   4.538  0.00  0.00    +0.013 A 
ATOM     26  C   UNL     1       0.631   0.655   3.479  0.00  0.00    +0.004 A 
ATOM     27  C   UNL     1       0.077   0.627   2.212  0.00  0.00    -0.050 A 
ATOM     28  C   UNL     1      -1.196   1.124   1.996  0.00  0.00    +0.004 A 
ATOM     29  C   UNL     1      -1.925   1.642   3.046  0.00  0.00    +0.013 A 
ATOM     30  C   UNL     1       0.866   0.058   1.061  0.00  0.00    +0.044 C 
ENDBRANCH  21  24
ENDBRANCH   5  20
TORSDOF 6
