REMARK  Name = ZINC36164859
REMARK  5 active torsions:
REMARK  status: ('A' for Active; 'I' for Inactive)
REMARK    1  A    between atoms: C_1  and  C_2
REMARK    2  A    between atoms: C_6  and  C_8
REMARK    3  A    between atoms: C_8  and  N_9
REMARK    4  A    between atoms: C_13  and  C_30
REMARK    5  A    between atoms: C_23  and  C_25
REMARK                            x       y       z     vdW  Elec       q    Type
REMARK                         _______ _______ _______ _____ _____    ______ ____
ROOT
ATOM      1  N   UNL     1       1.461  -3.124   2.868  0.00  0.00    -0.264 N 
ATOM      2  C   UNL     1       2.237  -4.234   2.526  0.00  0.00    +0.043 A 
ATOM      3  C   UNL     1       1.937  -5.349   1.748  0.00  0.00    +0.024 A 
ATOM      4  C   UNL     1       2.884  -6.332   1.548  0.00  0.00    +0.005 A 
ATOM      5  C   UNL     1       4.139  -6.218   2.118  0.00  0.00    -0.050 A 
ATOM      6  C   UNL     1       4.446  -5.114   2.893  0.00  0.00    +0.012 A 
ATOM      7  C   UNL     1       3.504  -4.130   3.096  0.00  0.00    +0.017 A 
ATOM      8  C   UNL     1       3.499  -2.840   3.859  0.00  0.00    +0.188 C 
ATOM      9  C   UNL     1       2.134  -2.254   3.647  0.00  0.00    +0.259 C 
ATOM     10  O   UNL     1       1.718  -1.204   4.091  0.00  0.00    -0.272 OA
ATOM     11  N   UNL     1       4.572  -1.934   3.456  0.00  0.00    -0.268 N 
ATOM     12  C   UNL     1       5.588  -1.660   4.475  0.00  0.00    +0.121 C 
ATOM     13  C   UNL     1       4.971  -1.720   5.905  0.00  0.00    +0.091 C 
ATOM     14  S   UNL     1       3.811  -3.138   5.642  0.00  0.00    -0.120 S 
ATOM     15  C   UNL     1       4.623  -1.385   2.227  0.00  0.00    +0.284 C 
ATOM     16  O   UNL     1       3.799  -1.696   1.387  0.00  0.00    -0.267 OA
ATOM     17  C   UNL     1       5.169  -7.295   1.896  0.00  0.00    +0.044 C 
ENDROOT
BRANCH  15  18
ATOM     18  C   UNL     1       5.671  -0.412   1.901  0.00  0.00    +0.189 A 
ATOM     19  C   UNL     1       5.768   0.305   0.743  0.00  0.00    +0.054 A 
ATOM     20  C   UNL     1       6.914   1.107   0.860  0.00  0.00    +0.042 A 
ATOM     21  C   UNL     1       7.459   0.848   2.069  0.00  0.00    +0.196 A 
ATOM     22  O   UNL     1       6.704  -0.064   2.696  0.00  0.00    -0.458 OA
ENDBRANCH  15  18
BRANCH   1  23
ATOM     23  C   UNL     1       0.078  -2.926   2.428  0.00  0.00    +0.149 C 
BRANCH  23  29
ATOM     24  C   UNL     1      -0.032   1.390  -0.104  0.00  0.00    +0.044 C 
ATOM     25  C   UNL     1       0.017  -0.117  -0.093  0.00  0.00    -0.050 A 
ATOM     26  C   UNL     1       0.054  -0.815  -1.286  0.00  0.00    +0.003 A 
ATOM     27  C   UNL     1       0.098  -2.196  -1.277  0.00  0.00    +0.001 A 
ATOM     28  C   UNL     1       0.106  -2.880  -0.075  0.00  0.00    +0.005 A 
ATOM     29  C   UNL     1       0.070  -2.181   1.117  0.00  0.00    -0.029 A 
ATOM     30  C   UNL     1       0.030  -0.799   1.108  0.00  0.00    +0.008 A 
ENDBRANCH  23  29
ENDBRANCH   1  23
TORSDOF 3
