REMARK  Name = ZINC63125959
REMARK  4 active torsions:
REMARK  status: ('A' for Active; 'I' for Inactive)
REMARK    1  A    between atoms: C_1  and  C_2
REMARK    2  A    between atoms: N_4  and  C_14
REMARK    3  A    between atoms: C_6  and  C_8
REMARK    4  A    between atoms: C_14  and  N_15
REMARK                            x       y       z     vdW  Elec       q    Type
REMARK                         _______ _______ _______ _____ _____    ______ ____
ROOT
ATOM      1  C   UNL     1      -0.019   1.526   0.010  0.00  0.00    +0.039 C 
ATOM      2  C   UNL     1       0.002  -0.004   0.002  0.00  0.00    +0.130 C 
ATOM      3  C   UNL     1       0.723  -0.499  -1.255  0.00  0.00    +0.117 C 
ATOM      4  N   UNL     1       0.808  -1.966  -1.219  0.00  0.00    -0.279 NA
ATOM      5  C   UNL     1       1.523  -2.417  -0.017  0.00  0.00    +0.122 C 
ATOM      6  C   UNL     1       0.794  -1.904   1.227  0.00  0.00    +0.163 C 
ATOM      7  O   UNL     1       0.694  -0.479   1.160  0.00  0.00    -0.366 OA
ENDROOT
BRANCH   6   8
ATOM      8  C   UNL     1       1.566  -2.296   2.461  0.00  0.00    -0.018 A 
ATOM      9  C   UNL     1       2.603  -1.500   2.910  0.00  0.00    +0.006 A 
ATOM     10  C   UNL     1       3.311  -1.861   4.041  0.00  0.00    +0.000 A 
ATOM     11  C   UNL     1       2.981  -3.017   4.724  0.00  0.00    +0.000 A 
ATOM     12  C   UNL     1       1.943  -3.812   4.276  0.00  0.00    +0.000 A 
ATOM     13  C   UNL     1       1.232  -3.449   3.147  0.00  0.00    +0.006 A 
ENDBRANCH   6   8
BRANCH   4  14
ATOM     14  C   UNL     1       1.444  -2.486  -2.437  0.00  0.00    +0.216 C 
BRANCH  14  15
ATOM     15  N   UNL     1       0.457  -2.543  -3.518  0.00  0.00    -0.261 N 
ATOM     16  C   UNL     1      -0.376  -3.621  -3.818  0.00  0.00    +0.091 A 
ATOM     17  C   UNL     1      -0.542  -4.879  -3.260  0.00  0.00    +0.030 A 
ATOM     18  C   UNL     1      -1.472  -5.750  -3.794  0.00  0.00    +0.002 A 
ATOM     19  C   UNL     1      -2.237  -5.369  -4.883  0.00  0.00    +0.004 A 
ATOM     20  C   UNL     1      -2.076  -4.117  -5.444  0.00  0.00    +0.048 A 
ATOM     21  C   UNL     1      -1.145  -3.237  -4.915  0.00  0.00    +0.157 A 
ATOM     22  O   UNL     1      -0.774  -1.975  -5.245  0.00  0.00    -0.407 OA
ATOM     23  C   UNL     1       0.183  -1.562  -4.400  0.00  0.00    +0.422 A 
ATOM     24  O   UNL     1       0.722  -0.472  -4.428  0.00  0.00    -0.223 OA
ENDBRANCH  14  15
ENDBRANCH   4  14
TORSDOF 3
