REMARK  Name = ZINC60127999
REMARK  2 active torsions:
REMARK  status: ('A' for Active; 'I' for Inactive)
REMARK    1  A    between atoms: N_12  and  C_13
REMARK    2  A    between atoms: C_13  and  C_14
REMARK                            x       y       z     vdW  Elec       q    Type
REMARK                         _______ _______ _______ _____ _____    ______ ____
ROOT
ATOM      1  C   UNL     1       1.804  -4.655  -0.048  0.00  0.00    +0.000 A 
ATOM      2  C   UNL     1       3.185  -4.583  -0.061  0.00  0.00    +0.002 A 
ATOM      3  C   UNL     1       3.816  -3.357  -0.058  0.00  0.00    +0.024 A 
ATOM      4  C   UNL     1       3.066  -2.180  -0.043  0.00  0.00    +0.041 A 
ATOM      5  C   UNL     1       1.683  -2.263  -0.030  0.00  0.00    -0.024 A 
ATOM      6  C   UNL     1       1.055  -3.494  -0.033  0.00  0.00    +0.005 A 
ATOM      7  C   UNL     1       1.117  -0.861  -0.015  0.00  0.00    +0.056 C 
ATOM      8  C   UNL     1       2.352   0.056  -0.021  0.00  0.00    +0.120 C 
ATOM      9  N   UNL     1       3.503  -0.851  -0.038  0.00  0.00    -0.255 N 
ATOM     10  C   UNL     1       4.793  -0.462  -0.048  0.00  0.00    +0.307 C 
ATOM     11  O   UNL     1       5.679  -1.290   0.031  0.00  0.00    -0.252 OA
ATOM     12  N   UNL     1       5.101   0.847  -0.144  0.00  0.00    -0.299 N 
ATOM     13  H   UNL     1       4.396   1.513  -0.134  0.00  0.00    +0.150 HD
ENDROOT
BRANCH  12  14
ATOM     14  C   UNL     1       6.501   1.263  -0.266  0.00  0.00    +0.109 C 
BRANCH  14  15
ATOM     15  C   UNL     1       6.573   2.788  -0.359  0.00  0.00    +0.010 C 
ATOM     16  C   UNL     1       8.040   3.235  -0.371  0.00  0.00    +0.009 C 
ATOM     17  C   UNL     1       8.082   4.762  -0.284  0.00  0.00    +0.027 C 
ATOM     18  C   UNL     1       7.153   5.363  -1.298  0.00  0.00    -0.031 C 
ATOM     19  C   UNL     1       6.207   4.710  -1.892  0.00  0.00    -0.031 C 
ATOM     20  C   UNL     1       5.909   3.257  -1.655  0.00  0.00    +0.032 C 
ENDBRANCH  14  15
ENDBRANCH  12  14
TORSDOF 2
