REMARK  Name = ZINC07607241
REMARK  13 active torsions:
REMARK  status: ('A' for Active; 'I' for Inactive)
REMARK    1  A    between atoms: C_1  and  C_2
REMARK    2  A    between atoms: C_3  and  C_30
REMARK    3  A    between atoms: N_4  and  C_24
REMARK    4  A    between atoms: C_5  and  N_9
REMARK    5  A    between atoms: C_6  and  C_7
REMARK    6  A    between atoms: C_10  and  C_12
REMARK    7  A    between atoms: C_12  and  N_56
REMARK    8  A    between atoms: C_13  and  N_56
REMARK    9  A    between atoms: C_14  and  C_15
REMARK   10  A    between atoms: C_14  and  N_56
REMARK   11  A    between atoms: C_18  and  O_22
REMARK   12  A    between atoms: O_22  and  C_23
REMARK   13  A    between atoms: C_24  and  C_25
REMARK                            x       y       z     vdW  Elec       q    Type
REMARK                         _______ _______ _______ _____ _____    ______ ____
ROOT
ATOM      1  N   UNL     1      -0.979   0.744  -4.693  0.00  0.00    -0.272 N 
ATOM      2  C   UNL     1      -1.522   0.635  -3.465  0.00  0.00    +0.202 C 
ATOM      3  O   UNL     1      -2.704   0.857  -3.303  0.00  0.00    -0.278 OA
ATOM      4  H   UNL     1      -0.036   0.559  -4.824  0.00  0.00    +0.156 HD
ENDROOT
BRANCH   1   9
ATOM      5  C   UNL     1      -3.971   3.341  -7.830  0.00  0.00    +0.047 C 
ATOM      6  C   UNL     1      -3.118   2.266  -7.208  0.00  0.00    -0.011 A 
ATOM      7  C   UNL     1      -2.852   1.055  -7.724  0.00  0.00    +0.022 A 
ATOM      8  N   UNL     1      -2.037   0.366  -6.866  0.00  0.00    -0.324 N 
ATOM      9  C   UNL     1      -1.768   1.121  -5.770  0.00  0.00    +0.124 A 
ATOM     10  C   UNL     1      -2.417   2.338  -5.920  0.00  0.00    +0.095 A 
ATOM     11  C   UNL     1      -3.365   0.538  -9.044  0.00  0.00    +0.064 C 
BRANCH  10  12
ATOM     12  C   UNL     1      -2.406   3.440  -5.005  0.00  0.00    +0.103 C 
ATOM     13  N   UNL     1      -2.397   4.314  -4.280  0.00  0.00    -0.191 NA
ENDBRANCH  10  12
BRANCH   8  14
ATOM     14  C   UNL     1      -1.532  -0.990  -7.096  0.00  0.00    +0.197 C 
BRANCH  14  15
ATOM     15  C   UNL     1      -2.515  -1.992  -6.548  0.00  0.00    +0.124 A 
ATOM     16  C   UNL     1      -3.471  -2.623  -7.254  0.00  0.00    +0.046 A 
ATOM     17  C   UNL     1      -4.155  -3.469  -6.351  0.00  0.00    +0.041 A 
ATOM     18  C   UNL     1      -3.582  -3.298  -5.146  0.00  0.00    +0.195 A 
ATOM     19  O   UNL     1      -2.589  -2.402  -5.272  0.00  0.00    -0.466 OA
ENDBRANCH  14  15
ENDBRANCH   8  14
ENDBRANCH   1   9
BRANCH   2  20
ATOM     20  C   UNL     1      -0.662   0.239  -2.292  0.00  0.00    +0.019 C 
BRANCH  20  22
ATOM     21  C   UNL     1      -1.623   1.757  -0.669  0.00  0.00    -0.095 C 
ATOM     22  N   UNL     1      -1.468   0.339  -1.058  0.00  0.00    +0.386 N 
ATOM     23  H   UNL     1      -2.397  -0.062  -1.232  0.00  0.00    -0.081 HD
BRANCH  22  24
ATOM     24  C   UNL     1      -0.816  -0.415   0.034  0.00  0.00    -0.043 C 
BRANCH  24  25
ATOM     25  C   UNL     1      -1.758  -0.482   1.208  0.00  0.00    -0.061 A 
ATOM     26  C   UNL     1      -1.711   0.493   2.187  0.00  0.00    +0.005 A 
ATOM     27  C   UNL     1      -2.576   0.438   3.263  0.00  0.00    +0.049 A 
ATOM     28  C   UNL     1      -3.486  -0.603   3.367  0.00  0.00    +0.155 A 
ATOM     29  C   UNL     1      -3.529  -1.585   2.386  0.00  0.00    +0.165 A 
ATOM     30  C   UNL     1      -2.664  -1.522   1.308  0.00  0.00    +0.044 A 
ATOM     31  F   UNL     1      -4.414  -2.602   2.484  0.00  0.00    -0.202 F 
BRANCH  28  32
ATOM     32  O   UNL     1      -4.335  -0.663   4.428  0.00  0.00    -0.492 OA
ATOM     33  C   UNL     1      -4.234   0.382   5.398  0.00  0.00    +0.277 C 
ENDBRANCH  28  32
ENDBRANCH  24  25
ENDBRANCH  22  24
ENDBRANCH  20  22
ENDBRANCH   2  20
TORSDOF 9
