REMARK  Name = ZINC33086847
REMARK  6 active torsions:
REMARK  status: ('A' for Active; 'I' for Inactive)
REMARK    1  A    between atoms: C_1  and  C_2
REMARK    2  A    between atoms: C_5  and  S_8
REMARK    3  A    between atoms: S_8  and  N_11
REMARK    4  A    between atoms: C_15  and  C_17
REMARK    5  A    between atoms: C_18  and  C_23
REMARK    6  A    between atoms: C_21  and  C_22
REMARK                            x       y       z     vdW  Elec       q    Type
REMARK                         _______ _______ _______ _____ _____    ______ ____
ROOT
ATOM      1  N   UNL     1       4.297   2.570  -1.610  0.00  0.00    -0.169 NA
ATOM      2  C   UNL     1       3.895   3.733  -2.422  0.00  0.00    +0.110 C 
ATOM      3  C   UNL     1       3.963   3.236  -3.888  0.00  0.00    +0.019 C 
ATOM      4  C   UNL     1       5.207   2.310  -3.845  0.00  0.00    +0.027 C 
ATOM      5  C   UNL     1       5.123   1.680  -2.438  0.00  0.00    +0.115 C 
ENDROOT
BRANCH   5   6
ATOM      6  C   UNL     1       6.503   1.561  -1.844  0.00  0.00    +0.036 A 
ATOM      7  C   UNL     1       7.273   0.390  -1.658  0.00  0.00    +0.086 A 
ATOM      8  N   UNL     1       8.393   0.769  -1.114  0.00  0.00    -0.083 NA
ATOM      9  O   UNL     1       8.422   1.966  -0.944  0.00  0.00    -0.359 OA
ATOM     10  C   UNL     1       7.295   2.552  -1.371  0.00  0.00    +0.139 A 
ATOM     11  C   UNL     1       6.972   4.023  -1.329  0.00  0.00    +0.089 C 
ATOM     12  C   UNL     1       6.875  -1.019  -2.018  0.00  0.00    +0.069 C 
ENDBRANCH   5   6
BRANCH   1  13
ATOM     13  S   UNL     1       3.891   2.312  -0.025  0.00  0.00    +0.061 S 
ATOM     14  O   UNL     1       3.608   3.588   0.534  0.00  0.00    -0.153 OA
ATOM     15  O   UNL     1       4.882   1.448   0.512  0.00  0.00    -0.153 OA
BRANCH  13  20
ATOM     16  C   UNL     1      -1.293  -0.775   0.011  0.00  0.00    +0.044 C 
ATOM     17  C   UNL     1       0.002  -0.004   0.002  0.00  0.00    -0.050 A 
ATOM     18  C   UNL     1      -0.017   1.378   0.010  0.00  0.00    +0.005 A 
ATOM     19  C   UNL     1       1.171   2.086   0.002  0.00  0.00    +0.029 A 
ATOM     20  C   UNL     1       2.377   1.411  -0.015  0.00  0.00    +0.106 A 
ATOM     21  C   UNL     1       2.396   0.029  -0.021  0.00  0.00    +0.029 A 
ATOM     22  C   UNL     1       1.208  -0.679  -0.013  0.00  0.00    +0.005 A 
ENDBRANCH  13  20
ENDBRANCH   1  13
TORSDOF 3
