REMARK  Name = ZINC08591958
REMARK  7 active torsions:
REMARK  status: ('A' for Active; 'I' for Inactive)
REMARK    1  A    between atoms: C_1  and  C_2
REMARK    2  A    between atoms: C_6  and  N_8
REMARK    3  A    between atoms: C_11  and  C_22
REMARK    4  A    between atoms: N_13  and  C_16
REMARK    5  A    between atoms: C_16  and  C_17
REMARK    6  A    between atoms: C_22  and  C_23
REMARK    7  A    between atoms: N_25  and  C_26
REMARK                            x       y       z     vdW  Elec       q    Type
REMARK                         _______ _______ _______ _____ _____    ______ ____
ROOT
ATOM      1  N   UNL     1       0.889  -2.488   2.275  0.00  0.00    -0.193 N 
ATOM      2  C   UNL     1       0.683  -3.818   2.205  0.00  0.00    +0.248 C 
ATOM      3  O   UNL     1       0.743  -4.517   1.217  0.00  0.00    -0.273 OA
ATOM      4  C   UNL     1       0.361  -4.257   3.620  0.00  0.00    +0.174 C 
ATOM      5  N   UNL     1       0.430  -3.006   4.395  0.00  0.00    -0.266 N 
ATOM      6  C   UNL     1       0.749  -2.031   3.525  0.00  0.00    +0.317 C 
ATOM      7  O   UNL     1       0.891  -0.866   3.838  0.00  0.00    -0.252 OA
ENDROOT
BRANCH   1  13
ATOM      8  C   UNL     1       2.057  -2.096  -2.487  0.00  0.00    +0.044 C 
ATOM      9  C   UNL     1       1.788  -1.467  -1.144  0.00  0.00    -0.049 A 
ATOM     10  C   UNL     1       1.863  -0.094  -0.996  0.00  0.00    +0.003 A 
ATOM     11  C   UNL     1       1.616   0.486   0.234  0.00  0.00    +0.002 A 
ATOM     12  C   UNL     1       1.293  -0.304   1.320  0.00  0.00    +0.024 A 
ATOM     13  C   UNL     1       1.216  -1.683   1.175  0.00  0.00    +0.046 A 
ATOM     14  C   UNL     1       1.460  -2.262  -0.063  0.00  0.00    +0.027 A 
ENDBRANCH   1  13
BRANCH   5  15
ATOM     15  C   UNL     1       0.201  -2.855   5.834  0.00  0.00    +0.184 C 
BRANCH  15  16
ATOM     16  C   UNL     1       1.520  -2.897   6.561  0.00  0.00    +0.122 A 
ATOM     17  C   UNL     1       2.297  -1.836   6.844  0.00  0.00    +0.046 A 
ATOM     18  C   UNL     1       3.431  -2.329   7.529  0.00  0.00    +0.041 A 
ATOM     19  C   UNL     1       3.280  -3.663   7.622  0.00  0.00    +0.195 A 
ATOM     20  O   UNL     1       2.118  -4.000   7.039  0.00  0.00    -0.466 OA
ENDBRANCH  15  16
ENDBRANCH   5  15
BRANCH   4  21
ATOM     21  C   UNL     1       1.400  -5.263   4.121  0.00  0.00    +0.128 C 
BRANCH  21  22
ATOM     22  C   UNL     1       1.290  -6.537   3.324  0.00  0.00    +0.219 C 
ATOM     23  O   UNL     1       0.387  -6.678   2.527  0.00  0.00    -0.275 OA
ATOM     24  N   UNL     1       2.194  -7.521   3.499  0.00  0.00    -0.285 N 
ATOM     25  H   UNL     1       2.876  -7.438   4.184  0.00  0.00    +0.155 HD
BRANCH  24  26
ATOM     26  C   UNL     1       2.150  -8.664   2.691  0.00  0.00    +0.033 A 
ATOM     27  C   UNL     1       3.328  -9.288   2.304  0.00  0.00    +0.025 A 
ATOM     28  C   UNL     1       3.282 -10.415   1.508  0.00  0.00    +0.022 A 
ATOM     29  C   UNL     1       2.062 -10.922   1.095  0.00  0.00    +0.041 A 
ATOM     30  C   UNL     1       0.886 -10.302   1.479  0.00  0.00    +0.022 A 
ATOM     31  C   UNL     1       0.927  -9.178   2.280  0.00  0.00    +0.025 A 
ATOM     32 CL   UNL     1       2.007 -12.339   0.093  0.00  0.00    -0.084 Cl
ENDBRANCH  24  26
ENDBRANCH  21  22
ENDBRANCH   4  21
TORSDOF 6
