REMARK  Name = ZINC09240766
REMARK  6 active torsions:
REMARK  status: ('A' for Active; 'I' for Inactive)
REMARK    1  A    between atoms: C_1  and  C_2
REMARK    2  A    between atoms: C_2  and  C_3
REMARK    3  A    between atoms: C_2  and  C_4
REMARK    4  A    between atoms: C_4  and  C_5
REMARK    5  A    between atoms: C_5  and  N_7
REMARK    6  A    between atoms: N_9  and  C_20
REMARK                            x       y       z     vdW  Elec       q    Type
REMARK                         _______ _______ _______ _____ _____    ______ ____
ROOT
ATOM      1  N   UNL     1      -2.598  -2.766   0.023  0.00  0.00    -0.159 NA
ATOM      2  C   UNL     1      -2.565  -4.060  -0.276  0.00  0.00    +0.154 C 
ATOM      3  N   UNL     1      -1.464  -4.850  -0.475  0.00  0.00    -0.275 N 
ATOM      4  C   UNL     1      -1.626  -6.112  -1.151  0.00  0.00    +0.116 C 
ATOM      5  C   UNL     1      -0.643  -6.329  -2.301  0.00  0.00    +0.190 C 
ATOM      6  S   UNL     1      -1.718  -6.349  -3.789  0.00  0.00    -0.028 S 
ATOM      7  O   UNL     1      -1.671  -7.644  -4.373  0.00  0.00    -0.174 OA
ATOM      8  O   UNL     1      -1.422  -5.212  -4.587  0.00  0.00    -0.174 OA
ATOM      9  C   UNL     1      -3.360  -6.113  -3.001  0.00  0.00    +0.182 C 
ATOM     10  C   UNL     1      -3.079  -6.443  -1.530  0.00  0.00    +0.097 C 
ATOM     11  S   UNL     1      -3.947  -5.170  -0.500  0.00  0.00    -0.086 S 
ENDROOT
BRANCH   3  12
ATOM     12  C   UNL     1      -0.203  -4.438  -0.031  0.00  0.00    +0.056 A 
ATOM     13  C   UNL     1       0.239  -4.796   1.236  0.00  0.00    +0.025 A 
ATOM     14  C   UNL     1       1.485  -4.388   1.673  0.00  0.00    +0.003 A 
ATOM     15  C   UNL     1       2.292  -3.624   0.850  0.00  0.00    +0.021 A 
ATOM     16  C   UNL     1       1.856  -3.265  -0.413  0.00  0.00    +0.061 A 
ATOM     17  C   UNL     1       0.612  -3.675  -0.858  0.00  0.00    +0.081 A 
ATOM     18 CL   UNL     1       0.067  -3.230  -2.445  0.00  0.00    -0.080 Cl
ATOM     19 CL   UNL     1       2.873  -2.306  -1.442  0.00  0.00    -0.082 Cl
ENDBRANCH   3  12
BRANCH   1  20
ATOM     20  C   UNL     1      -1.470  -2.121   0.312  0.00  0.00    +0.238 C 
ATOM     21  O   UNL     1      -0.779  -2.493   1.241  0.00  0.00    -0.274 OA
BRANCH  20  22
ATOM     22  C   UNL     1      -1.051  -0.931  -0.511  0.00  0.00    +0.101 C 
BRANCH  22  24
ATOM     23  C   UNL     1       0.760   0.750  -0.881  0.00  0.00    +0.008 C 
ATOM     24  C   UNL     1       0.271  -0.379   0.028  0.00  0.00    -0.008 C 
ATOM     25  C   UNL     1       0.058   0.162   1.443  0.00  0.00    +0.008 C 
ENDBRANCH  22  24
ENDBRANCH  20  22
ENDBRANCH   1  20
TORSDOF 4
