REMARK  Name = ZINC13424765
REMARK  12 active torsions:
REMARK  status: ('A' for Active; 'I' for Inactive)
REMARK    1  A    between atoms: C_1  and  C_2
REMARK    2  A    between atoms: C_5  and  C_30
REMARK    3  A    between atoms: C_6  and  N_8
REMARK    4  A    between atoms: C_12  and  C_29
REMARK    5  A    between atoms: C_13  and  C_28
REMARK    6  A    between atoms: C_17  and  S_18
REMARK    7  A    between atoms: S_18  and  C_19
REMARK    8  A    between atoms: C_19  and  C_20
REMARK    9  A    between atoms: C_20  and  C_22
REMARK   10  A    between atoms: C_22  and  C_24
REMARK   11  A    between atoms: C_22  and  C_26
REMARK   12  A    between atoms: C_26  and  C_27
REMARK                            x       y       z     vdW  Elec       q    Type
REMARK                         _______ _______ _______ _____ _____    ______ ____
ROOT
ATOM      1  N   UNL     1      -1.881   2.520  -0.634  0.00  0.00    -0.255 N 
ATOM      2  C   UNL     1      -2.239   1.224  -0.691  0.00  0.00    +0.268 A 
ATOM      3  O   UNL     1      -3.409   0.912  -0.830  0.00  0.00    -0.267 OA
ATOM      4  C   UNL     1      -1.228   0.217  -0.586  0.00  0.00    +0.076 A 
ATOM      5  C   UNL     1      -1.365  -1.230  -0.619  0.00  0.00    -0.026 A 
ATOM      6  C   UNL     1      -0.269  -1.994  -0.501  0.00  0.00    -0.008 A 
ATOM      7  S   UNL     1       1.049  -0.805  -0.334  0.00  0.00    -0.073 S 
ATOM      8  C   UNL     1       0.090   0.685  -0.428  0.00  0.00    +0.117 A 
ATOM      9  N   UNL     1       0.377   1.980  -0.379  0.00  0.00    -0.215 NA
ATOM     10  C   UNL     1      -0.574   2.888  -0.478  0.00  0.00    +0.178 A 
ATOM     11  C   UNL     1      -0.175  -3.498  -0.507  0.00  0.00    +0.052 C 
ATOM     12  C   UNL     1      -2.722  -1.863  -0.784  0.00  0.00    +0.045 C 
ENDROOT
BRANCH   1  18
ATOM     13  C   UNL     1      -5.157   5.485   1.524  0.00  0.00    +0.044 C 
ATOM     14  C   UNL     1      -4.470   4.965   0.288  0.00  0.00    -0.048 A 
ATOM     15  C   UNL     1      -4.812   5.465  -0.956  0.00  0.00    +0.004 A 
ATOM     16  C   UNL     1      -4.183   4.991  -2.092  0.00  0.00    +0.005 A 
ATOM     17  C   UNL     1      -3.211   4.015  -1.988  0.00  0.00    -0.026 A 
ATOM     18  C   UNL     1      -2.866   3.510  -0.742  0.00  0.00    +0.055 A 
ATOM     19  C   UNL     1      -3.503   3.985   0.397  0.00  0.00    +0.030 A 
ATOM     20  C   UNL     1      -2.526   3.498  -3.227  0.00  0.00    +0.046 C 
ENDBRANCH   1  18
BRANCH  10  21
ATOM     21  S   UNL     1      -0.154   4.597  -0.409  0.00  0.00    -0.080 S 
BRANCH  21  22
ATOM     22  C   UNL     1       1.640   4.472  -0.203  0.00  0.00    +0.153 C 
BRANCH  22  23
ATOM     23  C   UNL     1       2.233   5.855  -0.118  0.00  0.00    +0.166 C 
ATOM     24  O   UNL     1       1.517   6.825  -0.189  0.00  0.00    -0.295 OA
BRANCH  23  25
ATOM     25  C   UNL     1       3.720   6.028   0.057  0.00  0.00    +0.199 C 
BRANCH  25  26
ATOM     26  C   UNL     1       4.137   7.371  -0.484  0.00  0.00    +0.008 C 
ATOM     27  C   UNL     1       5.596   7.744  -0.532  0.00  0.00    +0.059 C 
ATOM     28  H   UNL     1       3.421   9.084  -1.267  0.00  0.00    +0.155 HD
ATOM     29  N   UNL     1       3.190   8.163  -0.893  0.00  0.00    -0.404 N 
ATOM     30  H   UNL     1       2.210   7.862  -0.839  0.00  0.00    +0.155 HD
ENDBRANCH  25  26
BRANCH  25  31
ATOM     31  C   UNL     1       4.059   5.947   1.487  0.00  0.00    +0.079 C 
ATOM     32  N   UNL     1       4.321   5.886   2.591  0.00  0.00    -0.195 NA
ENDBRANCH  25  31
ENDBRANCH  23  25
ENDBRANCH  22  23
ENDBRANCH  21  22
ENDBRANCH  10  21
TORSDOF 7
