REMARK  Name = ZINC47135619
REMARK  4 active torsions:
REMARK  status: ('A' for Active; 'I' for Inactive)
REMARK    1  A    between atoms: C_7  and  N_12
REMARK    2  A    between atoms: N_12  and  C_13
REMARK    3  A    between atoms: C_16  and  N_23
REMARK    4  A    between atoms: C_17  and  C_19
REMARK                            x       y       z     vdW  Elec       q    Type
REMARK                         _______ _______ _______ _____ _____    ______ ____
ROOT
ATOM      1  C   UNL     1       0.615  -4.115   1.111  0.00  0.00    +0.031 A 
ATOM      2  C   UNL     1       0.666  -4.808  -0.091  0.00  0.00    +0.025 A 
ATOM      3  C   UNL     1       0.225  -6.115  -0.153  0.00  0.00    +0.035 A 
ATOM      4  C   UNL     1      -0.268  -6.735   0.981  0.00  0.00    +0.138 A 
ATOM      5  C   UNL     1      -0.321  -6.048   2.180  0.00  0.00    +0.087 A 
ATOM      6  C   UNL     1       0.124  -4.742   2.250  0.00  0.00    +0.037 A 
ENDROOT
BRANCH   5   7
ATOM      7  C   UNL     1      -0.860  -6.726   3.413  0.00  0.00    +0.420 C 
ATOM      8  F   UNL     1      -0.814  -5.838   4.492  0.00  0.00    -0.166 F 
ATOM      9  F   UNL     1      -2.184  -7.119   3.188  0.00  0.00    -0.166 F 
ATOM     10  F   UNL     1      -0.083  -7.853   3.702  0.00  0.00    -0.166 F 
ENDBRANCH   5   7
BRANCH   4  11
ATOM     11  N   UNL     1      -0.740  -8.136   0.911  0.00  0.00    +0.057 N 
ATOM     12  O   UNL     1      -0.694  -8.738  -0.137  0.00  0.00    -0.126 OA
ATOM     13  O   UNL     1      -1.171  -8.678   1.901  0.00  0.00    -0.126 OA
ENDBRANCH   4  11
BRANCH   1  14
ATOM     14  N   UNL     1       1.060  -2.793   1.178  0.00  0.00    -0.306 N 
ATOM     15  H   UNL     1       1.028  -2.312   2.019  0.00  0.00    +0.150 HD
BRANCH  14  22
ATOM     16  C   UNL     1      -0.017   1.381   0.010  0.00  0.00    +0.000 A 
ATOM     17  C   UNL     1       1.169   2.094   0.002  0.00  0.00    +0.001 A 
ATOM     18  C   UNL     1       2.380   1.432  -0.013  0.00  0.00    +0.015 A 
ATOM     19  C   UNL     1       2.406   0.037  -0.021  0.00  0.00    +0.067 A 
ATOM     20  C   UNL     1       1.203  -0.674  -0.013  0.00  0.00    +0.025 A 
ATOM     21  C   UNL     1       0.002  -0.004   0.002  0.00  0.00    +0.010 A 
ATOM     22  C   UNL     1       1.578  -2.134  -0.024  0.00  0.00    +0.296 C 
ATOM     23  O   UNL     1       3.007  -2.192  -0.038  0.00  0.00    -0.435 OA
ATOM     24  C   UNL     1       3.506  -0.945  -0.037  0.00  0.00    +0.342 C 
ATOM     25  O   UNL     1       4.688  -0.667  -0.047  0.00  0.00    -0.245 OA
ENDBRANCH  14  22
ENDBRANCH   1  14
TORSDOF 4
