REMARK  Name = ZINC32634333
REMARK  5 active torsions:
REMARK  status: ('A' for Active; 'I' for Inactive)
REMARK    1  A    between atoms: C_4  and  C_7
REMARK    2  A    between atoms: C_7  and  C_8
REMARK    3  A    between atoms: C_8  and  C_9
REMARK    4  A    between atoms: C_9  and  N_11
REMARK    5  A    between atoms: N_13  and  C_24
REMARK                            x       y       z     vdW  Elec       q    Type
REMARK                         _______ _______ _______ _____ _____    ______ ____
ROOT
ATOM      1  N   UNL     1       6.184  -1.914   2.569  0.00  0.00    -0.159 NA
ATOM      2  C   UNL     1       7.245  -2.713   2.530  0.00  0.00    +0.154 C 
ATOM      3  N   UNL     1       7.907  -3.180   1.425  0.00  0.00    -0.273 N 
ATOM      4  C   UNL     1       8.780  -4.318   1.566  0.00  0.00    +0.116 C 
ATOM      5  C   UNL     1       8.529  -5.420   0.538  0.00  0.00    +0.190 C 
ATOM      6  S   UNL     1       7.919  -6.824   1.554  0.00  0.00    -0.028 S 
ATOM      7  O   UNL     1       8.863  -7.884   1.488  0.00  0.00    -0.174 OA
ATOM      8  O   UNL     1       6.561  -7.077   1.221  0.00  0.00    -0.174 OA
ATOM      9  C   UNL     1       7.991  -6.066   3.225  0.00  0.00    +0.182 C 
ATOM     10  C   UNL     1       8.898  -4.848   3.004  0.00  0.00    +0.097 C 
ATOM     11  S   UNL     1       8.139  -3.419   3.907  0.00  0.00    -0.086 S 
ENDROOT
BRANCH   3  12
ATOM     12  C   UNL     1       7.737  -2.563   0.181  0.00  0.00    +0.073 A 
ATOM     13  C   UNL     1       6.714  -2.971  -0.666  0.00  0.00    +0.064 A 
ATOM     14  C   UNL     1       6.550  -2.359  -1.895  0.00  0.00    +0.022 A 
ATOM     15  C   UNL     1       7.402  -1.341  -2.281  0.00  0.00    +0.003 A 
ATOM     16  C   UNL     1       8.422  -0.932  -1.441  0.00  0.00    +0.022 A 
ATOM     17  C   UNL     1       8.588  -1.536  -0.209  0.00  0.00    +0.064 A 
ATOM     18 CL   UNL     1       9.864  -1.016   0.848  0.00  0.00    -0.082 Cl
ATOM     19 CL   UNL     1       5.644  -4.249  -0.182  0.00  0.00    -0.082 Cl
ENDBRANCH   3  12
BRANCH   1  20
ATOM     20  C   UNL     1       5.735  -1.350   1.451  0.00  0.00    +0.239 C 
ATOM     21  O   UNL     1       6.466  -0.632   0.796  0.00  0.00    -0.274 OA
BRANCH  20  22
ATOM     22  C   UNL     1       4.321  -1.601   0.996  0.00  0.00    +0.102 C 
BRANCH  22  23
ATOM     23  C   UNL     1       4.061  -0.841  -0.307  0.00  0.00    +0.044 C 
BRANCH  23  27
ATOM     24  C   UNL     1       0.052  -1.552  -1.598  0.00  0.00    +0.000 A 
ATOM     25  C   UNL     1       0.330  -0.489  -0.760  0.00  0.00    +0.000 A 
ATOM     26  C   UNL     1       1.627  -0.259  -0.342  0.00  0.00    +0.003 A 
ATOM     27  C   UNL     1       2.647  -1.093  -0.762  0.00  0.00    -0.047 A 
ATOM     28  C   UNL     1       2.369  -2.157  -1.599  0.00  0.00    +0.003 A 
ATOM     29  C   UNL     1       1.071  -2.386  -2.018  0.00  0.00    +0.000 A 
ENDBRANCH  23  27
ENDBRANCH  22  23
ENDBRANCH  20  22
ENDBRANCH   1  20
TORSDOF 5
