REMARK  Name = ZINC39287085
REMARK  5 active torsions:
REMARK  status: ('A' for Active; 'I' for Inactive)
REMARK    1  A    between atoms: C_1  and  C_2
REMARK    2  A    between atoms: C_2  and  N_9
REMARK    3  A    between atoms: N_9  and  C_10
REMARK    4  A    between atoms: C_10  and  N_12
REMARK    5  A    between atoms: N_12  and  C_13
REMARK                            x       y       z     vdW  Elec       q    Type
REMARK                         _______ _______ _______ _____ _____    ______ ____
ROOT
ATOM      1  C   UNL     1      -2.095  -0.088   1.240  0.00  0.00    +0.133 C 
ATOM      2  S   UNL     1      -1.466   1.091   2.310  0.00  0.00    -0.019 S 
ENDROOT
BRANCH   1   3
ATOM      3  N   UNL     1      -1.368  -0.492   0.179  0.00  0.00    -0.320 N 
ATOM      4  H   UNL     1      -1.752  -1.105  -0.466  0.00  0.00    +0.148 HD
BRANCH   3   6
ATOM      5  C   UNL     1      -0.047   1.503  -0.265  0.00  0.00    +0.033 C 
ATOM      6  C   UNL     1       0.002  -0.003   0.001  0.00  0.00    +0.052 C 
ATOM      7  C   UNL     1       0.611  -0.696  -1.216  0.00  0.00    +0.049 C 
ATOM      8  C   UNL     1       2.154  -0.800  -1.062  0.00  0.00    +0.168 C 
ATOM      9  S   UNL     1       2.256  -1.203   0.738  0.00  0.00    -0.029 S 
ATOM     10  O   UNL     1       3.431  -0.618   1.282  0.00  0.00    -0.174 OA
ATOM     11  O   UNL     1       2.012  -2.591   0.921  0.00  0.00    -0.174 OA
ATOM     12  C   UNL     1       0.787  -0.249   1.305  0.00  0.00    +0.191 C 
ENDBRANCH   3   6
ENDBRANCH   1   3
BRANCH   1  13
ATOM     13  N   UNL     1      -3.317  -0.613   1.458  0.00  0.00    -0.289 N 
ATOM     14  H   UNL     1      -3.673  -1.281   0.852  0.00  0.00    +0.151 HD
BRANCH  13  15
ATOM     15  C   UNL     1      -4.107  -0.174   2.611  0.00  0.00    +0.302 C 
ATOM     16  N   UNL     1      -5.252  -1.079   2.831  0.00  0.00    -0.286 N 
ATOM     17  C   UNL     1      -6.337  -0.287   2.679  0.00  0.00    +0.177 C 
ATOM     18  N   UNL     1      -5.966   0.968   2.398  0.00  0.00    -0.097 NA
ATOM     19  N   UNL     1      -4.740   1.127   2.342  0.00  0.00    -0.153 NA
ATOM     20  S   UNL     1      -7.959  -0.816   2.825  0.00  0.00    -0.015 S 
ATOM     21  H   UNL     1      -5.231  -2.026   3.037  0.00  0.00    +0.151 HD
ENDBRANCH  13  15
ENDBRANCH   1  13
TORSDOF 4
