REMARK  Name = ZINC42118985
REMARK  3 active torsions:
REMARK  status: ('A' for Active; 'I' for Inactive)
REMARK    1  A    between atoms: C_1  and  C_2
REMARK    2  A    between atoms: C_4  and  C_7
REMARK    3  A    between atoms: C_7  and  N_8
REMARK                            x       y       z     vdW  Elec       q    Type
REMARK                         _______ _______ _______ _____ _____    ______ ____
ROOT
ATOM      1  N   UNL     1       1.424  -3.694  -1.928  0.00  0.00    -0.254 N 
ATOM      2  C   UNL     1       2.155  -3.206  -3.010  0.00  0.00    +0.085 A 
ATOM      3  C   UNL     1       1.816  -2.313  -4.021  0.00  0.00    +0.145 A 
ATOM      4  C   UNL     1       2.740  -1.985  -4.999  0.00  0.00    +0.042 A 
ATOM      5  C   UNL     1       4.008  -2.538  -4.987  0.00  0.00    +0.023 A 
ATOM      6  C   UNL     1       4.366  -3.428  -3.992  0.00  0.00    +0.054 A 
ATOM      7  C   UNL     1       3.443  -3.765  -3.000  0.00  0.00    +0.069 A 
ATOM      8  C   UNL     1       3.505  -4.658  -1.830  0.00  0.00    +0.251 C 
ATOM      9  O   UNL     1       4.445  -5.332  -1.462  0.00  0.00    -0.282 OA
ATOM     10  C   UNL     1       2.154  -4.547  -1.189  0.00  0.00    +0.292 C 
ATOM     11  O   UNL     1       1.786  -5.123  -0.187  0.00  0.00    -0.266 OA
ATOM     12 CL   UNL     1       5.957  -4.124  -3.976  0.00  0.00    -0.083 Cl
ATOM     13  F   UNL     1       0.582  -1.764  -4.048  0.00  0.00    -0.204 F 
ENDROOT
BRANCH   1  14
ATOM     14  C   UNL     1       0.039  -3.320  -1.631  0.00  0.00    +0.191 C 
BRANCH  14  18
ATOM     15  C   UNL     1      -0.018   1.503   0.010  0.00  0.00    +0.069 C 
ATOM     16  C   UNL     1       0.002  -0.004   0.002  0.00  0.00    +0.081 A 
ATOM     17  C   UNL     1       0.008  -0.824  -1.141  0.00  0.00    +0.072 A 
ATOM     18  C   UNL     1       0.027  -2.108  -0.735  0.00  0.00    +0.155 A 
ATOM     19  O   UNL     1       0.034  -2.119   0.606  0.00  0.00    -0.358 OA
ATOM     20  N   UNL     1       0.023  -0.775   1.052  0.00  0.00    -0.083 NA
ENDBRANCH  14  18
ENDBRANCH   1  14
TORSDOF 2
