REMARK  Name = ZINC39580200
REMARK  10 active torsions:
REMARK  status: ('A' for Active; 'I' for Inactive)
REMARK    1  A    between atoms: C_1  and  C_2
REMARK    2  A    between atoms: C_5  and  C_8
REMARK    3  A    between atoms: C_10  and  C_13
REMARK    4  A    between atoms: C_13  and  O_14
REMARK    5  A    between atoms: O_14  and  C_15
REMARK    6  A    between atoms: C_15  and  C_17
REMARK    7  A    between atoms: C_17  and  N_18
REMARK    8  A    between atoms: C_23  and  C_30
REMARK    9  A    between atoms: C_26  and  C_28
REMARK   10  A    between atoms: C_26  and  C_29
REMARK                            x       y       z     vdW  Elec       q    Type
REMARK                         _______ _______ _______ _____ _____    ______ ____
ROOT
ATOM      1  C   UNL     1       0.144 -10.590   2.678  0.00  0.00    +0.238 C 
ENDROOT
BRANCH   1   2
ATOM      2  N   UNL     1       0.159 -11.596   3.743  0.00  0.00    -0.213 N 
ATOM      3  C   UNL     1       1.282 -12.096   4.299  0.00  0.00    +0.247 C 
ATOM      4  O   UNL     1       2.427 -11.810   4.023  0.00  0.00    -0.273 OA
ATOM      5  C   UNL     1       0.811 -13.088   5.337  0.00  0.00    +0.113 C 
ATOM      6  C   UNL     1       1.275 -12.664   6.726  0.00  0.00    +0.038 C 
ATOM      7  C   UNL     1       0.763 -13.664   7.766  0.00  0.00    -0.011 C 
ATOM      8  C   UNL     1       1.296 -15.060   7.435  0.00  0.00    +0.009 C 
ATOM      9  C   UNL     1       0.803 -15.481   6.049  0.00  0.00    -0.032 C 
ATOM     10  C   UNL     1       1.316 -14.487   5.003  0.00  0.00    +0.041 C 
ATOM     11  C   UNL     1      -0.727 -15.493   6.034  0.00  0.00    +0.011 C 
ATOM     12  C   UNL     1       1.329 -16.880   5.724  0.00  0.00    +0.011 C 
ATOM     13  C   UNL     1       1.247 -13.249   9.156  0.00  0.00    +0.007 C 
ATOM     14  N   UNL     1      -0.653 -13.033   5.245  0.00  0.00    -0.285 N 
ATOM     15  C   UNL     1      -0.941 -12.129   4.289  0.00  0.00    +0.310 C 
ATOM     16  O   UNL     1      -2.072 -11.833   3.957  0.00  0.00    -0.252 OA
ATOM     17  H   UNL     1      -1.288 -13.545   5.771  0.00  0.00    +0.151 HD
ENDBRANCH   1   2
BRANCH   1  18
ATOM     18  C   UNL     1       0.123  -9.212   3.289  0.00  0.00    +0.326 C 
ATOM     19  O   UNL     1       0.120  -9.084   4.490  0.00  0.00    -0.249 OA
BRANCH  18  20
ATOM     20  O   UNL     1       0.107  -8.128   2.499  0.00  0.00    -0.457 OA
BRANCH  20  21
ATOM     21  C   UNL     1       0.087  -6.854   3.146  0.00  0.00    +0.288 C 
BRANCH  21  24
ATOM     22  C   UNL     1       0.039  -3.524   1.581  0.00  0.00    +0.109 A 
ATOM     23  N   UNL     1       0.052  -4.503   2.475  0.00  0.00    -0.241 NA
ATOM     24  C   UNL     1       0.071  -5.763   2.106  0.00  0.00    +0.086 A 
ATOM     25  C   UNL     1       0.077  -6.081   0.784  0.00  0.00    +0.074 A 
ATOM     26  S   UNL     1       0.046  -4.450   0.052  0.00  0.00    -0.075 S 
BRANCH  22  31
ATOM     27  C   UNL     1      -0.048   2.171   2.404  0.00  0.00    +0.044 C 
ATOM     28  C   UNL     1      -0.025   0.679   2.189  0.00  0.00    -0.050 A 
ATOM     29  C   UNL     1      -0.022   0.169   0.903  0.00  0.00    +0.004 A 
ATOM     30  C   UNL     1      -0.001  -1.195   0.699  0.00  0.00    +0.011 A 
ATOM     31  C   UNL     1       0.017  -2.061   1.793  0.00  0.00    +0.007 A 
ATOM     32  C   UNL     1       0.013  -1.540   3.087  0.00  0.00    +0.011 A 
ATOM     33  C   UNL     1      -0.002  -0.174   3.278  0.00  0.00    +0.004 A 
ENDBRANCH  22  31
ENDBRANCH  21  24
ENDBRANCH  20  21
ENDBRANCH  18  20
ENDBRANCH   1  18
TORSDOF 6
