REMARK  Name = ZINC12907391
REMARK  5 active torsions:
REMARK  status: ('A' for Active; 'I' for Inactive)
REMARK    1  A    between atoms: C_5  and  N_7
REMARK    2  A    between atoms: C_8  and  C_10
REMARK    3  A    between atoms: C_10  and  N_11
REMARK    4  A    between atoms: C_12  and  C_14
REMARK    5  A    between atoms: C_20  and  C_22
REMARK                            x       y       z     vdW  Elec       q    Type
REMARK                         _______ _______ _______ _____ _____    ______ ____
ROOT
ATOM      1  N   UNL     1      -0.610   0.985  -2.390  0.00  0.00    -0.305 N 
ATOM      2  C   UNL     1      -0.785   1.573  -1.190  0.00  0.00    +0.234 C 
ATOM      3  O   UNL     1      -1.542   2.514  -1.080  0.00  0.00    -0.274 OA
ATOM      4  H   UNL     1      -0.004   0.233  -2.478  0.00  0.00    +0.149 HD
ENDROOT
BRANCH   2   5
ATOM      5  C   UNL     1      -0.040   1.060   0.015  0.00  0.00    +0.162 C 
ATOM      6  C   UNL     1       1.402   1.610   0.014  0.00  0.00    +0.033 C 
ATOM      7  C   UNL     1       1.667   1.896   1.516  0.00  0.00    +0.021 C 
ATOM      8  C   UNL     1       0.272   2.372   1.992  0.00  0.00    +0.109 C 
ATOM      9  N   UNL     1      -0.687   1.536   1.247  0.00  0.00    -0.286 N 
ATOM     10  C   UNL     1      -1.948   1.256   1.630  0.00  0.00    +0.254 C 
ATOM     11  O   UNL     1      -2.654   0.552   0.932  0.00  0.00    -0.269 OA
BRANCH  10  12
ATOM     12  C   UNL     1      -2.470   1.798   2.888  0.00  0.00    +0.074 A 
ATOM     13  C   UNL     1      -3.724   1.638   3.455  0.00  0.00    +0.021 A 
ATOM     14  C   UNL     1      -3.951   2.261   4.657  0.00  0.00    +0.008 A 
ATOM     15  C   UNL     1      -2.959   2.999   5.219  0.00  0.00    +0.046 A 
ATOM     16  S   UNL     1      -1.658   2.844   4.084  0.00  0.00    -0.092 S 
ENDBRANCH  10  12
ENDBRANCH   2   5
BRANCH   1  17
ATOM     17  C   UNL     1      -1.334   1.483  -3.562  0.00  0.00    +0.200 C 
BRANCH  17  19
ATOM     18  N   UNL     1      -1.512   0.938  -5.969  0.00  0.00    -0.283 N 
ATOM     19  C   UNL     1      -0.964   0.660  -4.769  0.00  0.00    +0.234 C 
ATOM     20  O   UNL     1      -0.173  -0.253  -4.661  0.00  0.00    -0.274 OA
ATOM     21  H   UNL     1      -2.193   1.625  -6.043  0.00  0.00    +0.155 HD
BRANCH  18  26
ATOM     22  C   UNL     1      -0.343  -1.795  -8.133  0.00  0.00    +0.002 A 
ATOM     23  C   UNL     1      -0.281  -1.152  -9.357  0.00  0.00    +0.001 A 
ATOM     24  C   UNL     1      -0.626   0.183  -9.458  0.00  0.00    +0.017 A 
ATOM     25  C   UNL     1      -1.035   0.879  -8.336  0.00  0.00    +0.039 A 
ATOM     26  C   UNL     1      -1.099   0.236  -7.107  0.00  0.00    +0.047 A 
ATOM     27  C   UNL     1      -0.746  -1.103  -7.008  0.00  0.00    +0.024 A 
ATOM     28 BR   UNL     1      -1.508   2.705  -8.476  0.00  0.00    -0.048 Br
ENDBRANCH  18  26
ENDBRANCH  17  19
ENDBRANCH   1  17
TORSDOF 5
