REMARK  Name = ZINC48188860
REMARK  7 active torsions:
REMARK  status: ('A' for Active; 'I' for Inactive)
REMARK    1  A    between atoms: C_1  and  C_2
REMARK    2  A    between atoms: C_5  and  C_27
REMARK    3  A    between atoms: C_10  and  C_12
REMARK    4  A    between atoms: C_15  and  C_17
REMARK    5  A    between atoms: C_17  and  O_18
REMARK    6  A    between atoms: O_18  and  C_19
REMARK    7  A    between atoms: C_24  and  C_25
REMARK                            x       y       z     vdW  Elec       q    Type
REMARK                         _______ _______ _______ _____ _____    ______ ____
ROOT
ATOM      1  C   UNL     1       3.072  -2.115   1.357  0.00  0.00    +0.190 A 
ATOM      2  C   UNL     1       4.269  -2.774   1.352  0.00  0.00    +0.055 A 
ATOM      3  C   UNL     1       5.270  -1.791   1.310  0.00  0.00    +0.049 A 
ATOM      4  C   UNL     1       4.649  -0.591   1.292  0.00  0.00    +0.143 A 
ATOM      5  O   UNL     1       3.324  -0.791   1.315  0.00  0.00    -0.452 OA
ENDROOT
BRANCH   1  13
ATOM      6  C   UNL     1      -0.057   1.719   1.079  0.00  0.00    +0.009 C 
ATOM      7  C   UNL     1      -0.057   0.225   0.745  0.00  0.00    +0.004 C 
ATOM      8  C   UNL     1      -1.495  -0.299   0.752  0.00  0.00    +0.009 C 
ATOM      9  C   UNL     1      -1.500  -1.785   0.386  0.00  0.00    +0.004 C 
ATOM     10  C   UNL     1      -0.696  -2.566   1.430  0.00  0.00    +0.111 C 
ATOM     11  N   UNL     1       0.645  -1.974   1.534  0.00  0.00    -0.295 N 
ATOM     12  C   UNL     1       0.764  -0.533   1.793  0.00  0.00    +0.111 C 
ATOM     13  C   UNL     1       1.746  -2.740   1.395  0.00  0.00    +0.282 C 
ATOM     14  O   UNL     1       1.639  -3.948   1.301  0.00  0.00    -0.267 OA
ATOM     15  C   UNL     1      -2.940  -2.300   0.360  0.00  0.00    +0.009 C 
ENDBRANCH   1  13
BRANCH   4  16
ATOM     16  C   UNL     1       5.333   0.751   1.248  0.00  0.00    +0.303 C 
BRANCH  16  17
ATOM     17  O   UNL     1       5.526   1.143  -0.113  0.00  0.00    -0.483 OA
BRANCH  17  18
ATOM     18  C   UNL     1       6.134   2.337  -0.330  0.00  0.00    +0.138 A 
ATOM     19  C   UNL     1       6.543   3.115   0.742  0.00  0.00    +0.047 A 
ATOM     20  C   UNL     1       7.161   4.330   0.520  0.00  0.00    +0.004 A 
ATOM     21  C   UNL     1       7.378   4.779  -0.772  0.00  0.00    +0.001 A 
ATOM     22  C   UNL     1       6.979   4.019  -1.849  0.00  0.00    +0.022 A 
ATOM     23  C   UNL     1       6.357   2.785  -1.639  0.00  0.00    +0.093 A 
BRANCH  23  24
ATOM     24  C   UNL     1       5.944   1.987  -2.754  0.00  0.00    +0.103 C 
ATOM     25  N   UNL     1       5.617   1.354  -3.638  0.00  0.00    -0.191 NA
ENDBRANCH  23  24
ENDBRANCH  17  18
ENDBRANCH  16  17
ENDBRANCH   4  16
TORSDOF 5
