REMARK  Name = ZINC41212380
REMARK  6 active torsions:
REMARK  status: ('A' for Active; 'I' for Inactive)
REMARK    1  A    between atoms: C_1  and  C_2
REMARK    2  A    between atoms: C_5  and  C_9
REMARK    3  A    between atoms: C_6  and  C_8
REMARK    4  A    between atoms: C_11  and  C_15
REMARK    5  A    between atoms: N_13  and  C_14
REMARK    6  A    between atoms: C_20  and  C_23
REMARK                            x       y       z     vdW  Elec       q    Type
REMARK                         _______ _______ _______ _____ _____    ______ ____
ROOT
ATOM      1  C   UNL     1       0.723  -4.022   0.241  0.00  0.00    +0.070 A 
ATOM      2  C   UNL     1       0.707  -4.829   1.344  0.00  0.00    +0.062 A 
ATOM      3  C   UNL     1       0.713  -6.150   0.844  0.00  0.00    +0.148 A 
ATOM      4  N   UNL     1       0.733  -6.071  -0.472  0.00  0.00    -0.166 NA
ATOM      5  N   UNL     1       0.733  -4.843  -0.848  0.00  0.00    -0.266 N 
ATOM      6  C   UNL     1       0.746  -4.390  -2.241  0.00  0.00    +0.173 C 
ENDROOT
BRANCH   3   7
ATOM      7  C   UNL     1       0.701  -7.389   1.647  0.00  0.00    +0.269 C 
ATOM      8  O   UNL     1       0.683  -7.327   2.861  0.00  0.00    -0.268 OA
ATOM      9  N   UNL     1       0.709  -8.589   1.033  0.00  0.00    -0.262 N 
ATOM     10  C   UNL     1       0.698  -9.760   1.791  0.00  0.00    +0.168 A 
ATOM     11  C   UNL     1       0.671  -9.837   3.201  0.00  0.00    +0.091 A 
ATOM     12  C   UNL     1       0.668 -11.136   3.548  0.00  0.00    +0.136 A 
ATOM     13  O   UNL     1       0.690 -11.870   2.424  0.00  0.00    -0.358 OA
ATOM     14  N   UNL     1       0.703 -10.981   1.321  0.00  0.00    -0.063 NA
ATOM     15  C   UNL     1       0.642 -11.676   4.955  0.00  0.00    +0.089 C 
ATOM     16  H   UNL     1       0.723  -8.639   0.064  0.00  0.00    +0.157 HD
ENDBRANCH   3   7
BRANCH   1  21
ATOM     17  C   UNL     1       0.724   1.734   0.199  0.00  0.00    +0.044 C 
ATOM     18  C   UNL     1       0.724   0.227   0.210  0.00  0.00    -0.050 A 
ATOM     19  C   UNL     1       1.628  -0.468  -0.574  0.00  0.00    +0.004 A 
ATOM     20  C   UNL     1       1.633  -1.848  -0.568  0.00  0.00    +0.010 A 
ATOM     21  C   UNL     1       0.724  -2.542   0.231  0.00  0.00    +0.003 A 
ATOM     22  C   UNL     1      -0.184  -1.836   1.019  0.00  0.00    -0.041 A 
ATOM     23  C   UNL     1      -0.176  -0.456   1.008  0.00  0.00    +0.007 A 
ATOM     24  C   UNL     1      -1.170  -2.578   1.885  0.00  0.00    +0.044 C 
ENDBRANCH   1  21
TORSDOF 2
