REMARK  Name = ZINC62219149
REMARK  3 active torsions:
REMARK  status: ('A' for Active; 'I' for Inactive)
REMARK    1  A    between atoms: C_6  and  N_7
REMARK    2  A    between atoms: C_8  and  C_14
REMARK    3  A    between atoms: C_9  and  C_12
REMARK                            x       y       z     vdW  Elec       q    Type
REMARK                         _______ _______ _______ _____ _____    ______ ____
ROOT
ATOM      1  N   UNL     1      -1.202  -0.723   0.010  0.00  0.00    -0.213 N 
ATOM      2  C   UNL     1      -1.444  -1.899  -0.612  0.00  0.00    +0.111 A 
ATOM      3  C   UNL     1      -2.740  -2.231  -0.336  0.00  0.00    +0.188 A 
ATOM      4  N   UNL     1      -3.271  -1.271   0.440  0.00  0.00    -0.118 NA
ATOM      5  N   UNL     1      -2.386  -0.363   0.670  0.00  0.00    -0.059 NA
ENDROOT
BRANCH   1  11
ATOM      6  C   UNL     1      -0.017   1.384   0.010  0.00  0.00    +0.029 A 
ATOM      7  C   UNL     1       1.170   2.090   0.002  0.00  0.00    +0.023 A 
ATOM      8  C   UNL     1       2.378   1.416  -0.013  0.00  0.00    +0.059 A 
ATOM      9  C   UNL     1       2.400   0.031  -0.021  0.00  0.00    +0.061 A 
ATOM     10  C   UNL     1       1.215  -0.680  -0.014  0.00  0.00    +0.049 A 
ATOM     11  C   UNL     1       0.002  -0.004   0.002  0.00  0.00    +0.069 A 
ATOM     12 CL   UNL     1       3.917  -0.813  -0.040  0.00  0.00    -0.082 Cl
ATOM     13 CL   UNL     1       3.868   2.306  -0.023  0.00  0.00    -0.082 Cl
ENDBRANCH   1  11
BRANCH   2  14
ATOM     14  C   UNL     1      -0.471  -2.690  -1.448  0.00  0.00    +0.170 C 
ATOM     15  C   UNL     1       0.007  -3.944  -0.675  0.00  0.00    +0.040 C 
ATOM     16  C   UNL     1       0.411  -4.878  -1.848  0.00  0.00    +0.031 C 
ATOM     17  C   UNL     1      -0.620  -4.503  -2.935  0.00  0.00    +0.161 C 
ATOM     18  O   UNL     1      -1.123  -3.197  -2.624  0.00  0.00    -0.370 OA
ENDBRANCH   2  14
BRANCH   3  19
ATOM     19  C   UNL     1      -3.419  -3.405  -0.796  0.00  0.00    +0.123 C 
ATOM     20  N   UNL     1      -3.958  -4.336  -1.161  0.00  0.00    -0.189 NA
ENDBRANCH   3  19
TORSDOF 3
