REMARK  Name = ZINC56175158
REMARK  10 active torsions:
REMARK  status: ('A' for Active; 'I' for Inactive)
REMARK    1  A    between atoms: C_1  and  C_2
REMARK    2  A    between atoms: C_5  and  N_8
REMARK    3  A    between atoms: C_9  and  C_29
REMARK    4  A    between atoms: C_10  and  C_13
REMARK    5  A    between atoms: N_15  and  C_16
REMARK    6  A    between atoms: C_21  and  C_22
REMARK    7  A    between atoms: N_24  and  C_25
REMARK    8  A    between atoms: C_25  and  C_26
REMARK    9  A    between atoms: C_25  and  C_27
REMARK   10  A    between atoms: C_25  and  C_28
REMARK                            x       y       z     vdW  Elec       q    Type
REMARK                         _______ _______ _______ _____ _____    ______ ____
ROOT
ATOM      1  C   UNL     1       1.326  -7.553   0.723  0.00  0.00    +0.270 C 
ATOM      2  O   UNL     1       2.390  -7.527   1.310  0.00  0.00    -0.268 OA
ATOM      3  N   UNL     1       0.610  -8.694   0.676  0.00  0.00    -0.279 N 
ATOM      4  H   UNL     1      -0.268  -8.699   0.264  0.00  0.00    +0.155 HD
ENDROOT
BRANCH   1   7
ATOM      5  N   UNL     1       0.650  -4.289  -0.672  0.00  0.00    -0.216 N 
ATOM      6  C   UNL     1       1.445  -5.122   0.034  0.00  0.00    +0.074 A 
ATOM      7  C   UNL     1       0.820  -6.337   0.061  0.00  0.00    +0.170 A 
ATOM      8  N   UNL     1      -0.336  -6.236  -0.619  0.00  0.00    -0.124 NA
ATOM      9  N   UNL     1      -0.472  -5.034  -1.062  0.00  0.00    -0.060 NA
ATOM     10  C   UNL     1       2.768  -4.779   0.668  0.00  0.00    +0.068 C 
BRANCH   5  15
ATOM     11  C   UNL     1       1.645   1.181  -1.816  0.00  0.00    +0.044 C 
ATOM     12  C   UNL     1       1.381  -0.272  -1.512  0.00  0.00    -0.050 A 
ATOM     13  C   UNL     1       0.731  -1.064  -2.441  0.00  0.00    +0.005 A 
ATOM     14  C   UNL     1       0.488  -2.395  -2.165  0.00  0.00    +0.028 A 
ATOM     15  C   UNL     1       0.896  -2.938  -0.955  0.00  0.00    +0.067 A 
ATOM     16  C   UNL     1       1.548  -2.140  -0.024  0.00  0.00    +0.028 A 
ATOM     17  C   UNL     1       1.793  -0.811  -0.307  0.00  0.00    +0.005 A 
ENDBRANCH   5  15
ENDBRANCH   1   7
BRANCH   3  18
ATOM     18  C   UNL     1       1.131  -9.865   1.220  0.00  0.00    +0.046 A 
ATOM     19  C   UNL     1       1.917  -9.815   2.363  0.00  0.00    +0.024 A 
ATOM     20  C   UNL     1       2.432 -10.977   2.900  0.00  0.00    +0.002 A 
ATOM     21  C   UNL     1       2.170 -12.201   2.305  0.00  0.00    +0.001 A 
ATOM     22  C   UNL     1       1.391 -12.270   1.170  0.00  0.00    +0.015 A 
ATOM     23  C   UNL     1       0.858 -11.103   0.619  0.00  0.00    +0.058 A 
BRANCH  23  24
ATOM     24  C   UNL     1       0.018 -11.171  -0.592  0.00  0.00    +0.246 C 
ATOM     25  O   UNL     1      -0.360 -10.147  -1.128  0.00  0.00    -0.270 OA
ATOM     26  N   UNL     1      -0.330 -12.368  -1.104  0.00  0.00    -0.307 N 
ATOM     27  H   UNL     1      -0.029 -13.185  -0.677  0.00  0.00    +0.150 HD
BRANCH  26  28
ATOM     28  C   UNL     1      -1.165 -12.435  -2.307  0.00  0.00    +0.026 C 
ATOM     29  C   UNL     1      -0.450 -11.732  -3.463  0.00  0.00    +0.031 C 
ATOM     30  C   UNL     1      -1.411 -13.900  -2.675  0.00  0.00    +0.031 C 
ATOM     31  C   UNL     1      -2.503 -11.745  -2.038  0.00  0.00    +0.031 C 
ENDBRANCH  26  28
ENDBRANCH  23  24
ENDBRANCH   3  18
TORSDOF 5
