REMARK  Name = ZINC06626081
REMARK  5 active torsions:
REMARK  status: ('A' for Active; 'I' for Inactive)
REMARK    1  A    between atoms: C_1  and  O_2
REMARK    2  A    between atoms: O_2  and  C_3
REMARK    3  A    between atoms: C_3  and  C_5
REMARK    4  A    between atoms: N_9  and  C_19
REMARK    5  A    between atoms: N_11  and  C_12
REMARK                            x       y       z     vdW  Elec       q    Type
REMARK                         _______ _______ _______ _____ _____    ______ ____
ROOT
ATOM      1  C   UNL     1       1.113  -3.688   0.015  0.00  0.00    +0.111 C 
ATOM      2  C   UNL     1       0.626  -2.420  -0.033  0.00  0.00    +0.085 C 
ATOM      3  C   UNL     1      -0.759  -1.929   0.205  0.00  0.00    +0.264 C 
ATOM      4  O   UNL     1      -1.665  -2.687   0.490  0.00  0.00    -0.269 OA
ATOM      5  N   UNL     1      -0.953  -0.625   0.097  0.00  0.00    -0.214 N 
ATOM      6  C   UNL     1       0.089   0.217  -0.234  0.00  0.00    +0.173 C 
ATOM      7  N   UNL     1       0.066   1.520  -0.385  0.00  0.00    -0.225 NA
ATOM      8  S   UNL     1       1.478  -0.892  -0.399  0.00  0.00    -0.048 S 
ENDROOT
BRANCH   7   9
ATOM      9  C   UNL     1       1.212   2.191  -0.712  0.00  0.00    +0.067 A 
ATOM     10  C   UNL     1       2.408   1.901  -0.050  0.00  0.00    +0.028 A 
ATOM     11  C   UNL     1       3.561   2.578  -0.389  0.00  0.00    +0.002 A 
ATOM     12  C   UNL     1       3.533   3.550  -1.373  0.00  0.00    +0.000 A 
ATOM     13  C   UNL     1       2.351   3.847  -2.028  0.00  0.00    +0.002 A 
ATOM     14  C   UNL     1       1.191   3.174  -1.704  0.00  0.00    +0.028 A 
ENDBRANCH   7   9
BRANCH   5  15
ATOM     15  C   UNL     1      -2.231  -0.094   0.314  0.00  0.00    +0.043 A 
ATOM     16  C   UNL     1      -2.894   0.567  -0.712  0.00  0.00    +0.024 A 
ATOM     17  C   UNL     1      -4.156   1.084  -0.495  0.00  0.00    +0.002 A 
ATOM     18  C   UNL     1      -4.755   0.955   0.744  0.00  0.00    +0.000 A 
ATOM     19  C   UNL     1      -4.095   0.302   1.769  0.00  0.00    +0.002 A 
ATOM     20  C   UNL     1      -2.835  -0.222   1.558  0.00  0.00    +0.024 A 
ENDBRANCH   5  15
BRANCH   1  21
ATOM     21  C   UNL     1       0.200  -4.814   0.204  0.00  0.00    +0.333 C 
ATOM     22  O   UNL     1      -1.001  -4.623   0.244  0.00  0.00    -0.246 OA
BRANCH  21  24
ATOM     23  C   UNL     1      -0.261  -7.117   0.517  0.00  0.00    +0.280 C 
ATOM     24  O   UNL     1       0.689  -6.065   0.335  0.00  0.00    -0.465 OA
ENDBRANCH  21  24
ENDBRANCH   1  21
TORSDOF 4
