REMARK  Name = ZINC02338692
REMARK  5 active torsions:
REMARK  status: ('A' for Active; 'I' for Inactive)
REMARK    1  A    between atoms: C_9  and  C_12
REMARK    2  A    between atoms: N_14  and  C_15
REMARK    3  A    between atoms: C_15  and  C_16
REMARK    4  A    between atoms: N_18  and  N_19
REMARK    5  A    between atoms: C_20  and  C_21
REMARK                            x       y       z     vdW  Elec       q    Type
REMARK                         _______ _______ _______ _____ _____    ______ ____
ROOT
ATOM      1  C   UNL     1       4.898  -2.639  -0.071  0.00  0.00    +0.258 C 
ATOM      2  O   UNL     1       5.727  -1.999  -0.682  0.00  0.00    -0.272 OA
ATOM      3  N   UNL     1       5.143  -3.925   0.251  0.00  0.00    -0.304 N 
ATOM      4  H   UNL     1       4.479  -4.437   0.740  0.00  0.00    +0.149 HD
ENDROOT
BRANCH   1  13
ATOM      5  C   UNL     1      -0.017   1.378   0.010  0.00  0.00    +0.004 A 
ATOM      6  C   UNL     1       1.170   2.088   0.002  0.00  0.00    +0.004 A 
ATOM      7  C   UNL     1       2.378   1.418  -0.014  0.00  0.00    +0.049 A 
ATOM      8  C   UNL     1       2.404   0.031  -0.023  0.00  0.00    +0.163 A 
ATOM      9  C   UNL     1       1.212  -0.683  -0.013  0.00  0.00    +0.162 A 
ATOM     10  C   UNL     1       0.002  -0.004   0.002  0.00  0.00    +0.049 A 
ATOM     11  O   UNL     1       1.214  -2.044  -0.013  0.00  0.00    -0.484 OA
ATOM     12  C   UNL     1       2.434  -2.685  -0.404  0.00  0.00    +0.283 C 
ATOM     13  C   UNL     1       3.594  -1.997   0.328  0.00  0.00    +0.296 C 
ATOM     14  O   UNL     1       3.602  -0.615  -0.043  0.00  0.00    -0.473 OA
ENDBRANCH   1  13
BRANCH   3  15
ATOM     15  C   UNL     1       6.410  -4.549  -0.137  0.00  0.00    +0.202 C 
BRANCH  15  16
ATOM     16  C   UNL     1       6.433  -5.979   0.340  0.00  0.00    +0.249 C 
ATOM     17  O   UNL     1       5.483  -6.432   0.944  0.00  0.00    -0.272 OA
ATOM     18  N   UNL     1       7.508  -6.754   0.095  0.00  0.00    -0.206 N 
ATOM     19  H   UNL     1       8.267  -6.391  -0.389  0.00  0.00    +0.177 HD
BRANCH  18  20
ATOM     20  N   UNL     1       7.529  -8.083   0.537  0.00  0.00    -0.188 NA
ATOM     21  C   UNL     1       8.563  -8.829   0.301  0.00  0.00    +0.138 C 
BRANCH  21  22
ATOM     22  C   UNL     1       8.585 -10.228   0.767  0.00  0.00    -0.005 A 
ATOM     23  C   UNL     1       7.492 -10.755   1.458  0.00  0.00    +0.010 A 
ATOM     24  C   UNL     1       7.519 -12.064   1.891  0.00  0.00    +0.016 A 
ATOM     25  C   UNL     1       8.627 -12.856   1.642  0.00  0.00    +0.018 A 
ATOM     26  C   UNL     1       9.714 -12.340   0.958  0.00  0.00    +0.016 A 
ATOM     27  C   UNL     1       9.698 -11.034   0.515  0.00  0.00    +0.010 A 
ATOM     28 BR   UNL     1       8.655 -14.649   2.240  0.00  0.00    -0.050 Br
ENDBRANCH  21  22
ENDBRANCH  18  20
ENDBRANCH  15  16
ENDBRANCH   3  15
TORSDOF 5
