REMARK  Name = ZINC37552527
REMARK  7 active torsions:
REMARK  status: ('A' for Active; 'I' for Inactive)
REMARK    1  A    between atoms: C_1  and  C_2
REMARK    2  A    between atoms: C_5  and  C_18
REMARK    3  A    between atoms: C_7  and  N_8
REMARK    4  A    between atoms: N_8  and  S_9
REMARK    5  A    between atoms: S_9  and  N_12
REMARK    6  A    between atoms: C_19  and  C_20
REMARK    7  A    between atoms: C_20  and  O_21
REMARK                            x       y       z     vdW  Elec       q    Type
REMARK                         _______ _______ _______ _____ _____    ______ ____
ROOT
ATOM      1  C   UNL     1       0.154   1.694   0.145  0.00  0.00    +0.046 C 
ATOM      2  C   UNL     1       0.260   0.195   0.022  0.00  0.00    -0.028 A 
ATOM      3  C   UNL     1       0.431  -0.384  -1.221  0.00  0.00    +0.006 A 
ATOM      4  C   UNL     1       0.530  -1.755  -1.341  0.00  0.00    +0.017 A 
ATOM      5  C   UNL     1       0.457  -2.562  -0.205  0.00  0.00    +0.027 A 
ATOM      6  C   UNL     1       0.285  -1.979   1.049  0.00  0.00    +0.041 A 
ATOM      7  C   UNL     1       0.192  -0.599   1.160  0.00  0.00    +0.053 A 
ENDROOT
BRANCH   7   8
ATOM      8  N   UNL     1       0.025  -0.009   2.415  0.00  0.00    -0.206 N 
ATOM      9  H   UNL     1      -0.524   0.785   2.509  0.00  0.00    +0.175 HD
BRANCH   8  10
ATOM     10  S   UNL     1       0.764  -0.666   3.744  0.00  0.00    +0.112 S 
ATOM     11  O   UNL     1       0.518   0.223   4.826  0.00  0.00    -0.138 OA
ATOM     12  O   UNL     1       0.387  -2.035   3.783  0.00  0.00    -0.138 OA
BRANCH  10  13
ATOM     13  N   UNL     1       2.396  -0.632   3.464  0.00  0.00    -0.164 NA
ATOM     14  C   UNL     1       3.065  -1.760   2.803  0.00  0.00    +0.111 C 
ATOM     15  C   UNL     1       3.854  -1.229   1.602  0.00  0.00    +0.017 C 
ATOM     16  C   UNL     1       4.802  -0.121   2.068  0.00  0.00    +0.003 C 
ATOM     17  C   UNL     1       3.989   1.032   2.659  0.00  0.00    +0.017 C 
ATOM     18  C   UNL     1       3.200   0.530   3.867  0.00  0.00    +0.111 C 
ENDBRANCH  10  13
ENDBRANCH   8  10
ENDBRANCH   7   8
BRANCH   5  19
ATOM     19  C   UNL     1       0.557  -3.986  -0.327  0.00  0.00    -0.064 C 
ATOM     20  C   UNL     1       0.640  -5.152  -0.427  0.00  0.00    -0.069 C 
BRANCH  20  21
ATOM     21  C   UNL     1       0.744  -6.615  -0.553  0.00  0.00    +0.244 C 
BRANCH  21  22
ATOM     22  O   UNL     1       0.641  -7.213   0.741  0.00  0.00    -0.383 OA
ATOM     23  H   UNL     1       0.701  -8.178   0.735  0.00  0.00    +0.211 HD
ENDBRANCH  21  22
ENDBRANCH  20  21
ENDBRANCH   5  19
TORSDOF 6
