REMARK  Name = ZINC48860693
REMARK  1 active torsions:
REMARK  status: ('A' for Active; 'I' for Inactive)
REMARK    1  A    between atoms: C_13  and  C_15
REMARK                            x       y       z     vdW  Elec       q    Type
REMARK                         _______ _______ _______ _____ _____    ______ ____
ROOT
ATOM      1  C   UNL     1      -0.019   1.521   0.010  0.00  0.00    +0.001 C 
ATOM      2  C   UNL     1       1.409   2.063  -0.000  0.00  0.00    +0.005 C 
ATOM      3  C   UNL     1       2.131   1.644  -1.275  0.00  0.00    +0.037 C 
ATOM      4  C   UNL     1       2.830   0.304  -1.064  0.00  0.00    -0.023 A 
ATOM      5  C   UNL     1       2.397  -0.599  -0.160  0.00  0.00    -0.004 A 
ATOM      6  S   UNL     1       3.512  -1.971  -0.304  0.00  0.00    -0.073 S 
ATOM      7  C   UNL     1       4.569  -1.322  -1.573  0.00  0.00    +0.116 A 
ATOM      8  C   UNL     1       4.015  -0.063  -1.845  0.00  0.00    +0.075 A 
ATOM      9  C   UNL     1       4.682   0.705  -2.855  0.00  0.00    +0.260 A 
ATOM     10  O   UNL     1       4.276   1.812  -3.161  0.00  0.00    -0.267 OA
ATOM     11  N   UNL     1       5.765   0.181  -3.459  0.00  0.00    -0.310 N 
ATOM     12  H   UNL     1       6.221   0.694  -4.144  0.00  0.00    +0.170 HD
ATOM     13  C   UNL     1       6.231  -1.051  -3.130  0.00  0.00    +0.114 A 
ATOM     14  N   UNL     1       5.645  -1.774  -2.213  0.00  0.00    -0.226 NA
ATOM     15  C   UNL     1       1.238  -0.474   0.780  0.00  0.00    +0.043 C 
ATOM     16  C   UNL     1       0.002  -0.004   0.002  0.00  0.00    +0.005 C 
ENDROOT
BRANCH  13  17
ATOM     17  C   UNL     1       7.447  -1.595  -3.834  0.00  0.00    +0.055 C 
ATOM     18  C   UNL     1       7.408  -3.056  -4.286  0.00  0.00    +0.012 C 
ATOM     19  C   UNL     1       8.280  -2.646  -3.098  0.00  0.00    +0.012 C 
ENDBRANCH  13  17
TORSDOF 1
