REMARK  Name = ZINC24759836
REMARK  5 active torsions:
REMARK  status: ('A' for Active; 'I' for Inactive)
REMARK    1  A    between atoms: C_6  and  S_7
REMARK    2  A    between atoms: S_7  and  N_10
REMARK    3  A    between atoms: N_10  and  C_11
REMARK    4  A    between atoms: C_11  and  C_12
REMARK    5  A    between atoms: C_12  and  C_13
REMARK                            x       y       z     vdW  Elec       q    Type
REMARK                         _______ _______ _______ _____ _____    ______ ____
ROOT
ATOM      1  S   UNL     1       6.768  -4.873   3.146  0.00  0.00    +0.058 S 
ATOM      2  O   UNL     1       7.504  -5.331   4.271  0.00  0.00    -0.153 OA
ATOM      3  O   UNL     1       6.099  -5.761   2.260  0.00  0.00    -0.153 OA
ENDROOT
BRANCH   1   9
ATOM      4  C   UNL     1       7.649  -3.770   0.811  0.00  0.00    +0.030 A 
ATOM      5  C   UNL     1       8.520  -3.026   0.039  0.00  0.00    +0.025 A 
ATOM      6  C   UNL     1       9.639  -2.446   0.622  0.00  0.00    +0.037 A 
ATOM      7  C   UNL     1       9.875  -2.611   1.980  0.00  0.00    -0.024 A 
ATOM      8  C   UNL     1       8.998  -3.352   2.748  0.00  0.00    +0.034 A 
ATOM      9  C   UNL     1       7.885  -3.928   2.164  0.00  0.00    +0.106 A 
ATOM     10  C   UNL     1      11.088  -1.980   2.612  0.00  0.00    +0.046 C 
ATOM     11  C   UNL     1      12.244  -1.980   1.611  0.00  0.00    +0.101 C 
ATOM     12  C   UNL     1      11.774  -1.445   0.286  0.00  0.00    +0.218 C 
ATOM     13  O   UNL     1      12.527  -0.780  -0.394  0.00  0.00    -0.275 OA
ATOM     14  N   UNL     1      10.527  -1.696  -0.155  0.00  0.00    -0.285 N 
ATOM     15  H   UNL     1      10.209  -1.306  -1.133  0.00  0.00    +0.155 HD
ENDBRANCH   1   9
BRANCH   1  16
ATOM     16  N   UNL     1       5.620  -3.829   3.724  0.00  0.00    -0.190 NA
ATOM     17  H   UNL     1       5.658  -3.519   4.779  0.00  0.00    +0.148 HD
BRANCH  16  18
ATOM     18  C   UNL     1       4.705  -3.159   2.797  0.00  0.00    +0.110 C 
BRANCH  18  19
ATOM     19  C   UNL     1       3.533  -2.562   3.579  0.00  0.00    +0.052 C 
BRANCH  19  20
ATOM     20  C   UNL     1       2.591  -1.873   2.625  0.00  0.00    -0.041 A 
ATOM     21  C   UNL     1       2.771  -0.536   2.323  0.00  0.00    +0.053 A 
ATOM     22  C   UNL     1       1.906   0.101   1.446  0.00  0.00    +0.164 A 
ATOM     23  C   UNL     1       0.860  -0.609   0.869  0.00  0.00    +0.180 A 
ATOM     24  C   UNL     1       0.685  -1.951   1.176  0.00  0.00    +0.086 A 
ATOM     25  C   UNL     1       1.550  -2.579   2.053  0.00  0.00    +0.027 A 
ATOM     26 CL   UNL     1      -0.622  -2.841   0.460  0.00  0.00    -0.080 Cl
ATOM     27  O   UNL     1       0.002  -0.004   0.002  0.00  0.00    -0.483 OA
ATOM     28  C   UNL     1      -0.017   1.428   0.010  0.00  0.00    +0.270 C 
ATOM     29  C   UNL     1       1.433   1.928  -0.001  0.00  0.00    +0.270 C 
ATOM     30  O   UNL     1       2.092   1.420   1.164  0.00  0.00    -0.485 OA
ENDBRANCH  19  20
ENDBRANCH  18  19
ENDBRANCH  16  18
ENDBRANCH   1  16
TORSDOF 5
