REMARK  Name = ZINC65184944
REMARK  9 active torsions:
REMARK  status: ('A' for Active; 'I' for Inactive)
REMARK    1  A    between atoms: C_1  and  C_2
REMARK    2  A    between atoms: C_2  and  C_3
REMARK    3  A    between atoms: C_8  and  N_9
REMARK    4  A    between atoms: C_10  and  C_12
REMARK    5  A    between atoms: C_12  and  N_13
REMARK    6  A    between atoms: N_21  and  C_24
REMARK    7  A    between atoms: C_24  and  C_25
REMARK    8  A    between atoms: C_25  and  C_26
REMARK    9  A    between atoms: C_25  and  C_27
REMARK                            x       y       z     vdW  Elec       q    Type
REMARK                         _______ _______ _______ _____ _____    ______ ____
ROOT
ATOM      1  N   UNL     1      -3.979  -0.678   5.031  0.00  0.00    -0.282 N 
ATOM      2  C   UNL     1      -4.402  -1.994   5.305  0.00  0.00    +0.086 A 
ATOM      3  C   UNL     1      -4.414  -3.065   4.458  0.00  0.00    +0.093 A 
ATOM      4  S   UNL     1      -5.026  -4.307   5.396  0.00  0.00    +0.006 S 
ATOM      5  N   UNL     1      -5.264  -3.545   6.795  0.00  0.00    -0.203 NA
ATOM      6  C   UNL     1      -4.880  -2.289   6.598  0.00  0.00    +0.161 A 
ATOM      7  C   UNL     1      -4.902  -1.177   7.586  0.00  0.00    +0.283 A 
ATOM      8  O   UNL     1      -5.302  -1.368   8.719  0.00  0.00    -0.265 OA
ATOM      9  N   UNL     1      -4.473   0.042   7.213  0.00  0.00    -0.259 N 
ATOM     10  C   UNL     1      -4.021   0.275   5.972  0.00  0.00    +0.333 A 
ATOM     11  O   UNL     1      -3.640   1.394   5.689  0.00  0.00    -0.246 OA
ENDROOT
BRANCH   1  12
ATOM     12  C   UNL     1      -3.478  -0.347   3.694  0.00  0.00    +0.223 C 
BRANCH  12  14
ATOM     13  N   UNL     1      -1.309  -0.339   2.505  0.00  0.00    -0.284 N 
ATOM     14  C   UNL     1      -1.990  -0.578   3.643  0.00  0.00    +0.237 C 
ATOM     15  O   UNL     1      -1.405  -0.980   4.627  0.00  0.00    -0.274 OA
ATOM     16  H   UNL     1      -1.764   0.044   1.739  0.00  0.00    +0.155 HD
BRANCH  13  22
ATOM     17  C   UNL     1       0.600  -1.100   1.236  0.00  0.00    -0.026 A 
ATOM     18  C   UNL     1       1.948  -1.393   1.163  0.00  0.00    +0.005 A 
ATOM     19  C   UNL     1       2.753  -1.237   2.276  0.00  0.00    +0.000 A 
ATOM     20  C   UNL     1       2.212  -0.786   3.466  0.00  0.00    +0.002 A 
ATOM     21  C   UNL     1       0.865  -0.491   3.546  0.00  0.00    +0.023 A 
ATOM     22  C   UNL     1       0.055  -0.642   2.429  0.00  0.00    +0.037 A 
BRANCH  17  24
ATOM     23  C   UNL     1      -0.393   0.066  -0.714  0.00  0.00    +0.009 C 
ATOM     24  C   UNL     1      -0.277  -1.270   0.022  0.00  0.00    +0.033 C 
ENDBRANCH  17  24
ENDBRANCH  13  22
ENDBRANCH  12  14
ENDBRANCH   1  12
BRANCH   9  25
ATOM     25  C   UNL     1      -4.494   1.137   8.185  0.00  0.00    +0.133 C 
BRANCH  25  26
ATOM     26  C   UNL     1      -3.164   1.175   8.940  0.00  0.00    +0.003 C 
ATOM     27  C   UNL     1      -3.137   2.393   9.865  0.00  0.00    +0.009 C 
ATOM     28  C   UNL     1      -3.012  -0.100   9.771  0.00  0.00    +0.009 C 
ENDBRANCH  25  26
ENDBRANCH   9  25
TORSDOF 6
