REMARK  Name = ZINC48695743
REMARK  3 active torsions:
REMARK  status: ('A' for Active; 'I' for Inactive)
REMARK    1  A    between atoms: C_1  and  S_2
REMARK    2  A    between atoms: S_2  and  C_5
REMARK    3  A    between atoms: C_10  and  N_11
REMARK                            x       y       z     vdW  Elec       q    Type
REMARK                         _______ _______ _______ _____ _____    ______ ____
ROOT
ATOM      1  N   UNL     1      -0.946   0.533  -2.780  0.00  0.00    -0.268 N 
ATOM      2  C   UNL     1      -1.439   0.924  -3.972  0.00  0.00    +0.307 C 
ATOM      3  O   UNL     1      -0.858   0.626  -4.998  0.00  0.00    -0.252 OA
ATOM      4  N   UNL     1      -2.576   1.646  -4.027  0.00  0.00    -0.282 N 
ATOM      5  C   UNL     1      -3.393   2.093  -2.879  0.00  0.00    +0.113 C 
ATOM      6  C   UNL     1      -4.596   2.864  -3.508  0.00  0.00    +0.008 C 
ATOM      7  C   UNL     1      -3.959   4.186  -4.040  0.00  0.00    +0.007 C 
ATOM      8  C   UNL     1      -3.040   3.724  -5.195  0.00  0.00    +0.023 C 
ATOM      9  C   UNL     1      -3.250   2.155  -5.256  0.00  0.00    +0.078 C 
ATOM     10  C   UNL     1      -4.761   2.043  -4.838  0.00  0.00    +0.027 C 
ATOM     11  H   UNL     1      -1.443   0.713  -1.967  0.00  0.00    +0.156 HD
ENDROOT
BRANCH   1  17
ATOM     12  C   UNL     1       1.136   0.081  -1.643  0.00  0.00    +0.109 A 
ATOM     13  C   UNL     1       2.346  -0.583  -1.580  0.00  0.00    +0.029 A 
ATOM     14  C   UNL     1       2.709  -1.457  -2.587  0.00  0.00    +0.002 A 
ATOM     15  C   UNL     1       1.864  -1.669  -3.662  0.00  0.00    +0.002 A 
ATOM     16  C   UNL     1       0.654  -1.008  -3.730  0.00  0.00    +0.025 A 
ATOM     17  C   UNL     1       0.283  -0.134  -2.716  0.00  0.00    +0.060 A 
BRANCH  12  19
ATOM     18  C   UNL     1       0.602   2.822  -1.155  0.00  0.00    +0.200 C 
ATOM     19  S   UNL     1       0.673   1.195  -0.358  0.00  0.00    -0.004 S 
ATOM     20  O   UNL     1       1.751   1.149   0.567  0.00  0.00    -0.170 OA
ATOM     21  O   UNL     1      -0.630   0.781   0.028  0.00  0.00    -0.170 OA
ENDBRANCH  12  19
ENDBRANCH   1  17
TORSDOF 2
