REMARK  Name = ZINC06249522
REMARK  5 active torsions:
REMARK  status: ('A' for Active; 'I' for Inactive)
REMARK    1  A    between atoms: C_1  and  C_2
REMARK    2  A    between atoms: N_7  and  C_9
REMARK    3  A    between atoms: C_12  and  C_18
REMARK    4  A    between atoms: C_14  and  N_15
REMARK    5  A    between atoms: N_20  and  C_21
REMARK                            x       y       z     vdW  Elec       q    Type
REMARK                         _______ _______ _______ _____ _____    ______ ____
ROOT
ATOM      1  C   UNL     1      -0.754   1.991   1.044  0.00  0.00    +0.060 A 
ATOM      2  C   UNL     1      -2.135   1.818   1.094  0.00  0.00    +0.026 A 
ATOM      3  C   UNL     1      -2.848   2.275   2.178  0.00  0.00    +0.015 A 
ATOM      4  C   UNL     1      -2.186   2.924   3.225  0.00  0.00    +0.039 A 
ATOM      5  C   UNL     1      -0.801   3.102   3.169  0.00  0.00    +0.047 A 
ATOM      6  C   UNL     1      -0.092   2.637   2.084  0.00  0.00    +0.148 A 
ENDROOT
BRANCH   1  12
ATOM      7  C   UNL     1       0.660  -1.950  -1.411  0.00  0.00    +0.009 C 
ATOM      8  C   UNL     1       0.781  -0.430  -1.283  0.00  0.00    +0.003 C 
ATOM      9  C   UNL     1       0.365   0.229  -2.601  0.00  0.00    +0.006 C 
ATOM     10  C   UNL     1       0.432   1.751  -2.445  0.00  0.00    +0.019 C 
ATOM     11  C   UNL     1      -0.474   2.180  -1.289  0.00  0.00    +0.105 C 
ATOM     12  N   UNL     1      -0.035   1.523  -0.051  0.00  0.00    -0.328 N 
ATOM     13  C   UNL     1      -0.135   0.062  -0.160  0.00  0.00    +0.108 C 
ENDBRANCH   1  12
BRANCH   4  14
ATOM     14  C   UNL     1      -2.949   3.421   4.386  0.00  0.00    +0.248 C 
ATOM     15  O   UNL     1      -2.372   3.985   5.296  0.00  0.00    -0.270 OA
ATOM     16  N   UNL     1      -4.285   3.249   4.438  0.00  0.00    -0.279 N 
ATOM     17  H   UNL     1      -4.733   2.725   3.756  0.00  0.00    +0.155 HD
BRANCH  16  18
ATOM     18  C   UNL     1      -5.025   3.827   5.476  0.00  0.00    +0.069 A 
ATOM     19  C   UNL     1      -4.540   4.949   6.135  0.00  0.00    +0.027 A 
ATOM     20  C   UNL     1      -5.272   5.518   7.159  0.00  0.00    +0.022 A 
ATOM     21  C   UNL     1      -6.488   4.972   7.529  0.00  0.00    +0.044 A 
ATOM     22  C   UNL     1      -6.975   3.853   6.876  0.00  0.00    +0.060 A 
ATOM     23  C   UNL     1      -6.249   3.282   5.847  0.00  0.00    +0.146 A 
ATOM     24  F   UNL     1      -6.727   2.193   5.205  0.00  0.00    -0.203 F 
ATOM     25 CL   UNL     1      -7.405   5.690   8.817  0.00  0.00    -0.083 Cl
ENDBRANCH  16  18
ENDBRANCH   4  14
BRANCH   6  26
ATOM     26  N   UNL     1       1.375   2.825   2.025  0.00  0.00    +0.058 N 
ATOM     27  O   UNL     1       1.966   3.306   2.974  0.00  0.00    -0.126 OA
ATOM     28  O   UNL     1       1.990   2.498   1.026  0.00  0.00    -0.126 OA
ENDBRANCH   6  26
TORSDOF 4
