REMARK  Name = ZINC58596490
REMARK  10 active torsions:
REMARK  status: ('A' for Active; 'I' for Inactive)
REMARK    1  A    between atoms: C_1  and  C_2
REMARK    2  A    between atoms: C_2  and  O_3
REMARK    3  A    between atoms: O_3  and  C_4
REMARK    4  A    between atoms: C_4  and  C_6
REMARK    5  A    between atoms: C_13  and  C_15
REMARK    6  A    between atoms: C_15  and  C_17
REMARK    7  A    between atoms: C_15  and  N_18
REMARK    8  A    between atoms: N_21  and  C_24
REMARK    9  A    between atoms: C_24  and  C_25
REMARK   10  A    between atoms: C_29  and  C_31
REMARK                            x       y       z     vdW  Elec       q    Type
REMARK                         _______ _______ _______ _____ _____    ______ ____
ROOT
ATOM      1  C   UNL     1       3.513  -5.920  -5.000  0.00  0.00    +0.140 C 
ATOM      2  C   UNL     1       4.120  -4.834  -5.892  0.00  0.00    +0.034 C 
ENDROOT
BRANCH   1   9
ATOM      3  C   UNL     1      -0.004  -4.176  -4.309  0.00  0.00    +0.115 C 
ATOM      4  C   UNL     1      -0.371  -3.535  -2.969  0.00  0.00    +0.018 C 
ATOM      5  C   UNL     1       0.431  -4.199  -1.848  0.00  0.00    +0.020 C 
ATOM      6  C   UNL     1       1.927  -3.980  -2.096  0.00  0.00    +0.108 C 
ATOM      7  N   UNL     1       2.259  -4.463  -3.443  0.00  0.00    -0.299 N 
ATOM      8  C   UNL     1       1.486  -3.957  -4.586  0.00  0.00    +0.122 C 
ATOM      9  C   UNL     1       3.253  -5.354  -3.628  0.00  0.00    +0.233 C 
ATOM     10  O   UNL     1       3.938  -5.702  -2.689  0.00  0.00    -0.274 OA
BRANCH   3  11
ATOM     11  C   UNL     1      -0.818  -3.544  -5.409  0.00  0.00    +0.312 C 
ATOM     12  O   UNL     1      -0.264  -2.977  -6.321  0.00  0.00    -0.250 OA
BRANCH  11  13
ATOM     13  O   UNL     1      -2.158  -3.610  -5.375  0.00  0.00    -0.465 OA
BRANCH  13  15
ATOM     14  C   UNL     1      -4.371  -3.166  -6.239  0.00  0.00    +0.048 C 
ATOM     15  C   UNL     1      -2.866  -2.988  -6.449  0.00  0.00    +0.229 C 
ENDBRANCH  13  15
ENDBRANCH  11  13
ENDBRANCH   3  11
ENDBRANCH   1   9
BRANCH   1  16
ATOM     16  N   UNL     1       4.449  -7.047  -4.896  0.00  0.00    -0.295 NA
ATOM     17  C   UNL     1       5.739  -6.611  -4.341  0.00  0.00    +0.066 C 
ATOM     18  C   UNL     1       6.662  -7.822  -4.194  0.00  0.00    -0.063 C 
ATOM     19  N   UNL     1       6.862  -8.449  -5.507  0.00  0.00    +0.384 N 
ATOM     20  C   UNL     1       5.568  -8.901  -6.037  0.00  0.00    -0.063 C 
ATOM     21  C   UNL     1       4.636  -7.699  -6.200  0.00  0.00    +0.066 C 
ATOM     22  H   UNL     1       7.269  -7.779  -6.142  0.00  0.00    -0.081 HD
BRANCH  19  23
ATOM     23  C   UNL     1       7.763  -9.601  -5.368  0.00  0.00    -0.043 C 
BRANCH  23  24
ATOM     24  C   UNL     1       8.065 -10.170  -6.731  0.00  0.00    -0.064 A 
ATOM     25  C   UNL     1       7.255 -11.155  -7.264  0.00  0.00    +0.002 A 
ATOM     26  C   UNL     1       7.532 -11.677  -8.513  0.00  0.00    +0.000 A 
ATOM     27  C   UNL     1       8.619 -11.213  -9.230  0.00  0.00    +0.003 A 
ATOM     28  C   UNL     1       9.429 -10.227  -8.698  0.00  0.00    -0.050 A 
ATOM     29  C   UNL     1       9.149  -9.703  -7.450  0.00  0.00    +0.005 A 
ATOM     30  C   UNL     1      10.614  -9.722  -9.479  0.00  0.00    +0.044 C 
ENDBRANCH  23  24
ENDBRANCH  19  23
ENDBRANCH   1  16
TORSDOF 7
