REMARK  Name = ZINC32117681
REMARK  7 active torsions:
REMARK  status: ('A' for Active; 'I' for Inactive)
REMARK    1  A    between atoms: C_1  and  C_2
REMARK    2  A    between atoms: C_4  and  C_28
REMARK    3  A    between atoms: C_13  and  C_18
REMARK    4  A    between atoms: C_18  and  C_19
REMARK    5  A    between atoms: C_19  and  C_20
REMARK    6  A    between atoms: C_21  and  C_27
REMARK    7  A    between atoms: C_25  and  C_26
REMARK                            x       y       z     vdW  Elec       q    Type
REMARK                         _______ _______ _______ _____ _____    ______ ____
ROOT
ATOM      1  C   UNL     1       6.238  -2.584  -0.076  0.00  0.00    +0.044 C 
ATOM      2  C   UNL     1       5.131  -3.606  -0.070  0.00  0.00    -0.037 A 
ATOM      3  C   UNL     1       5.422  -4.952  -0.081  0.00  0.00    +0.027 A 
ATOM      4  C   UNL     1       4.400  -5.888  -0.077  0.00  0.00    +0.040 A 
ATOM      5  N   UNL     1       3.139  -5.500  -0.061  0.00  0.00    -0.245 NA
ATOM      6  C   UNL     1       2.815  -4.224  -0.050  0.00  0.00    +0.111 A 
ATOM      7  C   UNL     1       3.777  -3.198  -0.053  0.00  0.00    +0.037 A 
ATOM      8  C   UNL     1       3.253  -1.820  -0.040  0.00  0.00    +0.093 A 
ATOM      9  C   UNL     1       1.866  -1.696  -0.025  0.00  0.00    +0.084 A 
ATOM     10  S   UNL     1       1.262  -3.362  -0.029  0.00  0.00    -0.063 S 
ATOM     11  C   UNL     1       1.254  -0.435  -0.012  0.00  0.00    +0.173 A 
ATOM     12  N   UNL     1       0.002  -0.004   0.002  0.00  0.00    -0.210 NA
ATOM     13  C   UNL     1      -0.016   1.323   0.009  0.00  0.00    +0.152 A 
ATOM     14  N   UNL     1       1.214   1.780   0.000  0.00  0.00    -0.149 NA
ATOM     15  N   UNL     1       2.066   0.671  -0.014  0.00  0.00    -0.201 N 
ATOM     16  C   UNL     1       3.414   0.506  -0.029  0.00  0.00    +0.225 A 
ATOM     17  N   UNL     1       3.974  -0.663  -0.041  0.00  0.00    -0.234 NA
ATOM     18  C   UNL     1       4.731  -7.358  -0.089  0.00  0.00    +0.065 C 
ENDROOT
BRANCH  13  19
ATOM     19  C   UNL     1      -1.259   2.174   0.020  0.00  0.00    +0.083 C 
BRANCH  19  20
ATOM     20  C   UNL     1      -1.673   2.454   1.466  0.00  0.00    +0.046 C 
BRANCH  20  21
ATOM     21  C   UNL     1      -2.917   3.305   1.477  0.00  0.00    -0.004 A 
ATOM     22  C   UNL     1      -4.191   2.853   1.481  0.00  0.00    +0.036 A 
ATOM     23  N   UNL     1      -5.009   3.926   1.491  0.00  0.00    -0.281 N 
ATOM     24  H   UNL     1      -6.101   3.786   1.495  0.00  0.00    +0.189 HD
ATOM     25  N   UNL     1      -4.211   5.077   1.493  0.00  0.00    -0.179 NA
ATOM     26  C   UNL     1      -2.957   4.704   1.491  0.00  0.00    +0.063 A 
ATOM     27  C   UNL     1      -1.762   5.622   1.498  0.00  0.00    +0.068 C 
ATOM     28  C   UNL     1      -4.621   1.408   1.475  0.00  0.00    +0.065 C 
ENDBRANCH  20  21
ENDBRANCH  19  20
ENDBRANCH  13  19
TORSDOF 3
