REMARK  Name = ZINC27604164
REMARK  10 active torsions:
REMARK  status: ('A' for Active; 'I' for Inactive)
REMARK    1  A    between atoms: C_1  and  C_2
REMARK    2  A    between atoms: C_2  and  C_3
REMARK    3  A    between atoms: N_5  and  C_6
REMARK    4  A    between atoms: C_9  and  C_12
REMARK    5  A    between atoms: C_12  and  C_14
REMARK    6  A    between atoms: C_12  and  N_15
REMARK    7  A    between atoms: C_16  and  C_18
REMARK    8  A    between atoms: C_18  and  N_19
REMARK    9  A    between atoms: N_22  and  C_23
REMARK   10  A    between atoms: C_23  and  C_24
REMARK                            x       y       z     vdW  Elec       q    Type
REMARK                         _______ _______ _______ _____ _____    ______ ____
ROOT
ATOM      1  N   UNL     1      -5.733  -2.314   1.343  0.00  0.00    -0.307 N 
ATOM      2  C   UNL     1      -6.790  -2.859   1.977  0.00  0.00    +0.231 C 
ATOM      3  O   UNL     1      -7.909  -2.444   1.758  0.00  0.00    -0.274 OA
ATOM      4  H   UNL     1      -4.719  -2.690   1.542  0.00  0.00    +0.149 HD
ENDROOT
BRANCH   1   5
ATOM      5  C   UNL     1      -5.935  -1.221   0.389  0.00  0.00    +0.100 C 
ATOM      6  C   UNL     1      -6.275  -1.800  -0.986  0.00  0.00    +0.033 C 
BRANCH   5  10
ATOM      7  C   UNL     1      -2.361   1.105   0.110  0.00  0.00    +0.033 A 
ATOM      8  C   UNL     1      -2.286  -0.279   0.192  0.00  0.00    +0.023 A 
ATOM      9  C   UNL     1      -3.442  -1.028   0.288  0.00  0.00    +0.007 A 
ATOM     10  C   UNL     1      -4.675  -0.401   0.291  0.00  0.00    -0.027 A 
ATOM     11  C   UNL     1      -4.753   0.977   0.204  0.00  0.00    +0.007 A 
ATOM     12  C   UNL     1      -3.600   1.732   0.113  0.00  0.00    +0.023 A 
BRANCH   7  15
ATOM     13  C   UNL     1      -1.125   3.076   0.609  0.00  0.00    +0.217 C 
ATOM     14  O   UNL     1      -2.107   3.541   1.149  0.00  0.00    -0.275 OA
ATOM     15  N   UNL     1      -1.191   1.867   0.018  0.00  0.00    -0.286 N 
ATOM     16  H   UNL     1      -0.324   1.478  -0.537  0.00  0.00    +0.155 HD
BRANCH  13  18
ATOM     17  C   UNL     1      -0.026   5.174   1.343  0.00  0.00    +0.013 C 
ATOM     18  C   UNL     1       0.169   3.848   0.605  0.00  0.00    +0.093 C 
ENDBRANCH  13  18
ENDBRANCH   7  15
ENDBRANCH   5  10
ENDBRANCH   1   5
BRANCH   2  19
ATOM     19  C   UNL     1      -6.583  -3.983   2.959  0.00  0.00    +0.201 C 
BRANCH  19  20
ATOM     20  N   UNL     1      -7.876  -4.397   3.508  0.00  0.00    -0.291 N 
ATOM     21  C   UNL     1      -7.936  -5.395   4.413  0.00  0.00    +0.300 C 
ATOM     22  O   UNL     1      -6.917  -5.951   4.772  0.00  0.00    -0.253 OA
ATOM     23  N   UNL     1      -9.126  -5.776   4.918  0.00  0.00    -0.295 N 
ATOM     24  H   UNL     1      -8.799  -3.894   3.183  0.00  0.00    +0.151 HD
ATOM     25  H   UNL     1     -10.049  -5.272   4.592  0.00  0.00    +0.151 HD
BRANCH  23  26
ATOM     26  C   UNL     1      -9.191  -6.860   5.901  0.00  0.00    +0.141 C 
BRANCH  26  27
ATOM     27  C   UNL     1     -10.626  -7.088   6.303  0.00  0.00    -0.030 A 
ATOM     28  C   UNL     1     -11.160  -6.401   7.377  0.00  0.00    +0.008 A 
ATOM     29  C   UNL     1     -12.477  -6.606   7.743  0.00  0.00    +0.038 A 
ATOM     30  C   UNL     1     -13.258  -7.508   7.040  0.00  0.00    +0.123 A 
ATOM     31  C   UNL     1     -12.720  -8.199   5.968  0.00  0.00    +0.038 A 
ATOM     32  C   UNL     1     -11.405  -7.989   5.601  0.00  0.00    +0.008 A 
ATOM     33  F   UNL     1     -14.544  -7.712   7.401  0.00  0.00    -0.205 F 
ENDBRANCH  26  27
ENDBRANCH  23  26
ENDBRANCH  19  20
ENDBRANCH   2  19
TORSDOF 8
