REMARK  Name = ZINC67628645
REMARK  10 active torsions:
REMARK  status: ('A' for Active; 'I' for Inactive)
REMARK    1  A    between atoms: C_1  and  C_2
REMARK    2  A    between atoms: C_5  and  C_7
REMARK    3  A    between atoms: C_10  and  C_12
REMARK    4  A    between atoms: C_12  and  N_13
REMARK    5  A    between atoms: N_16  and  C_17
REMARK    6  A    between atoms: C_17  and  C_18
REMARK    7  A    between atoms: C_18  and  C_20
REMARK    8  A    between atoms: C_18  and  O_28
REMARK    9  A    between atoms: C_20  and  N_21
REMARK   10  A    between atoms: C_24  and  C_27
REMARK                            x       y       z     vdW  Elec       q    Type
REMARK                         _______ _______ _______ _____ _____    ______ ____
ROOT
ATOM      1  N   UNL     1      -2.274  -5.518   0.664  0.00  0.00    -0.292 N 
ATOM      2  C   UNL     1      -2.785  -6.671   0.190  0.00  0.00    +0.300 C 
ATOM      3  O   UNL     1      -2.116  -7.686   0.208  0.00  0.00    -0.253 OA
ATOM      4  N   UNL     1      -4.040  -6.700  -0.303  0.00  0.00    -0.297 N 
ATOM      5  H   UNL     1      -2.808  -4.708   0.650  0.00  0.00    +0.151 HD
ATOM      6  H   UNL     1      -4.574  -5.890  -0.317  0.00  0.00    +0.150 HD
ENDROOT
BRANCH   1   7
ATOM      7  C   UNL     1      -0.911  -5.486   1.200  0.00  0.00    +0.180 C 
BRANCH   7  11
ATOM      8  C   UNL     1       0.118  -2.011   1.645  0.00  0.00    +0.109 A 
ATOM      9  C   UNL     1      -0.345  -2.257   2.884  0.00  0.00    +0.045 A 
ATOM     10  C   UNL     1      -0.798  -3.596   2.893  0.00  0.00    +0.046 A 
ATOM     11  C   UNL     1      -0.584  -4.089   1.660  0.00  0.00    +0.122 A 
ATOM     12  O   UNL     1      -0.034  -3.122   0.906  0.00  0.00    -0.463 OA
BRANCH   8  16
ATOM     13  C   UNL     1      -0.019   1.526   0.010  0.00  0.00    +0.008 C 
ATOM     14  C   UNL     1       0.002  -0.004   0.002  0.00  0.00    -0.003 C 
ATOM     15  C   UNL     1       1.351  -0.691  -0.221  0.00  0.00    +0.015 C 
ATOM     16  C   UNL     1       0.703  -0.708   1.166  0.00  0.00    +0.058 C 
ENDBRANCH   8  16
ENDBRANCH   7  11
ENDBRANCH   1   7
BRANCH   4  17
ATOM     17  C   UNL     1      -4.596  -7.954  -0.818  0.00  0.00    +0.135 C 
BRANCH  17  18
ATOM     18  C   UNL     1      -6.023  -7.713  -1.313  0.00  0.00    +0.115 C 
BRANCH  18  19
ATOM     19  O   UNL     1      -5.995  -6.824  -2.432  0.00  0.00    -0.392 OA
ATOM     20  H   UNL     1      -5.484  -7.154  -3.184  0.00  0.00    +0.210 HD
ENDBRANCH  18  19
BRANCH  18  21
ATOM     21  C   UNL     1      -6.647  -9.044  -1.735  0.00  0.00    -0.046 C 
BRANCH  21  22
ATOM     22  N   UNL     1      -8.018  -8.813  -2.211  0.00  0.00    +0.381 N 
ATOM     23  C   UNL     1      -8.843  -8.322  -1.102  0.00  0.00    -0.078 C 
ATOM     24  C   UNL     1     -10.251  -8.002  -1.610  0.00  0.00    -0.016 C 
ATOM     25  C   UNL     1     -10.878  -9.273  -2.191  0.00  0.00    -0.018 C 
ATOM     26  C   UNL     1      -9.971  -9.818  -3.298  0.00  0.00    -0.016 C 
ATOM     27  C   UNL     1      -8.574 -10.070  -2.727  0.00  0.00    -0.078 C 
ATOM     28  C   UNL     1     -12.254  -8.944  -2.774  0.00  0.00    +0.007 C 
ATOM     29  H   UNL     1      -8.005  -8.125  -2.949  0.00  0.00    -0.082 HD
ENDBRANCH  21  22
ENDBRANCH  18  21
ENDBRANCH  17  18
ENDBRANCH   4  17
TORSDOF 8
