REMARK  Name = ZINC59993005
REMARK  8 active torsions:
REMARK  status: ('A' for Active; 'I' for Inactive)
REMARK    1  A    between atoms: C_1  and  C_2
REMARK    2  A    between atoms: N_11  and  C_12
REMARK    3  A    between atoms: C_12  and  C_13
REMARK    4  A    between atoms: C_13  and  C_14
REMARK    5  A    between atoms: C_13  and  C_15
REMARK    6  A    between atoms: C_13  and  N_16
REMARK    7  A    between atoms: C_18  and  C_25
REMARK    8  A    between atoms: C_21  and  C_24
REMARK                            x       y       z     vdW  Elec       q    Type
REMARK                         _______ _______ _______ _____ _____    ______ ____
ROOT
ATOM      1  C   UNL     1       0.264  -4.890   3.052  0.00  0.00    +0.093 C 
ENDROOT
BRANCH   1  11
ATOM      2  C   UNL     1       3.295  -5.013   8.677  0.00  0.00    +0.009 C 
ATOM      3  C   UNL     1       2.285  -4.084   8.001  0.00  0.00    +0.003 C 
ATOM      4  C   UNL     1       2.403  -2.680   8.599  0.00  0.00    +0.006 C 
ATOM      5  C   UNL     1       1.370  -1.758   7.947  0.00  0.00    +0.019 C 
ATOM      6  C   UNL     1       1.649  -1.668   6.443  0.00  0.00    +0.109 C 
ATOM      7  N   UNL     1       1.681  -3.027   5.886  0.00  0.00    -0.285 N 
ATOM      8  C   UNL     1       2.573  -4.021   6.498  0.00  0.00    +0.112 C 
ATOM      9  C   UNL     1       0.906  -3.357   4.834  0.00  0.00    +0.302 C 
ATOM     10  O   UNL     1       0.096  -2.559   4.402  0.00  0.00    -0.253 OA
ATOM     11  N   UNL     1       1.028  -4.571   4.261  0.00  0.00    -0.301 N 
ATOM     12  H   UNL     1       1.621  -5.233   4.649  0.00  0.00    +0.150 HD
ENDBRANCH   1  11
BRANCH   1  13
ATOM     13  C   UNL     1       0.486  -6.358   2.682  0.00  0.00    -0.055 C 
ATOM     14  C   UNL     1      -0.006  -7.252   3.821  0.00  0.00    -0.008 C 
ATOM     15  C   UNL     1      -0.290  -6.685   1.405  0.00  0.00    -0.008 C 
BRANCH  13  16
ATOM     16  N   UNL     1       1.919  -6.595   2.458  0.00  0.00    +0.384 N 
ATOM     17  C   UNL     1       2.415  -5.659   1.441  0.00  0.00    -0.075 C 
ATOM     18  C   UNL     1       3.923  -5.846   1.262  0.00  0.00    -0.031 C 
ATOM     19  C   UNL     1       4.204  -7.284   0.815  0.00  0.00    +0.003 C 
ATOM     20  C   UNL     1       3.617  -8.252   1.846  0.00  0.00    -0.031 C 
ATOM     21  C   UNL     1       2.120  -7.976   2.003  0.00  0.00    -0.075 C 
ATOM     22  C   UNL     1       3.824  -9.692   1.371  0.00  0.00    +0.005 C 
ATOM     23  C   UNL     1       4.632  -5.575   2.591  0.00  0.00    +0.005 C 
ATOM     24  H   UNL     1       2.422  -6.449   3.320  0.00  0.00    -0.081 HD
ENDBRANCH  13  16
ENDBRANCH   1  13
TORSDOF 3
