REMARK  Name = ZINC48698016
REMARK  4 active torsions:
REMARK  status: ('A' for Active; 'I' for Inactive)
REMARK    1  A    between atoms: C_1  and  C_2
REMARK    2  A    between atoms: C_6  and  C_10
REMARK    3  A    between atoms: C_11  and  C_13
REMARK    4  A    between atoms: C_18  and  N_19
REMARK                            x       y       z     vdW  Elec       q    Type
REMARK                         _______ _______ _______ _____ _____    ______ ____
ROOT
ATOM      1  C   UNL     1       0.535   1.575  -0.160  0.00  0.00    +0.039 C 
ATOM      2  C   UNL     1       0.413   0.051  -0.112  0.00  0.00    +0.133 C 
ATOM      3  C   UNL     1       1.006  -0.550  -1.392  0.00  0.00    +0.139 C 
ATOM      4  N   UNL     1       1.048  -2.014  -1.241  0.00  0.00    -0.290 N 
ATOM      5  C   UNL     1       1.659  -2.566  -0.021  0.00  0.00    +0.099 C 
ATOM      6  C   UNL     1       1.034  -1.867   1.192  0.00  0.00    +0.182 C 
ATOM      7  O   UNL     1       1.128  -0.451   1.020  0.00  0.00    -0.373 OA
ATOM      8  C   UNL     1       3.168  -2.314  -0.041  0.00  0.00    +0.030 C 
ATOM      9  C   UNL     1       0.543  -2.824  -2.192  0.00  0.00    +0.249 C 
ATOM     10  O   UNL     1       0.664  -4.029  -2.090  0.00  0.00    -0.270 OA
ENDROOT
BRANCH   9  11
ATOM     11  C   UNL     1      -0.157  -2.247  -3.359  0.00  0.00    +0.067 A 
ATOM     12  C   UNL     1       0.507  -1.357  -4.205  0.00  0.00    +0.017 A 
ATOM     13  C   UNL     1      -0.151  -0.822  -5.292  0.00  0.00    +0.021 A 
ATOM     14  C   UNL     1      -1.469  -1.166  -5.545  0.00  0.00    +0.043 A 
ATOM     15  C   UNL     1      -2.133  -2.048  -4.709  0.00  0.00    +0.053 A 
ATOM     16  C   UNL     1      -1.483  -2.594  -3.622  0.00  0.00    +0.140 A 
ATOM     17 CL   UNL     1      -2.292  -0.488  -6.915  0.00  0.00    -0.083 Cl
BRANCH  16  18
ATOM     18  N   UNL     1      -2.192  -3.542  -2.733  0.00  0.00    +0.057 N 
ATOM     19  O   UNL     1      -3.298  -3.933  -3.025  0.00  0.00    -0.126 OA
ATOM     20  O   UNL     1      -1.665  -3.925  -1.715  0.00  0.00    -0.126 OA
ENDBRANCH  16  18
ENDBRANCH   9  11
TORSDOF 2
