REMARK  Name = ZINC45666178
REMARK  6 active torsions:
REMARK  status: ('A' for Active; 'I' for Inactive)
REMARK    1  A    between atoms: C_1  and  C_2
REMARK    2  A    between atoms: N_5  and  S_11
REMARK    3  A    between atoms: C_7  and  C_9
REMARK    4  A    between atoms: C_7  and  C_10
REMARK    5  A    between atoms: S_11  and  C_14
REMARK    6  A    between atoms: C_15  and  N_21
REMARK                            x       y       z     vdW  Elec       q    Type
REMARK                         _______ _______ _______ _____ _____    ______ ____
ROOT
ATOM      1  S   UNL     1       0.289  -3.163  -2.569  0.00  0.00    +0.064 S 
ATOM      2  O   UNL     1       0.185  -4.408  -1.892  0.00  0.00    -0.153 OA
ATOM      3  O   UNL     1      -0.732  -2.676  -3.429  0.00  0.00    -0.153 OA
ENDROOT
BRANCH   1   7
ATOM      4  C   UNL     1      -0.934   1.393  -0.613  0.00  0.00    +0.039 C 
ATOM      5  C   UNL     1      -0.706  -0.114  -0.484  0.00  0.00    +0.132 C 
ATOM      6  C   UNL     1       0.160  -0.603  -1.651  0.00  0.00    +0.140 C 
ATOM      7  N   UNL     1       0.519  -2.009  -1.405  0.00  0.00    -0.171 NA
ATOM      8  C   UNL     1       1.088  -2.358  -0.094  0.00  0.00    +0.144 C 
ATOM      9  C   UNL     1       0.177  -1.784   0.997  0.00  0.00    +0.079 C 
ATOM     10  O   UNL     1      -0.037  -0.392   0.749  0.00  0.00    -0.368 OA
ATOM     11  C   UNL     1      -1.165  -2.517   0.981  0.00  0.00    +0.042 C 
ATOM     12  C   UNL     1       0.842  -1.962   2.364  0.00  0.00    +0.042 C 
ENDBRANCH   1   7
BRANCH   1  13
ATOM     13  C   UNL     1       1.764  -3.235  -3.530  0.00  0.00    +0.144 A 
ATOM     14  C   UNL     1       1.964  -2.331  -4.566  0.00  0.00    +0.053 A 
ATOM     15  C   UNL     1       3.128  -2.391  -5.321  0.00  0.00    +0.025 A 
ATOM     16  C   UNL     1       4.084  -3.348  -5.041  0.00  0.00    +0.003 A 
ATOM     17  C   UNL     1       3.882  -4.247  -4.010  0.00  0.00    +0.022 A 
ATOM     18  C   UNL     1       2.726  -4.187  -3.251  0.00  0.00    +0.069 A 
ATOM     19 CL   UNL     1       2.481  -5.313  -1.953  0.00  0.00    -0.081 Cl
BRANCH  14  20
ATOM     20  N   UNL     1       0.997  -1.364  -4.847  0.00  0.00    -0.356 N 
ATOM     21  H   UNL     1       0.268  -1.211  -4.225  0.00  0.00    +0.142 HD
ATOM     22  H   UNL     1       1.053  -0.845  -5.665  0.00  0.00    +0.142 HD
ENDBRANCH  14  20
ENDBRANCH   1  13
TORSDOF 3
