REMARK  Name = ZINC43188268
REMARK  10 active torsions:
REMARK  status: ('A' for Active; 'I' for Inactive)
REMARK    1  A    between atoms: C_1  and  C_2
REMARK    2  A    between atoms: C_2  and  C_3
REMARK    3  A    between atoms: C_2  and  C_4
REMARK    4  A    between atoms: C_2  and  N_23
REMARK    5  A    between atoms: C_4  and  N_5
REMARK    6  A    between atoms: N_8  and  N_9
REMARK    7  A    between atoms: C_10  and  C_12
REMARK    8  A    between atoms: C_12  and  C_13
REMARK    9  A    between atoms: N_23  and  C_24
REMARK   10  A    between atoms: N_23  and  C_25
REMARK                            x       y       z     vdW  Elec       q    Type
REMARK                         _______ _______ _______ _____ _____    ______ ____
ROOT
ATOM      1  N   UNL     1      -1.330  -4.720  -0.011  0.00  0.00    -0.233 N 
ATOM      2  C   UNL     1      -1.312  -6.067  -0.018  0.00  0.00    +0.233 C 
ATOM      3  O   UNL     1      -2.354  -6.688  -0.011  0.00  0.00    -0.274 OA
ATOM      4  H   UNL     1      -0.497  -4.223  -0.016  0.00  0.00    +0.173 HD
ENDROOT
BRANCH   1   8
ATOM      5  N   UNL     1      -1.413  -1.998   0.005  0.00  0.00    -0.300 N 
ATOM      6  C   UNL     1      -2.571  -2.688   0.012  0.00  0.00    +0.316 C 
ATOM      7  O   UNL     1      -3.632  -2.095   0.025  0.00  0.00    -0.251 OA
ATOM      8  N   UNL     1      -2.553  -4.036   0.005  0.00  0.00    -0.218 N 
ATOM      9  H   UNL     1      -0.567  -2.472  -0.006  0.00  0.00    +0.150 HD
ATOM     10  H   UNL     1      -3.386  -4.532   0.010  0.00  0.00    +0.174 HD
BRANCH   5  11
ATOM     11  C   UNL     1      -1.433  -0.534   0.013  0.00  0.00    +0.093 C 
BRANCH  11  13
ATOM     12  C   UNL     1      -0.019   1.526   0.010  0.00  0.00    -0.008 C 
ATOM     13  C   UNL     1       0.002  -0.004   0.002  0.00  0.00    -0.056 C 
ATOM     14  C   UNL     1       0.742  -0.511   1.242  0.00  0.00    -0.008 C 
BRANCH  13  15
ATOM     15  N   UNL     1       0.690  -0.478  -1.207  0.00  0.00    +0.380 N 
ATOM     16  C   UNL     1      -0.021   0.009  -2.397  0.00  0.00    -0.096 C 
ATOM     17  C   UNL     1       2.068   0.031  -1.217  0.00  0.00    -0.096 C 
ATOM     18  H   UNL     1       0.703  -1.487  -1.212  0.00  0.00    -0.082 HD
ENDBRANCH  13  15
ENDBRANCH  11  13
ENDBRANCH   5  11
ENDBRANCH   1   8
BRANCH   2  19
ATOM     19  C   UNL     1       0.003  -6.803  -0.035  0.00  0.00    +0.132 C 
BRANCH  19  20
ATOM     20  C   UNL     1      -0.252  -8.288  -0.040  0.00  0.00    -0.038 A 
ATOM     21  C   UNL     1      -0.363  -8.970   1.170  0.00  0.00    +0.005 A 
ATOM     22  C   UNL     1      -0.592 -10.311   1.201  0.00  0.00    +0.009 A 
ATOM     23  C   UNL     1      -0.722 -11.022  -0.005  0.00  0.00    -0.018 A 
ATOM     24  C   UNL     1      -0.960 -12.407  -0.014  0.00  0.00    +0.008 A 
ATOM     25  C   UNL     1      -1.079 -13.062  -1.201  0.00  0.00    +0.001 A 
ATOM     26  C   UNL     1      -0.969 -12.380  -2.411  0.00  0.00    +0.001 A 
ATOM     27  C   UNL     1      -0.739 -11.039  -2.441  0.00  0.00    +0.008 A 
ATOM     28  C   UNL     1      -0.610 -10.328  -1.236  0.00  0.00    -0.018 A 
ATOM     29  C   UNL     1      -0.377  -8.942  -1.227  0.00  0.00    +0.012 A 
ENDBRANCH  19  20
ENDBRANCH   2  19
TORSDOF 6
