REMARK  Name = ZINC25355207
REMARK  9 active torsions:
REMARK  status: ('A' for Active; 'I' for Inactive)
REMARK    1  A    between atoms: C_1  and  C_2
REMARK    2  A    between atoms: C_7  and  O_28
REMARK    3  A    between atoms: C_8  and  C_12
REMARK    4  A    between atoms: C_12  and  N_13
REMARK    5  A    between atoms: N_13  and  C_14
REMARK    6  A    between atoms: C_14  and  C_15
REMARK    7  A    between atoms: C_15  and  C_17
REMARK    8  A    between atoms: C_15  and  N_22
REMARK    9  A    between atoms: O_28  and  C_29
REMARK                            x       y       z     vdW  Elec       q    Type
REMARK                         _______ _______ _______ _____ _____    ______ ____
ROOT
ATOM      1  N   UNL     1       6.339   0.256   1.851  0.00  0.00    -0.313 NA
ATOM      2  H   UNL     1       6.460   0.643   0.928  0.00  0.00    +0.122 HD
ENDROOT
BRANCH   1   3
ATOM      3  C   UNL     1       5.631  -1.030   1.793  0.00  0.00    +0.120 C 
BRANCH   3  10
ATOM      4  C   UNL     1      -0.209   1.667   0.818  0.00  0.00    +0.052 C 
ATOM      5  C   UNL     1      -0.195   0.142   0.704  0.00  0.00    +0.175 C 
ATOM      6  C   UNL     1       0.456  -0.302  -0.628  0.00  0.00    +0.083 C 
ATOM      7  C   UNL     1       1.902  -0.504  -0.217  0.00  0.00    +0.001 A 
ATOM      8  C   UNL     1       3.062  -0.629  -0.951  0.00  0.00    +0.053 A 
ATOM      9  C   UNL     1       4.276  -0.801  -0.302  0.00  0.00    +0.125 A 
ATOM     10  C   UNL     1       4.314  -0.847   1.084  0.00  0.00    +0.011 A 
ATOM     11  C   UNL     1       3.151  -0.725   1.815  0.00  0.00    +0.054 A 
ATOM     12  C   UNL     1       1.929  -0.556   1.170  0.00  0.00    +0.125 A 
ATOM     13  O   UNL     1       0.672  -0.435   1.695  0.00  0.00    -0.488 OA
BRANCH   9  14
ATOM     14  O   UNL     1       5.424  -0.925  -1.021  0.00  0.00    -0.495 OA
ATOM     15  C   UNL     1       5.307  -0.869  -2.444  0.00  0.00    +0.277 C 
ENDBRANCH   9  14
ENDBRANCH   3  10
ENDBRANCH   1   3
BRANCH   1  16
ATOM     16  C   UNL     1       7.630   0.115   2.538  0.00  0.00    +0.073 C 
BRANCH  16  17
ATOM     17  C   UNL     1       8.385   1.444   2.482  0.00  0.00    +0.013 C 
BRANCH  17  18
ATOM     18  N   UNL     1       9.711   1.281   3.092  0.00  0.00    +0.387 N 
ATOM     19  C   UNL     1      10.396   2.578   3.125  0.00  0.00    -0.078 C 
ATOM     20  C   UNL     1      11.745   2.429   3.833  0.00  0.00    -0.019 C 
ATOM     21  C   UNL     1      12.605   1.415   3.072  0.00  0.00    -0.004 C 
ATOM     22  C   UNL     1      11.848   0.087   2.979  0.00  0.00    -0.019 C 
ATOM     23  C   UNL     1      10.496   0.323   2.303  0.00  0.00    -0.078 C 
ATOM     24  H   UNL     1       9.606   0.934   4.033  0.00  0.00    -0.081 HD
ENDBRANCH  17  18
BRANCH  17  25
ATOM     25  C   UNL     1       7.611   2.494   3.237  0.00  0.00    +0.093 A 
ATOM     26  C   UNL     1       6.810   3.427   2.690  0.00  0.00    +0.043 A 
ATOM     27  C   UNL     1       6.290   4.196   3.756  0.00  0.00    +0.041 A 
ATOM     28  C   UNL     1       6.803   3.687   4.891  0.00  0.00    +0.195 A 
ATOM     29  O   UNL     1       7.598   2.653   4.570  0.00  0.00    -0.469 OA
ENDBRANCH  17  25
ENDBRANCH  16  17
ENDBRANCH   1  16
TORSDOF 7
