REMARK  Name = ZINC12298778
REMARK  11 active torsions:
REMARK  status: ('A' for Active; 'I' for Inactive)
REMARK    1  A    between atoms: C_1  and  C_2
REMARK    2  A    between atoms: C_3  and  C_33
REMARK    3  A    between atoms: C_4  and  O_31
REMARK    4  A    between atoms: C_7  and  C_8
REMARK    5  A    between atoms: C_8  and  N_67
REMARK    6  A    between atoms: C_14  and  C_16
REMARK    7  A    between atoms: C_16  and  C_17
REMARK    8  A    between atoms: N_19  and  C_20
REMARK    9  A    between atoms: C_20  and  C_21
REMARK   10  A    between atoms: N_29  and  C_30
REMARK   11  A    between atoms: O_31  and  C_32
REMARK                            x       y       z     vdW  Elec       q    Type
REMARK                         _______ _______ _______ _____ _____    ______ ____
ROOT
ATOM      1  C   UNL     1      -1.245   3.380   0.671  0.00  0.00    -0.058 C 
ATOM      2  C   UNL     1      -1.494   1.874   0.548  0.00  0.00    +0.085 C 
ATOM      3  N   UNL     1      -0.229   1.151   0.632  0.00  0.00    -0.318 N 
ATOM      4  C   UNL     1       0.957   1.736   0.432  0.00  0.00    +0.200 C 
ATOM      5  O   UNL     1       1.958   1.053   0.485  0.00  0.00    -0.278 OA
ATOM      6  C   UNL     1       1.101   3.203   0.142  0.00  0.00    +0.028 C 
ATOM      7  H   UNL     1      -0.249   0.204   0.839  0.00  0.00    +0.149 HD
ATOM      8  N   UNL     1      -0.196   3.747  -0.301  0.00  0.00    +0.391 N 
ATOM      9  H   UNL     1      -0.432   3.347  -1.217  0.00  0.00    -0.080 HD
ENDROOT
BRANCH   8  10
ATOM     10  C   UNL     1      -0.112   5.220  -0.427  0.00  0.00    -0.042 C 
BRANCH  10  17
ATOM     11  C   UNL     1      -0.669   4.920  -3.244  0.00  0.00    +0.044 C 
ATOM     12  C   UNL     1      -1.673   5.595  -2.346  0.00  0.00    -0.043 A 
ATOM     13  C   UNL     1      -2.862   6.065  -2.870  0.00  0.00    -0.006 A 
ATOM     14  C   UNL     1      -3.784   6.691  -2.043  0.00  0.00    +0.123 A 
ATOM     15  C   UNL     1      -3.511   6.839  -0.691  0.00  0.00    +0.046 A 
ATOM     16  C   UNL     1      -2.324   6.362  -0.171  0.00  0.00    +0.005 A 
ATOM     17  C   UNL     1      -1.407   5.739  -0.997  0.00  0.00    -0.061 A 
ATOM     18  C   UNL     1      -3.155   5.902  -4.339  0.00  0.00    +0.048 C 
BRANCH  14  19
ATOM     19  O   UNL     1      -4.952   7.159  -2.558  0.00  0.00    -0.495 OA
ATOM     20  C   UNL     1      -5.853   7.793  -1.648  0.00  0.00    +0.277 C 
ENDBRANCH  14  19
ENDBRANCH  10  17
ENDBRANCH   8  10
BRANCH   6  21
ATOM     21  C   UNL     1       2.129   3.402  -0.974  0.00  0.00    +0.089 C 
BRANCH  21  22
ATOM     22  C   UNL     1       1.677   2.669  -2.210  0.00  0.00    +0.212 C 
ATOM     23  O   UNL     1       0.589   2.133  -2.233  0.00  0.00    -0.276 OA
ATOM     24  N   UNL     1       2.481   2.608  -3.290  0.00  0.00    -0.311 N 
ATOM     25  H   UNL     1       3.352   3.036  -3.271  0.00  0.00    +0.149 HD
BRANCH  24  26
ATOM     26  C   UNL     1       2.042   1.895  -4.492  0.00  0.00    +0.139 C 
BRANCH  26  27
ATOM     27  C   UNL     1       3.116   1.975  -5.545  0.00  0.00    -0.030 A 
ATOM     28  C   UNL     1       4.098   1.003  -5.609  0.00  0.00    +0.007 A 
ATOM     29  C   UNL     1       5.082   1.071  -6.572  0.00  0.00    +0.024 A 
ATOM     30  C   UNL     1       5.095   2.123  -7.488  0.00  0.00    +0.033 A 
ATOM     31  C   UNL     1       4.107   3.097  -7.413  0.00  0.00    -0.025 A 
ATOM     32  C   UNL     1       3.120   3.019  -6.453  0.00  0.00    +0.010 A 
ATOM     33  C   UNL     1       4.367   4.112  -8.508  0.00  0.00    +0.056 C 
ATOM     34  C   UNL     1       5.827   3.809  -8.917  0.00  0.00    +0.109 C 
ATOM     35  N   UNL     1       5.980   2.387  -8.541  0.00  0.00    -0.332 N 
ATOM     36  C   UNL     1       7.365   2.092  -8.151  0.00  0.00    +0.129 C 
ENDBRANCH  26  27
ENDBRANCH  24  26
ENDBRANCH  21  22
ENDBRANCH   6  21
TORSDOF 7
