REMARK  Name = ZINC48695381
REMARK  2 active torsions:
REMARK  status: ('A' for Active; 'I' for Inactive)
REMARK    1  A    between atoms: C_3  and  C_20
REMARK    2  A    between atoms: C_6  and  N_7
REMARK                            x       y       z     vdW  Elec       q    Type
REMARK                         _______ _______ _______ _____ _____    ______ ____
ROOT
ATOM      1  N   UNL     1      -1.198  -0.716   0.010  0.00  0.00    -0.269 N 
ATOM      2  C   UNL     1      -1.185  -2.059  -0.100  0.00  0.00    +0.307 C 
ATOM      3  O   UNL     1      -0.127  -2.658  -0.113  0.00  0.00    -0.252 OA
ATOM      4  N   UNL     1      -2.345  -2.739  -0.194  0.00  0.00    -0.282 N 
ATOM      5  C   UNL     1      -3.707  -2.164  -0.199  0.00  0.00    +0.113 C 
ATOM      6  C   UNL     1      -4.667  -3.385  -0.351  0.00  0.00    +0.008 C 
ATOM      7  C   UNL     1      -4.580  -4.106   1.031  0.00  0.00    +0.007 C 
ATOM      8  C   UNL     1      -3.132  -4.649   1.083  0.00  0.00    +0.023 C 
ATOM      9  C   UNL     1      -2.504  -4.217  -0.319  0.00  0.00    +0.078 C 
ATOM     10  C   UNL     1      -3.765  -4.313  -1.242  0.00  0.00    +0.027 C 
ATOM     11  H   UNL     1      -2.041  -0.245   0.098  0.00  0.00    +0.156 HD
ENDROOT
BRANCH   1  17
ATOM     12  C   UNL     1       0.128   1.158   0.750  0.00  0.00    +0.025 A 
ATOM     13  C   UNL     1       1.309   1.865   0.740  0.00  0.00    +0.022 A 
ATOM     14  C   UNL     1       2.384   1.414  -0.032  0.00  0.00    +0.070 A 
ATOM     15  C   UNL     1       2.254   0.245  -0.791  0.00  0.00    +0.060 A 
ATOM     16  C   UNL     1       1.068  -0.456  -0.774  0.00  0.00    +0.044 A 
ATOM     17  C   UNL     1       0.002  -0.004  -0.005  0.00  0.00    +0.036 A 
ATOM     18 CL   UNL     1       3.585  -0.320  -1.752  0.00  0.00    -0.082 Cl
BRANCH  14  19
ATOM     19  C   UNL     1       3.615   2.146  -0.046  0.00  0.00    +0.101 C 
ATOM     20  N   UNL     1       4.591   2.727  -0.058  0.00  0.00    -0.191 NA
ENDBRANCH  14  19
ENDBRANCH   1  17
TORSDOF 2
