REMARK  Name = ZINC66223346
REMARK  3 active torsions:
REMARK  status: ('A' for Active; 'I' for Inactive)
REMARK    1  A    between atoms: C_2  and  N_13
REMARK    2  A    between atoms: C_14  and  C_16
REMARK    3  A    between atoms: C_21  and  N_24
REMARK                            x       y       z     vdW  Elec       q    Type
REMARK                         _______ _______ _______ _____ _____    ______ ____
ROOT
ATOM      1  N   UNL     1       1.170   3.483   0.009  0.00  0.00    -0.276 N 
ATOM      2  C   UNL     1       0.001   4.147  -0.078  0.00  0.00    +0.303 C 
ATOM      3  O   UNL     1      -1.048   3.535  -0.071  0.00  0.00    -0.265 OA
ATOM      4  H   UNL     1       2.003   3.974   0.085  0.00  0.00    +0.155 HD
ENDROOT
BRANCH   1   6
ATOM      5  C   UNL     1       0.141   1.388  -0.613  0.00  0.00    +0.074 A 
ATOM      6  C   UNL     1       1.182   2.084  -0.009  0.00  0.00    +0.056 A 
ATOM      7  C   UNL     1       2.236   1.391   0.575  0.00  0.00    +0.066 A 
ATOM      8  C   UNL     1       2.251   0.008   0.558  0.00  0.00    +0.071 A 
ATOM      9  C   UNL     1       1.214  -0.685  -0.043  0.00  0.00    +0.163 A 
ATOM     10  C   UNL     1       0.160   0.005  -0.627  0.00  0.00    +0.164 A 
ATOM     11  O   UNL     1      -0.857  -0.690  -1.216  0.00  0.00    -0.488 OA
ATOM     12  C   UNL     1      -0.520  -1.399  -2.410  0.00  0.00    +0.232 C 
ATOM     13  C   UNL     1       0.070  -2.761  -2.080  0.00  0.00    +0.082 C 
ATOM     14  C   UNL     1       1.397  -2.655  -1.346  0.00  0.00    +0.232 C 
ATOM     15  O   UNL     1       1.220  -2.050  -0.064  0.00  0.00    -0.488 OA
ATOM     16 CL   UNL     1       3.535   2.263   1.328  0.00  0.00    -0.081 Cl
ENDBRANCH   1   6
BRANCH   2  17
ATOM     17  C   UNL     1      -0.005   5.637  -0.182  0.00  0.00    +0.302 C 
ATOM     18  O   UNL     1       1.043   6.249  -0.189  0.00  0.00    -0.265 OA
ATOM     19  N   UNL     1      -1.175   6.302  -0.270  0.00  0.00    -0.295 N 
ATOM     20  C   UNL     1      -2.511   5.689  -0.266  0.00  0.00    +0.106 C 
ATOM     21  C   UNL     1      -3.541   6.834  -0.357  0.00  0.00    +0.005 C 
ATOM     22  C   UNL     1      -2.744   8.060   0.164  0.00  0.00    -0.049 C 
ATOM     23  C   UNL     1      -1.325   7.764  -0.377  0.00  0.00    +0.093 C 
BRANCH  22  24
ATOM     24  N   UNL     1      -3.275   9.310  -0.395  0.00  0.00    +0.383 N 
ATOM     25  C   UNL     1      -4.672   9.523   0.062  0.00  0.00    -0.078 C 
ATOM     26  C   UNL     1      -4.872  11.050  -0.111  0.00  0.00    -0.020 C 
ATOM     27  C   UNL     1      -3.496  11.627   0.294  0.00  0.00    -0.020 C 
ATOM     28  C   UNL     1      -2.503  10.464   0.113  0.00  0.00    -0.078 C 
ATOM     29  H   UNL     1      -3.238   9.283  -1.403  0.00  0.00    -0.081 HD
ENDBRANCH  22  24
ENDBRANCH   2  17
TORSDOF 3
