REMARK  Name = ZINC04140448
REMARK  6 active torsions:
REMARK  status: ('A' for Active; 'I' for Inactive)
REMARK    1  A    between atoms: C_1  and  C_2
REMARK    2  A    between atoms: C_2  and  O_3
REMARK    3  A    between atoms: O_3  and  C_4
REMARK    4  A    between atoms: C_4  and  C_6
REMARK    5  A    between atoms: C_13  and  C_22
REMARK    6  A    between atoms: C_25  and  C_28
REMARK                            x       y       z     vdW  Elec       q    Type
REMARK                         _______ _______ _______ _____ _____    ______ ____
ROOT
ATOM      1  C   UNL     1       3.776   6.619   2.052  0.00  0.00    +0.080 A 
ATOM      2  C   UNL     1       4.904   7.440   2.086  0.00  0.00    +0.017 A 
ATOM      3  C   UNL     1       5.755   7.473   1.003  0.00  0.00    +0.001 A 
ATOM      4  C   UNL     1       5.495   6.697  -0.112  0.00  0.00    +0.006 A 
ATOM      5  C   UNL     1       4.380   5.873  -0.165  0.00  0.00    -0.019 A 
ATOM      6  C   UNL     1       3.513   5.830   0.914  0.00  0.00    +0.045 A 
ATOM      7  N   UNL     1       2.380   5.033   0.922  0.00  0.00    -0.336 N 
ATOM      8  C   UNL     1       2.516   3.867   0.050  0.00  0.00    +0.105 C 
ATOM      9  C   UNL     1       2.805   4.331  -1.379  0.00  0.00    +0.029 C 
ATOM     10  C   UNL     1       4.169   5.054  -1.404  0.00  0.00    +0.049 C 
ATOM     11  C   UNL     1       5.180   3.933  -1.478  0.00  0.00    -0.023 C 
ATOM     12  C   UNL     1       4.620   2.838  -1.928  0.00  0.00    -0.030 C 
ATOM     13  C   UNL     1       3.153   3.077  -2.228  0.00  0.00    +0.033 C 
ATOM     14  H   UNL     1       2.140   4.755   1.862  0.00  0.00    +0.147 HD
ENDROOT
BRANCH   8  15
ATOM     15  C   UNL     1       1.236   3.071   0.070  0.00  0.00    -0.027 A 
ATOM     16  C   UNL     1       1.285   1.689   0.087  0.00  0.00    +0.006 A 
ATOM     17  C   UNL     1       0.117   0.955   0.106  0.00  0.00    +0.015 A 
ATOM     18  C   UNL     1      -1.116   1.610   0.103  0.00  0.00    +0.063 A 
ATOM     19  C   UNL     1      -1.158   3.006   0.091  0.00  0.00    +0.015 A 
ATOM     20  C   UNL     1       0.018   3.727   0.072  0.00  0.00    +0.006 A 
BRANCH  18  21
ATOM     21  C   UNL     1      -2.371   0.830   0.117  0.00  0.00    +0.387 C 
ATOM     22  O   UNL     1      -2.331  -0.384   0.132  0.00  0.00    -0.241 OA
ATOM     23  O   UNL     1      -3.558   1.466   0.114  0.00  0.00    -0.241 OA
ENDBRANCH  18  21
ENDBRANCH   8  15
BRANCH   1  24
ATOM     24  C   UNL     1       2.860   6.577   3.204  0.00  0.00    +0.341 C 
ATOM     25  O   UNL     1       1.817   5.959   3.130  0.00  0.00    -0.245 OA
BRANCH  24  26
ATOM     26  O   UNL     1       3.179   7.226   4.342  0.00  0.00    -0.461 OA
BRANCH  26  28
ATOM     27  C   UNL     1       2.759   7.933   6.634  0.00  0.00    +0.048 C 
ATOM     28  C   UNL     1       2.229   7.141   5.437  0.00  0.00    +0.229 C 
ENDBRANCH  26  28
ENDBRANCH  24  26
ENDBRANCH   1  24
TORSDOF 5
