REMARK  Name = ZINC62797067
REMARK  3 active torsions:
REMARK  status: ('A' for Active; 'I' for Inactive)
REMARK    1  A    between atoms: C_1  and  C_2
REMARK    2  A    between atoms: C_6  and  C_7
REMARK    3  A    between atoms: C_9  and  C_12
REMARK                            x       y       z     vdW  Elec       q    Type
REMARK                         _______ _______ _______ _____ _____    ______ ____
ROOT
ATOM      1  C   UNL     1      -1.734   3.710  -0.374  0.00  0.00    +0.245 A 
ATOM      2  N   UNL     1      -1.265   4.476   0.568  0.00  0.00    -0.187 NA
ATOM      3  C   UNL     1      -2.264   4.878   1.377  0.00  0.00    +0.237 A 
ATOM      4  N   UNL     1      -3.388   4.358   0.943  0.00  0.00    -0.053 NA
ATOM      5  O   UNL     1      -3.058   3.594  -0.208  0.00  0.00    -0.336 OA
ENDROOT
BRANCH   3   6
ATOM      6  C   UNL     1      -2.119   5.756   2.557  0.00  0.00    +0.176 A 
ATOM      7  C   UNL     1      -3.133   6.147   3.365  0.00  0.00    +0.061 A 
ATOM      8  C   UNL     1      -2.529   7.001   4.391  0.00  0.00    +0.021 A 
ATOM      9  C   UNL     1      -3.025   7.701   5.491  0.00  0.00    +0.011 A 
ATOM     10  C   UNL     1      -2.172   8.427   6.274  0.00  0.00    +0.001 A 
ATOM     11  C   UNL     1      -0.816   8.472   5.981  0.00  0.00    +0.004 A 
ATOM     12  C   UNL     1      -0.306   7.787   4.898  0.00  0.00    +0.047 A 
ATOM     13  C   UNL     1      -1.155   7.043   4.089  0.00  0.00    +0.136 A 
ATOM     14  O   UNL     1      -0.957   6.282   2.993  0.00  0.00    -0.452 OA
ENDBRANCH   3   6
BRANCH   1  20
ATOM     15  C   UNL     1      -0.013   1.086   0.008  0.00  0.00    +0.041 C 
ATOM     16  C   UNL     1      -0.742   1.585  -1.213  0.00  0.00    -0.048 C 
ATOM     17  C   UNL     1      -1.243   0.761  -2.085  0.00  0.00    +0.034 C 
ATOM     18  C   UNL     1      -1.952   1.281  -3.272  0.00  0.00    +0.089 C 
ATOM     19  S   UNL     1      -1.854   3.052  -3.058  0.00  0.00    -0.089 S 
ATOM     20  C   UNL     1      -0.925   3.067  -1.470  0.00  0.00    +0.167 C 
ATOM     21  N   UNL     1      -2.512   0.610  -4.242  0.00  0.00    -0.293 NA
ATOM     22  H   UNL     1      -2.949   1.081  -4.968  0.00  0.00    +0.187 HD
ENDBRANCH   1  20
TORSDOF 2
