REMARK  Name = ZINC64439071
REMARK  6 active torsions:
REMARK  status: ('A' for Active; 'I' for Inactive)
REMARK    1  A    between atoms: C_1  and  C_2
REMARK    2  A    between atoms: C_7  and  C_8
REMARK    3  A    between atoms: C_14  and  C_18
REMARK    4  A    between atoms: N_20  and  C_21
REMARK    5  A    between atoms: C_21  and  C_22
REMARK    6  A    between atoms: C_22  and  C_23
REMARK                            x       y       z     vdW  Elec       q    Type
REMARK                         _______ _______ _______ _____ _____    ______ ____
ROOT
ATOM      1  C   UNL     1      -0.018   1.503   0.010  0.00  0.00    +0.044 C 
ATOM      2  C   UNL     1       0.002  -0.004   0.002  0.00  0.00    -0.046 A 
ATOM      3  C   UNL     1       0.006  -0.687  -1.199  0.00  0.00    +0.028 A 
ATOM      4  C   UNL     1       0.022  -2.076  -1.213  0.00  0.00    +0.051 A 
ATOM      5  C   UNL     1       0.059  -2.778  -0.008  0.00  0.00    +0.060 A 
ATOM      6  C   UNL     1       0.046  -2.082   1.194  0.00  0.00    +0.029 A 
ATOM      7  C   UNL     1       0.023  -0.701   1.196  0.00  0.00    -0.046 A 
ATOM      8  C   UNL     1       0.015   0.049   2.504  0.00  0.00    +0.044 C 
ATOM      9  N   UNL     1       0.132  -4.149  -0.272  0.00  0.00    -0.238 N 
ATOM     10  C   UNL     1      -0.130  -4.315  -1.713  0.00  0.00    +0.232 C 
ATOM     11  N   UNL     1       0.010  -2.978  -2.288  0.00  0.00    -0.315 N 
ATOM     12  S   UNL     1       1.109  -5.474  -2.362  0.00  0.00    -0.078 S 
ATOM     13  C   UNL     1       1.080  -6.766  -1.157  0.00  0.00    +0.078 C 
ATOM     14  C   UNL     1       0.732  -6.490   0.123  0.00  0.00    +0.087 C 
ATOM     15  C   UNL     1       0.405  -5.150   0.578  0.00  0.00    +0.247 C 
ATOM     16  O   UNL     1       0.343  -4.939   1.775  0.00  0.00    -0.270 OA
ATOM     17  H   UNL     1       0.081  -2.757  -3.229  0.00  0.00    +0.149 HD
ENDROOT
BRANCH  13  18
ATOM     18  C   UNL     1       1.436  -8.152  -1.546  0.00  0.00    +0.251 C 
ATOM     19  O   UNL     1       1.748  -8.400  -2.694  0.00  0.00    -0.270 OA
ATOM     20  N   UNL     1       1.414  -9.137  -0.627  0.00  0.00    -0.311 N 
ATOM     21  H   UNL     1       1.166  -8.940   0.290  0.00  0.00    +0.149 HD
BRANCH  20  22
ATOM     22  C   UNL     1       1.766 -10.506  -1.012  0.00  0.00    +0.109 C 
BRANCH  22  23
ATOM     23  C   UNL     1       1.662 -11.422   0.210  0.00  0.00    +0.052 C 
BRANCH  23  24
ATOM     24  C   UNL     1       2.023 -12.831  -0.186  0.00  0.00    -0.040 C 
ATOM     25  C   UNL     1       3.234 -13.422  -0.069  0.00  0.00    -0.001 A 
ATOM     26  C   UNL     1       4.527 -12.950   0.441  0.00  0.00    +0.010 A 
ATOM     27  C   UNL     1       5.584 -13.793   0.429  0.00  0.00    +0.001 A 
ATOM     28  C   UNL     1       5.477 -15.103  -0.058  0.00  0.00    +0.002 A 
ATOM     29  C   UNL     1       4.323 -15.609  -0.543  0.00  0.00    +0.026 A 
ATOM     30  C   UNL     1       3.147 -14.810  -0.577  0.00  0.00    +0.043 A 
ATOM     31  N   UNL     1       1.930 -15.066  -0.992  0.00  0.00    -0.380 N 
ATOM     32  C   UNL     1       1.105 -13.870  -0.788  0.00  0.00    +0.144 C 
ATOM     33  H   UNL     1       1.625 -15.907  -1.367  0.00  0.00    +0.160 HD
ENDBRANCH  23  24
ENDBRANCH  22  23
ENDBRANCH  20  22
ENDBRANCH  13  18
TORSDOF 4
