REMARK  Name = ZINC37935899
REMARK  3 active torsions:
REMARK  status: ('A' for Active; 'I' for Inactive)
REMARK    1  A    between atoms: C_7  and  C_11
REMARK    2  A    between atoms: C_7  and  N_13
REMARK    3  A    between atoms: N_13  and  C_14
REMARK                            x       y       z     vdW  Elec       q    Type
REMARK                         _______ _______ _______ _____ _____    ______ ____
ROOT
ATOM      1  C   UNL     1       0.272   1.419   0.213  0.00  0.00    +0.001 A 
ATOM      2  C   UNL     1       1.510   2.036   0.215  0.00  0.00    +0.004 A 
ATOM      3  C   UNL     1       2.659   1.276   0.143  0.00  0.00    +0.046 A 
ATOM      4  C   UNL     1       2.577  -0.112   0.068  0.00  0.00    +0.127 A 
ATOM      5  C   UNL     1       1.337  -0.726   0.063  0.00  0.00    +0.032 A 
ATOM      6  C   UNL     1       0.187   0.042   0.137  0.00  0.00    +0.010 A 
ATOM      7  C   UNL     1       1.204  -2.225  -0.029  0.00  0.00    +0.151 C 
ATOM      8  C   UNL     1       2.536  -2.885   0.336  0.00  0.00    +0.087 C 
ATOM      9  C   UNL     1       3.653  -2.180  -0.444  0.00  0.00    +0.232 C 
ATOM     10  O   UNL     1       3.731  -0.826   0.004  0.00  0.00    -0.491 OA
ENDROOT
BRANCH   7  11
ATOM     11  C   UNL     1       0.832  -2.600  -1.403  0.00  0.00    +0.093 C 
ATOM     12  N   UNL     1       0.545  -2.890  -2.463  0.00  0.00    -0.194 NA
ENDBRANCH   7  11
BRANCH   7  13
ATOM     13  N   UNL     1       0.164  -2.679   0.898  0.00  0.00    -0.323 N 
ATOM     14  H   UNL     1      -0.619  -3.141   0.560  0.00  0.00    +0.148 HD
BRANCH  13  15
ATOM     15  C   UNL     1       0.301  -2.448   2.270  0.00  0.00    +0.029 A 
ATOM     16  C   UNL     1       1.347  -1.666   2.742  0.00  0.00    +0.026 A 
ATOM     17  C   UNL     1       1.480  -1.438   4.098  0.00  0.00    +0.040 A 
ATOM     18  C   UNL     1       0.572  -1.990   4.986  0.00  0.00    +0.124 A 
ATOM     19  C   UNL     1      -0.471  -2.770   4.518  0.00  0.00    +0.040 A 
ATOM     20  C   UNL     1      -0.611  -2.996   3.162  0.00  0.00    +0.026 A 
ATOM     21  F   UNL     1       0.705  -1.766   6.312  0.00  0.00    -0.205 F 
ENDBRANCH  13  15
ENDBRANCH   7  13
TORSDOF 3
