REMARK  Name = ZINC63350276
REMARK  7 active torsions:
REMARK  status: ('A' for Active; 'I' for Inactive)
REMARK    1  A    between atoms: C_1  and  C_2
REMARK    2  A    between atoms: C_2  and  N_3
REMARK    3  A    between atoms: C_19  and  C_24
REMARK    4  A    between atoms: C_27  and  O_32
REMARK    5  A    between atoms: C_29  and  O_30
REMARK    6  A    between atoms: O_30  and  C_31
REMARK    7  A    between atoms: O_32  and  C_33
REMARK                            x       y       z     vdW  Elec       q    Type
REMARK                         _______ _______ _______ _____ _____    ______ ____
ROOT
ATOM      1  N   UNL     1       0.580  -0.428  -1.422  0.00  0.00    -0.252 N 
ATOM      2  C   UNL     1       0.046  -0.652  -2.641  0.00  0.00    +0.242 C 
ATOM      3  O   UNL     1      -1.105  -0.474  -2.980  0.00  0.00    -0.273 OA
ATOM      4  C   UNL     1       1.181  -1.173  -3.495  0.00  0.00    +0.166 C 
ATOM      5  C   UNL     1       1.388  -0.252  -4.710  0.00  0.00    +0.065 C 
ATOM      6  C   UNL     1       2.818  -0.450  -5.155  0.00  0.00    -0.034 C 
ATOM      7  C   UNL     1       3.318  -0.779  -6.342  0.00  0.00    -0.001 A 
ATOM      8  C   UNL     1       2.679  -0.970  -7.653  0.00  0.00    +0.010 A 
ATOM      9  C   UNL     1       3.501  -1.330  -8.674  0.00  0.00    +0.001 A 
ATOM     10  C   UNL     1       4.879  -1.516  -8.523  0.00  0.00    +0.002 A 
ATOM     11  C   UNL     1       5.551  -1.355  -7.355  0.00  0.00    +0.026 A 
ATOM     12  C   UNL     1       4.795  -0.970  -6.210  0.00  0.00    +0.043 A 
ATOM     13  N   UNL     1       5.176  -0.731  -4.991  0.00  0.00    -0.375 N 
ATOM     14  C   UNL     1       4.009  -0.309  -4.215  0.00  0.00    +0.131 C 
ATOM     15  C   UNL     1       3.752  -1.247  -3.026  0.00  0.00    +0.136 C 
ATOM     16  N   UNL     1       2.354  -1.060  -2.604  0.00  0.00    -0.291 N 
ATOM     17  C   UNL     1       1.895  -0.688  -1.403  0.00  0.00    +0.143 C 
ATOM     18  S   UNL     1       2.873  -0.562  -0.004  0.00  0.00    -0.018 S 
ATOM     19  H   UNL     1       6.081  -0.818  -4.652  0.00  0.00    +0.160 HD
ENDROOT
BRANCH  15  20
ATOM     20  C   UNL     1       3.958  -2.680  -3.447  0.00  0.00    +0.017 A 
ATOM     21  C   UNL     1       3.067  -3.278  -4.318  0.00  0.00    +0.013 A 
ATOM     22  C   UNL     1       3.253  -4.591  -4.706  0.00  0.00    +0.046 A 
ATOM     23  C   UNL     1       4.335  -5.312  -4.221  0.00  0.00    +0.124 A 
ATOM     24  C   UNL     1       5.229  -4.715  -3.347  0.00  0.00    +0.091 A 
ATOM     25  C   UNL     1       5.044  -3.395  -2.964  0.00  0.00    +0.129 A 
BRANCH  25  26
ATOM     26  O   UNL     1       5.923  -2.804  -2.112  0.00  0.00    -0.495 OA
ATOM     27  C   UNL     1       7.018  -3.600  -1.655  0.00  0.00    +0.277 C 
ENDBRANCH  25  26
BRANCH  23  28
ATOM     28  O   UNL     1       4.516  -6.604  -4.602  0.00  0.00    -0.495 OA
ATOM     29  C   UNL     1       3.555  -7.156  -5.504  0.00  0.00    +0.277 C 
ENDBRANCH  23  28
ENDBRANCH  15  20
BRANCH   1  31
ATOM     30  C   UNL     1      -0.171   1.578  -0.241  0.00  0.00    +0.025 C 
ATOM     31  C   UNL     1      -0.182   0.048  -0.265  0.00  0.00    +0.112 C 
ENDBRANCH   1  31
TORSDOF 4
