REMARK  Name = ZINC43176935
REMARK  2 active torsions:
REMARK  status: ('A' for Active; 'I' for Inactive)
REMARK    1  A    between atoms: C_1  and  C_2
REMARK    2  A    between atoms: N_11  and  C_12
REMARK                            x       y       z     vdW  Elec       q    Type
REMARK                         _______ _______ _______ _____ _____    ______ ____
ROOT
ATOM      1  C   UNL     1      -1.263   0.717   0.966  0.00  0.00    +0.039 C 
ATOM      2  C   UNL     1      -0.714  -0.690   0.724  0.00  0.00    +0.133 C 
ATOM      3  C   UNL     1      -0.281  -0.826  -0.741  0.00  0.00    +0.140 C 
ATOM      4  N   UNL     1       0.412  -2.114  -0.902  0.00  0.00    -0.281 N 
ATOM      5  C   UNL     1       1.495  -2.440   0.039  0.00  0.00    +0.137 C 
ATOM      6  C   UNL     1       0.976  -2.225   1.466  0.00  0.00    +0.179 C 
ATOM      7  O   UNL     1       0.415  -0.914   1.572  0.00  0.00    -0.374 OA
ATOM      8  C   UNL     1       0.065  -2.970  -1.884  0.00  0.00    +0.307 C 
ATOM      9  O   UNL     1      -0.894  -2.727  -2.591  0.00  0.00    -0.252 OA
ATOM     10  N   UNL     1       0.780  -4.096  -2.080  0.00  0.00    -0.269 N 
ATOM     11  H   UNL     1       1.496  -4.328  -1.469  0.00  0.00    +0.156 HD
ENDROOT
BRANCH  10  12
ATOM     12  C   UNL     1       0.489  -4.928  -3.167  0.00  0.00    +0.038 A 
ATOM     13  C   UNL     1       0.038  -4.382  -4.361  0.00  0.00    +0.043 A 
ATOM     14  C   UNL     1      -0.249  -5.207  -5.432  0.00  0.00    +0.044 A 
ATOM     15  C   UNL     1      -0.086  -6.576  -5.316  0.00  0.00    +0.040 A 
ATOM     16  C   UNL     1       0.363  -7.123  -4.126  0.00  0.00    +0.044 A 
ATOM     17  C   UNL     1       0.657  -6.302  -3.054  0.00  0.00    +0.043 A 
ATOM     18 CL   UNL     1       0.565  -8.842  -3.984  0.00  0.00    -0.083 Cl
ATOM     19 CL   UNL     1      -0.813  -4.525  -6.925  0.00  0.00    -0.083 Cl
ENDBRANCH  10  12
TORSDOF 1
