REMARK  Name = ZINC26463937
REMARK  4 active torsions:
REMARK  status: ('A' for Active; 'I' for Inactive)
REMARK    1  A    between atoms: C_1  and  C_2
REMARK    2  A    between atoms: C_4  and  C_22
REMARK    3  A    between atoms: N_15  and  C_18
REMARK    4  A    between atoms: C_18  and  C_19
REMARK                            x       y       z     vdW  Elec       q    Type
REMARK                         _______ _______ _______ _____ _____    ______ ____
ROOT
ATOM      1  C   UNL     1       3.099   0.235   1.061  0.00  0.00    +0.040 C 
ATOM      2  C   UNL     1       2.423   0.661  -0.244  0.00  0.00    +0.148 C 
ATOM      3  C   UNL     1       1.437   1.825   0.006  0.00  0.00    +0.148 C 
ATOM      4  O   UNL     1       0.146   1.200   0.138  0.00  0.00    -0.332 OA
ATOM      5  C   UNL     1       0.351  -0.208   0.001  0.00  0.00    +0.279 C 
ATOM      6  O   UNL     1       1.563  -0.393  -0.745  0.00  0.00    -0.332 OA
ATOM      7  C   UNL     1      -0.812  -0.870  -0.686  0.00  0.00    +0.042 A 
ATOM      8  C   UNL     1      -1.401  -0.703  -1.919  0.00  0.00    +0.012 A 
ATOM      9  C   UNL     1      -2.486  -1.482  -2.280  0.00  0.00    +0.020 A 
ATOM     10  C   UNL     1      -2.977  -2.430  -1.399  0.00  0.00    +0.043 A 
ATOM     11  C   UNL     1      -2.390  -2.599  -0.160  0.00  0.00    +0.044 A 
ATOM     12  C   UNL     1      -1.298  -1.817   0.210  0.00  0.00    +0.048 A 
ATOM     13  N   UNL     1      -0.546  -1.799   1.387  0.00  0.00    -0.253 N 
ATOM     14  C   UNL     1       0.439  -0.882   1.346  0.00  0.00    +0.286 C 
ATOM     15  O   UNL     1       1.242  -0.644   2.223  0.00  0.00    -0.269 OA
ATOM     16 CL   UNL     1      -4.336  -3.409  -1.851  0.00  0.00    -0.083 Cl
ATOM     17  C   UNL     1       1.804   2.564   1.295  0.00  0.00    +0.040 C 
ENDROOT
BRANCH  13  18
ATOM     18  C   UNL     1      -0.800  -2.675   2.532  0.00  0.00    +0.232 C 
BRANCH  18  19
ATOM     19  C   UNL     1      -1.745  -2.021   3.451  0.00  0.00    +0.082 C 
ATOM     20  N   UNL     1      -2.475  -1.515   4.161  0.00  0.00    -0.195 NA
ENDBRANCH  18  19
ENDBRANCH  13  18
TORSDOF 2
