REMARK  Name = ZINC26274372
REMARK  4 active torsions:
REMARK  status: ('A' for Active; 'I' for Inactive)
REMARK    1  A    between atoms: C_6  and  C_7
REMARK    2  A    between atoms: C_10  and  C_12
REMARK    3  A    between atoms: C_17  and  C_22
REMARK    4  A    between atoms: C_18  and  C_20
REMARK                            x       y       z     vdW  Elec       q    Type
REMARK                         _______ _______ _______ _____ _____    ______ ____
ROOT
ATOM      1  C   UNL     1       2.945  -2.070  -0.038  0.00  0.00    +0.257 C 
ATOM      2  O   UNL     1       3.784  -1.187  -0.041  0.00  0.00    -0.269 OA
ATOM      3  N   UNL     1       1.635  -1.754  -0.024  0.00  0.00    -0.250 N 
ATOM      4  C   UNL     1       1.244  -0.428  -0.012  0.00  0.00    +0.224 A 
ATOM      5  N   UNL     1       2.086   0.639  -0.014  0.00  0.00    -0.201 NA
ATOM      6  C   UNL     1       1.305   1.777  -0.001  0.00  0.00    +0.179 A 
ATOM      7  C   UNL     1      -0.016   1.340   0.009  0.00  0.00    +0.179 A 
ATOM      8  N   UNL     1       0.002  -0.004   0.002  0.00  0.00    -0.201 NA
ATOM      9  H   UNL     1       0.877  -2.551  -0.021  0.00  0.00    +0.158 HD
ENDROOT
BRANCH   1  13
ATOM     10  C   UNL     1       3.654  -6.157  -0.069  0.00  0.00    +0.020 A 
ATOM     11  C   UNL     1       4.790  -5.362  -0.075  0.00  0.00    +0.017 A 
ATOM     12  C   UNL     1       4.642  -4.004  -0.072  0.00  0.00    +0.021 A 
ATOM     13  C   UNL     1       3.360  -3.474  -0.051  0.00  0.00    +0.075 A 
ATOM     14  S   UNL     1       2.345  -4.943  -0.050  0.00  0.00    -0.084 S 
BRANCH  10  20
ATOM     15  C   UNL     1       4.709  -8.413  -0.098  0.00  0.00    +0.010 A 
ATOM     16  C   UNL     1       4.607  -9.789  -0.100  0.00  0.00    +0.020 A 
ATOM     17  C   UNL     1       3.362 -10.394  -0.092  0.00  0.00    +0.041 A 
ATOM     18  C   UNL     1       2.211  -9.623  -0.077  0.00  0.00    +0.020 A 
ATOM     19  C   UNL     1       2.300  -8.247  -0.070  0.00  0.00    +0.010 A 
ATOM     20  C   UNL     1       3.553  -7.631  -0.077  0.00  0.00    -0.011 A 
ATOM     21 CL   UNL     1       3.243 -12.126  -0.102  0.00  0.00    -0.084 Cl
ENDBRANCH  10  20
ENDBRANCH   1  13
BRANCH   7  22
ATOM     22  C   UNL     1      -1.182   2.171   0.020  0.00  0.00    +0.122 C 
ATOM     23  N   UNL     1      -2.107   2.831   0.028  0.00  0.00    -0.189 NA
ENDBRANCH   7  22
BRANCH   6  24
ATOM     24  C   UNL     1       1.762   3.134   0.001  0.00  0.00    +0.122 C 
ATOM     25  N   UNL     1       2.125   4.210   0.003  0.00  0.00    -0.189 NA
ENDBRANCH   6  24
TORSDOF 4
