REMARK  Name = ZINC17149018
REMARK  6 active torsions:
REMARK  status: ('A' for Active; 'I' for Inactive)
REMARK    1  A    between atoms: C_1  and  N_2
REMARK    2  A    between atoms: C_4  and  C_21
REMARK    3  A    between atoms: N_9  and  C_14
REMARK    4  A    between atoms: N_23  and  C_24
REMARK    5  A    between atoms: C_24  and  C_25
REMARK    6  A    between atoms: C_25  and  C_26
REMARK                            x       y       z     vdW  Elec       q    Type
REMARK                         _______ _______ _______ _____ _____    ______ ____
ROOT
ATOM      1  C   UNL     1      -0.894  -0.718  -1.509  0.00  0.00    +0.149 C 
ATOM      2  N   UNL     1       0.175   0.086  -0.912  0.00  0.00    -0.344 N 
ATOM      3  C   UNL     1       0.113   1.407  -0.672  0.00  0.00    +0.101 A 
ATOM      4  C   UNL     1       1.304   1.816  -0.103  0.00  0.00    +0.078 A 
ATOM      5  C   UNL     1       2.130   0.671   0.005  0.00  0.00    +0.086 A 
ATOM      6  C   UNL     1       1.404  -0.395  -0.506  0.00  0.00    +0.132 A 
ATOM      7  C   UNL     1       2.001  -1.678  -0.520  0.00  0.00    +0.285 A 
ATOM      8  O   UNL     1       1.391  -2.635  -0.962  0.00  0.00    -0.265 OA
ATOM      9  N   UNL     1       3.251  -1.830  -0.040  0.00  0.00    -0.227 N 
ATOM     10  C   UNL     1       3.939  -0.785   0.452  0.00  0.00    +0.334 A 
ATOM     11  O   UNL     1       5.064  -0.961   0.877  0.00  0.00    -0.246 OA
ATOM     12  N   UNL     1       3.409   0.453   0.484  0.00  0.00    -0.305 N 
ATOM     13  H   UNL     1       3.924   1.192   0.843  0.00  0.00    +0.170 HD
ENDROOT
BRANCH   9  14
ATOM     14  C   UNL     1       3.844  -3.100  -0.052  0.00  0.00    +0.055 A 
ATOM     15  C   UNL     1       4.583  -3.511  -1.154  0.00  0.00    +0.028 A 
ATOM     16  C   UNL     1       5.170  -4.761  -1.162  0.00  0.00    +0.022 A 
ATOM     17  C   UNL     1       5.014  -5.608  -0.078  0.00  0.00    +0.041 A 
ATOM     18  C   UNL     1       4.274  -5.202   1.018  0.00  0.00    +0.022 A 
ATOM     19  C   UNL     1       3.689  -3.951   1.034  0.00  0.00    +0.028 A 
ATOM     20 CL   UNL     1       5.747  -7.181  -0.095  0.00  0.00    -0.084 Cl
ENDBRANCH   9  14
BRANCH   4  21
ATOM     21  C   UNL     1       1.649   3.185   0.313  0.00  0.00    +0.248 C 
ATOM     22  O   UNL     1       2.738   3.416   0.804  0.00  0.00    -0.270 OA
ATOM     23  N   UNL     1       0.759   4.184   0.150  0.00  0.00    -0.311 N 
ATOM     24  H   UNL     1      -0.110   4.000  -0.242  0.00  0.00    +0.149 HD
BRANCH  23  25
ATOM     25  C   UNL     1       1.102   5.547   0.564  0.00  0.00    +0.109 C 
BRANCH  25  26
ATOM     26  C   UNL     1      -0.074   6.480   0.271  0.00  0.00    +0.054 C 
BRANCH  26  27
ATOM     27  C   UNL     1       0.280   7.882   0.697  0.00  0.00    -0.046 A 
ATOM     28  C   UNL     1      -0.008   8.308   1.980  0.00  0.00    +0.004 A 
ATOM     29  C   UNL     1       0.321   9.592   2.372  0.00  0.00    +0.000 A 
ATOM     30  C   UNL     1       0.928  10.454   1.478  0.00  0.00    +0.000 A 
ATOM     31  C   UNL     1       1.211  10.030   0.193  0.00  0.00    +0.000 A 
ATOM     32  C   UNL     1       0.887   8.744  -0.198  0.00  0.00    +0.004 A 
ENDBRANCH  26  27
ENDBRANCH  25  26
ENDBRANCH  23  25
ENDBRANCH   4  21
TORSDOF 5
