REMARK  Name = ZINC11865339
REMARK  4 active torsions:
REMARK  status: ('A' for Active; 'I' for Inactive)
REMARK    1  A    between atoms: C_1  and  C_2
REMARK    2  A    between atoms: N_5  and  C_11
REMARK    3  A    between atoms: C_7  and  C_10
REMARK    4  A    between atoms: C_18  and  O_22
REMARK                            x       y       z     vdW  Elec       q    Type
REMARK                         _______ _______ _______ _____ _____    ______ ____
ROOT
ATOM      1  C   UNL     1      -1.054   0.705   2.216  0.00  0.00    +0.121 C 
ATOM      2  C   UNL     1      -0.841  -0.627   2.070  0.00  0.00    +0.189 C 
ATOM      3  C   UNL     1      -1.233  -1.635   2.988  0.00  0.00    +0.233 C 
ATOM      4  O   UNL     1      -1.817  -1.484   4.049  0.00  0.00    -0.283 OA
ATOM      5  C   UNL     1      -0.786  -2.903   2.385  0.00  0.00    +0.068 A 
ATOM      6  C   UNL     1      -0.869  -4.237   2.783  0.00  0.00    +0.019 A 
ATOM      7  C   UNL     1      -0.340  -5.217   1.991  0.00  0.00    +0.046 A 
ATOM      8  C   UNL     1       0.281  -4.888   0.789  0.00  0.00    +0.120 A 
ATOM      9  C   UNL     1       0.371  -3.567   0.381  0.00  0.00    +0.092 A 
ATOM     10  C   UNL     1      -0.162  -2.560   1.175  0.00  0.00    +0.143 A 
ATOM     11  O   UNL     1      -0.213  -1.219   1.024  0.00  0.00    -0.450 OA
ENDROOT
BRANCH   1  15
ATOM     12  C   UNL     1      -0.789   1.358  -2.594  0.00  0.00    +0.039 C 
ATOM     13  C   UNL     1      -1.286   1.725  -1.194  0.00  0.00    +0.133 C 
ATOM     14  C   UNL     1      -0.403   1.044  -0.143  0.00  0.00    +0.136 C 
ATOM     15  N   UNL     1      -0.780   1.558   1.184  0.00  0.00    -0.328 N 
ATOM     16  C   UNL     1      -0.854   3.016   1.366  0.00  0.00    +0.136 C 
ATOM     17  C   UNL     1      -1.716   3.601   0.240  0.00  0.00    +0.133 C 
ATOM     18  O   UNL     1      -1.219   3.143  -1.019  0.00  0.00    -0.371 OA
ATOM     19  C   UNL     1      -3.165   3.142   0.416  0.00  0.00    +0.039 C 
ENDBRANCH   1  15
BRANCH   8  20
ATOM     20  O   UNL     1       0.803  -5.870   0.010  0.00  0.00    -0.507 OA
ATOM     21  H   UNL     1       1.727  -6.077   0.205  0.00  0.00    +0.292 HD
ENDBRANCH   8  20
TORSDOF 2
