REMARK  Name = ZINC34912375
REMARK  5 active torsions:
REMARK  status: ('A' for Active; 'I' for Inactive)
REMARK    1  A    between atoms: C_4  and  C_7
REMARK    2  A    between atoms: C_7  and  C_8
REMARK    3  A    between atoms: C_14  and  C_16
REMARK    4  A    between atoms: N_19  and  C_22
REMARK    5  A    between atoms: C_28  and  C_30
REMARK                            x       y       z     vdW  Elec       q    Type
REMARK                         _______ _______ _______ _____ _____    ______ ____
ROOT
ATOM      1  C   UNL     1       6.583  -4.354   3.853  0.00  0.00    +0.072 C 
ATOM      2  C   UNL     1       7.023  -4.527   2.396  0.00  0.00    -0.006 C 
ATOM      3  C   UNL     1       8.431  -5.125   2.362  0.00  0.00    -0.078 C 
ATOM      4  N   UNL     1       8.429  -6.431   3.032  0.00  0.00    +0.382 N 
ATOM      5  C   UNL     1       8.078  -6.264   4.447  0.00  0.00    -0.078 C 
ATOM      6  C   UNL     1       6.656  -5.710   4.561  0.00  0.00    -0.006 C 
ATOM      7  H   UNL     1       7.753  -7.034   2.587  0.00  0.00    -0.081 HD
ENDROOT
BRANCH   1  14
ATOM      8  C   UNL     1       4.449   0.191   3.559  0.00  0.00    -0.004 C 
ATOM      9  C   UNL     1       5.858  -0.381   3.737  0.00  0.00    +0.023 C 
ATOM     10  C   UNL     1       5.963  -1.710   2.984  0.00  0.00    +0.108 C 
ATOM     11  N   UNL     1       4.888  -2.600   3.443  0.00  0.00    -0.301 N 
ATOM     12  C   UNL     1       3.502  -2.114   3.400  0.00  0.00    +0.108 C 
ATOM     13  C   UNL     1       3.424  -0.780   4.149  0.00  0.00    +0.023 C 
ATOM     14  C   UNL     1       5.168  -3.839   3.894  0.00  0.00    +0.219 C 
ATOM     15  O   UNL     1       4.280  -4.540   4.333  0.00  0.00    -0.275 OA
BRANCH   8  16
ATOM     16  C   UNL     1       4.351   1.536   4.282  0.00  0.00    +0.038 C 
BRANCH  16  20
ATOM     17  C   UNL     1       6.963   4.353   2.413  0.00  0.00    +0.000 A 
ATOM     18  C   UNL     1       5.657   4.228   1.978  0.00  0.00    +0.000 A 
ATOM     19  C   UNL     1       4.811   3.316   2.583  0.00  0.00    +0.003 A 
ATOM     20  C   UNL     1       5.272   2.530   3.622  0.00  0.00    -0.047 A 
ATOM     21  C   UNL     1       6.579   2.655   4.056  0.00  0.00    +0.003 A 
ATOM     22  C   UNL     1       7.424   3.567   3.453  0.00  0.00    +0.000 A 
ENDBRANCH  16  20
ENDBRANCH   8  16
ENDBRANCH   1  14
BRANCH   4  23
ATOM     23  C   UNL     1       9.764  -7.035   2.928  0.00  0.00    -0.066 C 
ATOM     24  C   UNL     1      10.128  -7.217   1.453  0.00  0.00    +0.004 C 
ATOM     25  C   UNL     1      11.535  -7.815   1.348  0.00  0.00    +0.106 C 
ATOM     26  N   UNL     1      11.582  -9.053   2.138  0.00  0.00    -0.295 N 
ATOM     27  C   UNL     1      11.165  -9.009   3.546  0.00  0.00    +0.106 C 
ATOM     28  C   UNL     1       9.763  -8.397   3.626  0.00  0.00    +0.004 C 
ATOM     29  C   UNL     1      11.999 -10.207   1.582  0.00  0.00    +0.282 C 
ATOM     30  O   UNL     1      12.411 -10.217   0.436  0.00  0.00    -0.267 OA
BRANCH  29  31
ATOM     31  C   UNL     1      11.957 -11.452   2.356  0.00  0.00    +0.189 A 
ATOM     32  C   UNL     1      12.223 -12.704   1.879  0.00  0.00    +0.054 A 
ATOM     33  C   UNL     1      12.065 -13.589   2.956  0.00  0.00    +0.042 A 
ATOM     34  C   UNL     1      11.714 -12.848   4.031  0.00  0.00    +0.196 A 
ATOM     35  O   UNL     1      11.655 -11.561   3.666  0.00  0.00    -0.458 OA
ENDBRANCH  29  31
ENDBRANCH   4  23
TORSDOF 5
