REMARK  Name = ZINC36623855
REMARK  7 active torsions:
REMARK  status: ('A' for Active; 'I' for Inactive)
REMARK    1  A    between atoms: C_1  and  C_2
REMARK    2  A    between atoms: C_2  and  C_3
REMARK    3  A    between atoms: C_2  and  C_4
REMARK    4  A    between atoms: C_4  and  C_5
REMARK    5  A    between atoms: C_5  and  C_7
REMARK    6  A    between atoms: C_5  and  N_24
REMARK    7  A    between atoms: C_12  and  C_15
REMARK                            x       y       z     vdW  Elec       q    Type
REMARK                         _______ _______ _______ _____ _____    ______ ____
ROOT
ATOM      1  C   UNL     1      -3.387  -1.862  -0.447  0.00  0.00    +0.237 C 
ATOM      2  O   UNL     1      -4.124  -2.552   0.225  0.00  0.00    -0.274 OA
ATOM      3  N   UNL     1      -3.854  -1.261  -1.559  0.00  0.00    -0.300 N 
ATOM      4  C   UNL     1      -2.953  -0.493  -2.429  0.00  0.00    +0.108 C 
ATOM      5  C   UNL     1      -3.537   0.909  -2.628  0.00  0.00    +0.032 C 
ATOM      6  C   UNL     1      -4.969   0.791  -3.154  0.00  0.00    +0.078 C 
ATOM      7  C   UNL     1      -5.831   0.050  -2.129  0.00  0.00    +0.032 C 
ATOM      8  C   UNL     1      -5.272  -1.366  -1.927  0.00  0.00    +0.108 C 
ENDROOT
BRANCH   6   9
ATOM      9  C   UNL     1      -5.535   2.169  -3.384  0.00  0.00    +0.200 A 
ATOM     10  N   UNL     1      -5.669   3.079  -2.466  0.00  0.00    -0.213 NA
ATOM     11  C   UNL     1      -6.210   4.193  -3.029  0.00  0.00    +0.110 A 
ATOM     12  C   UNL     1      -6.568   5.449  -2.535  0.00  0.00    +0.031 A 
ATOM     13  C   UNL     1      -7.108   6.388  -3.385  0.00  0.00    +0.002 A 
ATOM     14  C   UNL     1      -7.299   6.094  -4.727  0.00  0.00    +0.004 A 
ATOM     15  C   UNL     1      -6.950   4.857  -5.229  0.00  0.00    +0.048 A 
ATOM     16  C   UNL     1      -6.404   3.900  -4.387  0.00  0.00    +0.155 A 
ATOM     17  O   UNL     1      -5.967   2.634  -4.566  0.00  0.00    -0.439 OA
ENDBRANCH   6   9
BRANCH   1  18
ATOM     18  C   UNL     1      -1.948  -1.677  -0.038  0.00  0.00    +0.170 C 
BRANCH  18  19
ATOM     19  N   UNL     1      -1.627  -2.604   1.050  0.00  0.00    -0.230 N 
ATOM     20  C   UNL     1      -0.693  -3.569   0.941  0.00  0.00    +0.227 C 
ATOM     21  O   UNL     1       0.127  -3.680   0.055  0.00  0.00    -0.275 OA
ATOM     22  C   UNL     1      -0.859  -4.503   2.151  0.00  0.00    +0.091 C 
ATOM     23  C   UNL     1      -1.885  -5.546   1.702  0.00  0.00    +0.040 C 
ATOM     24  C   UNL     1      -2.783  -6.002   2.800  0.00  0.00    -0.030 C 
ATOM     25  C   UNL     1      -2.960  -5.378   3.917  0.00  0.00    -0.030 C 
ATOM     26  C   UNL     1      -2.235  -4.120   4.278  0.00  0.00    +0.040 C 
ATOM     27  C   UNL     1      -1.469  -3.501   3.146  0.00  0.00    +0.091 C 
ATOM     28  C   UNL     1      -2.236  -2.567   2.256  0.00  0.00    +0.227 C 
ATOM     29  O   UNL     1      -3.210  -1.911   2.558  0.00  0.00    -0.275 OA
ENDBRANCH  18  19
BRANCH  18  30
ATOM     30  C   UNL     1      -1.734  -0.239   0.439  0.00  0.00    +0.035 C 
BRANCH  30  32
ATOM     31  C   UNL     1      -0.005   1.480   0.982  0.00  0.00    +0.007 C 
ATOM     32  C   UNL     1      -0.244  -0.003   0.696  0.00  0.00    -0.015 C 
ATOM     33  C   UNL     1       0.203  -0.834   1.901  0.00  0.00    +0.007 C 
ENDBRANCH  30  32
ENDBRANCH  18  30
ENDBRANCH   1  18
TORSDOF 5
