REMARK  Name = ZINC66606092
REMARK  3 active torsions:
REMARK  status: ('A' for Active; 'I' for Inactive)
REMARK    1  A    between atoms: C_1  and  C_2
REMARK    2  A    between atoms: C_2  and  C_3
REMARK    3  A    between atoms: C_16  and  C_18
REMARK                            x       y       z     vdW  Elec       q    Type
REMARK                         _______ _______ _______ _____ _____    ______ ____
ROOT
ATOM      1  C   UNL     1       0.742  -0.511   1.242  0.00  0.00    -0.006 C 
ATOM      2  C   UNL     1       0.664  -2.039   1.297  0.00  0.00    +0.008 C 
ATOM      3  C   UNL     1       1.179  -2.536   2.648  0.00  0.00    +0.037 C 
ATOM      4  C   UNL     1       2.562  -1.943   2.899  0.00  0.00    -0.023 A 
ATOM      5  C   UNL     1       2.978  -0.853   2.211  0.00  0.00    -0.004 A 
ATOM      6  S   UNL     1       4.614  -0.519   2.814  0.00  0.00    -0.073 S 
ATOM      7  C   UNL     1       4.737  -1.835   3.983  0.00  0.00    +0.116 A 
ATOM      8  C   UNL     1       3.493  -2.497   3.865  0.00  0.00    +0.075 A 
ATOM      9  C   UNL     1       3.276  -3.640   4.706  0.00  0.00    +0.260 A 
ATOM     10  O   UNL     1       2.237  -4.277   4.678  0.00  0.00    -0.267 OA
ATOM     11  N   UNL     1       4.298  -3.968   5.531  0.00  0.00    -0.306 N 
ATOM     12  H   UNL     1       4.194  -4.735   6.116  0.00  0.00    +0.170 HD
ATOM     13  C   UNL     1       5.469  -3.269   5.576  0.00  0.00    +0.144 A 
ATOM     14  N   UNL     1       5.700  -2.209   4.814  0.00  0.00    -0.222 NA
ATOM     15  C   UNL     1       2.217  -0.093   1.167  0.00  0.00    +0.046 C 
ENDROOT
BRANCH  13  16
ATOM     16  C   UNL     1       6.521  -3.710   6.513  0.00  0.00    +0.036 A 
ATOM     17  C   UNL     1       7.737  -3.016   6.596  0.00  0.00    +0.016 A 
ATOM     18  C   UNL     1       8.690  -3.466   7.487  0.00  0.00    +0.047 A 
ATOM     19  C   UNL     1       8.416  -4.585   8.268  0.00  0.00    +0.139 A 
ATOM     20  N   UNL     1       7.258  -5.219   8.166  0.00  0.00    -0.237 NA
ATOM     21  C   UNL     1       6.319  -4.820   7.334  0.00  0.00    +0.124 A 
ATOM     22  N   UNL     1       9.376  -5.045   9.171  0.00  0.00    -0.290 N 
ATOM     23  C   UNL     1       9.299  -6.184   9.933  0.00  0.00    +0.114 A 
ATOM     24  C   UNL     1      10.432  -6.245  10.657  0.00  0.00    +0.130 A 
ATOM     25  N   UNL     1      11.184  -5.177  10.351  0.00  0.00    -0.244 NA
ATOM     26  C   UNL     1      10.566  -4.454   9.458  0.00  0.00    +0.205 A 
ENDBRANCH  13  16
BRANCH   1  28
ATOM     27  C   UNL     1      -0.019   1.526   0.010  0.00  0.00    +0.004 C 
ATOM     28  C   UNL     1       0.002  -0.004   0.002  0.00  0.00    +0.000 C 
ENDBRANCH   1  28
TORSDOF 2
