REMARK  Name = ZINC54079504
REMARK  5 active torsions:
REMARK  status: ('A' for Active; 'I' for Inactive)
REMARK    1  A    between atoms: C_1  and  C_2
REMARK    2  A    between atoms: C_2  and  C_28
REMARK    3  A    between atoms: C_7  and  N_11
REMARK    4  A    between atoms: C_12  and  C_14
REMARK    5  A    between atoms: N_18  and  C_21
REMARK                            x       y       z     vdW  Elec       q    Type
REMARK                         _______ _______ _______ _____ _____    ______ ____
ROOT
ATOM      1  N   UNL     1      -0.080  -4.876   3.290  0.00  0.00    -0.285 N 
ATOM      2  C   UNL     1      -0.954  -5.873   3.537  0.00  0.00    +0.229 C 
ATOM      3  O   UNL     1      -2.031  -5.886   2.981  0.00  0.00    -0.275 OA
ATOM      4  H   UNL     1       0.807  -4.901   3.682  0.00  0.00    +0.155 HD
ENDROOT
BRANCH   1  11
ATOM      5  C   UNL     1      -2.905  -1.163  -2.185  0.00  0.00    +0.104 C 
ATOM      6  C   UNL     1      -2.793  -1.520  -0.702  0.00  0.00    +0.248 C 
ATOM      7  O   UNL     1      -1.687  -0.825  -0.097  0.00  0.00    -0.448 OA
ATOM      8  C   UNL     1      -1.187  -1.683   0.842  0.00  0.00    +0.167 A 
ATOM      9  C   UNL     1      -0.351  -1.470   1.926  0.00  0.00    +0.051 A 
ATOM     10  C   UNL     1       0.015  -2.527   2.737  0.00  0.00    +0.027 A 
ATOM     11  C   UNL     1      -0.453  -3.806   2.467  0.00  0.00    +0.037 A 
ATOM     12  C   UNL     1      -1.290  -4.023   1.382  0.00  0.00    +0.072 A 
ATOM     13  C   UNL     1      -1.658  -2.965   0.568  0.00  0.00    +0.169 A 
ATOM     14  O   UNL     1      -2.453  -2.910  -0.540  0.00  0.00    -0.448 OA
ATOM     15  C   UNL     1      -4.099  -1.198   0.027  0.00  0.00    +0.104 C 
ENDBRANCH   1  11
BRANCH   2  16
ATOM     16  C   UNL     1      -0.591  -6.970   4.504  0.00  0.00    +0.163 C 
ATOM     17  C   UNL     1      -1.764  -7.966   4.656  0.00  0.00    +0.041 C 
ATOM     18  C   UNL     1      -1.675  -8.331   6.155  0.00  0.00    +0.115 C 
ATOM     19  N   UNL     1      -1.020  -7.186   6.798  0.00  0.00    -0.271 N 
ATOM     20  C   UNL     1      -0.396  -6.407   5.895  0.00  0.00    +0.232 C 
ATOM     21  O   UNL     1       0.230  -5.402   6.156  0.00  0.00    -0.274 OA
BRANCH  19  22
ATOM     22  C   UNL     1      -1.040  -6.936   8.176  0.00  0.00    +0.036 A 
ATOM     23  C   UNL     1      -1.707  -7.805   9.030  0.00  0.00    +0.026 A 
ATOM     24  C   UNL     1      -1.725  -7.557  10.389  0.00  0.00    +0.040 A 
ATOM     25  C   UNL     1      -1.081  -6.443  10.899  0.00  0.00    +0.124 A 
ATOM     26  C   UNL     1      -0.416  -5.575  10.049  0.00  0.00    +0.040 A 
ATOM     27  C   UNL     1      -0.390  -5.823   8.690  0.00  0.00    +0.026 A 
ATOM     28  F   UNL     1      -1.101  -6.201  12.228  0.00  0.00    -0.205 F 
ENDBRANCH  19  22
ENDBRANCH   2  16
TORSDOF 3
