REMARK  Name = ZINC64541318
REMARK  5 active torsions:
REMARK  status: ('A' for Active; 'I' for Inactive)
REMARK    1  A    between atoms: C_1  and  O_2
REMARK    2  A    between atoms: O_2  and  C_3
REMARK    3  A    between atoms: C_6  and  C_10
REMARK    4  A    between atoms: C_10  and  C_11
REMARK    5  A    between atoms: C_19  and  C_21
REMARK                            x       y       z     vdW  Elec       q    Type
REMARK                         _______ _______ _______ _____ _____    ______ ____
ROOT
ATOM      1  C   UNL     1       3.964  -2.719  -4.072  0.00  0.00    +0.220 C 
ATOM      2  O   UNL     1       4.416  -2.365  -3.004  0.00  0.00    -0.275 OA
ATOM      3  N   UNL     1       4.767  -3.305  -4.982  0.00  0.00    -0.298 N 
ATOM      4  C   UNL     1       4.235  -3.733  -6.284  0.00  0.00    +0.126 C 
ATOM      5  C   UNL     1       5.070  -3.080  -7.393  0.00  0.00    +0.127 C 
ATOM      6  N   UNL     1       6.493  -3.302  -7.102  0.00  0.00    -0.297 N 
ATOM      7  C   UNL     1       7.025  -2.874  -5.801  0.00  0.00    +0.127 C 
ATOM      8  C   UNL     1       6.192  -3.522  -4.694  0.00  0.00    +0.126 C 
ATOM      9  C   UNL     1       7.296  -3.889  -8.012  0.00  0.00    +0.242 C 
ATOM     10  O   UNL     1       6.846  -4.238  -9.082  0.00  0.00    -0.273 OA
ENDROOT
BRANCH   9  11
ATOM     11  C   UNL     1       8.754  -4.110  -7.699  0.00  0.00    +0.190 C 
ATOM     12  C   UNL     1       9.448  -2.783  -7.484  0.00  0.00    +0.016 C 
ATOM     13  C   UNL     1      10.410  -2.706  -8.432  0.00  0.00    -0.004 A 
ATOM     14  C   UNL     1      11.411  -1.681  -8.750  0.00  0.00    +0.010 A 
ATOM     15  C   UNL     1      12.259  -1.891  -9.783  0.00  0.00    +0.001 A 
ATOM     16  C   UNL     1      12.206  -3.060 -10.554  0.00  0.00    +0.002 A 
ATOM     17  C   UNL     1      11.314  -4.046 -10.322  0.00  0.00    +0.026 A 
ATOM     18  C   UNL     1      10.374  -3.931  -9.261  0.00  0.00    +0.043 A 
ATOM     19  N   UNL     1       9.427  -4.737  -8.842  0.00  0.00    -0.370 N 
ATOM     20  H   UNL     1       9.207  -5.601  -9.224  0.00  0.00    +0.161 HD
ENDBRANCH   9  11
BRANCH   1  21
ATOM     21  C   UNL     1       2.505  -2.503  -4.383  0.00  0.00    +0.131 C 
BRANCH  21  25
ATOM     22  C   UNL     1       0.606  -0.607  -1.056  0.00  0.00    +0.138 A 
ATOM     23  C   UNL     1       1.173   0.160  -2.062  0.00  0.00    +0.047 A 
ATOM     24  C   UNL     1       1.787  -0.455  -3.136  0.00  0.00    +0.008 A 
ATOM     25  C   UNL     1       1.836  -1.835  -3.209  0.00  0.00    -0.037 A 
ATOM     26  C   UNL     1       1.271  -2.603  -2.208  0.00  0.00    +0.027 A 
ATOM     27  C   UNL     1       0.661  -1.992  -1.128  0.00  0.00    +0.083 A 
ATOM     28 CL   UNL     1      -0.042  -2.957   0.133  0.00  0.00    -0.080 Cl
BRANCH  22  30
ATOM     29  C   UNL     1      -0.017   1.425   0.010  0.00  0.00    +0.277 C 
ATOM     30  O   UNL     1       0.002  -0.004   0.002  0.00  0.00    -0.494 OA
ENDBRANCH  22  30
ENDBRANCH  21  25
ENDBRANCH   1  21
TORSDOF 4
