REMARK  Name = ZINC58408220
REMARK  5 active torsions:
REMARK  status: ('A' for Active; 'I' for Inactive)
REMARK    1  A    between atoms: C_1  and  C_2
REMARK    2  A    between atoms: C_9  and  C_11
REMARK    3  A    between atoms: N_13  and  C_14
REMARK    4  A    between atoms: C_17  and  C_20
REMARK    5  A    between atoms: C_26  and  C_28
REMARK                            x       y       z     vdW  Elec       q    Type
REMARK                         _______ _______ _______ _____ _____    ______ ____
ROOT
ATOM      1  C   UNL     1       0.210  -8.013   2.043  0.00  0.00    +0.034 A 
ATOM      2  C   UNL     1       0.207  -8.157   3.427  0.00  0.00    +0.024 A 
ATOM      3  C   UNL     1       0.316  -9.409   3.991  0.00  0.00    +0.012 A 
ATOM      4  C   UNL     1       0.429 -10.534   3.172  0.00  0.00    +0.001 A 
ATOM      5  C   UNL     1       0.432 -10.387   1.784  0.00  0.00    +0.012 A 
ATOM      6  C   UNL     1       0.317  -9.133   1.225  0.00  0.00    +0.024 A 
ENDROOT
BRANCH   4   7
ATOM      7  C   UNL     1       0.546 -11.880   3.775  0.00  0.00    +0.078 A 
ATOM      8  C   UNL     1       0.664 -13.000   2.967  0.00  0.00    +0.098 A 
ATOM      9  C   UNL     1       0.773 -14.259   3.581  0.00  0.00    +0.252 A 
ATOM     10  O   UNL     1       0.880 -15.272   2.909  0.00  0.00    -0.268 OA
ATOM     11  N   UNL     1       0.759 -14.326   4.929  0.00  0.00    -0.311 N 
ATOM     12  H   UNL     1       0.833 -15.187   5.370  0.00  0.00    +0.170 HD
ATOM     13  C   UNL     1       0.642 -13.203   5.665  0.00  0.00    +0.107 A 
ATOM     14  N   UNL     1       0.545 -12.026   5.112  0.00  0.00    -0.234 NA
ATOM     15  C   UNL     1       0.628 -13.310   7.169  0.00  0.00    +0.086 C 
ENDBRANCH   4   7
BRANCH   1  18
ATOM     16  C   UNL     1       0.674  -5.684   2.077  0.00  0.00    +0.284 C 
ATOM     17  O   UNL     1       1.217  -5.818   3.158  0.00  0.00    -0.266 OA
ATOM     18  N   UNL     1       0.100  -6.744   1.475  0.00  0.00    -0.279 N 
ATOM     19  H   UNL     1      -0.390  -6.625   0.646  0.00  0.00    +0.155 HD
BRANCH  16  28
ATOM     20  C   UNL     1       1.127   1.386  -0.264  0.00  0.00    +0.044 C 
ATOM     21  C   UNL     1       0.812  -0.086  -0.191  0.00  0.00    -0.050 A 
ATOM     22  C   UNL     1       0.116  -0.695  -1.226  0.00  0.00    +0.007 A 
ATOM     23  C   UNL     1      -0.182  -2.040  -1.180  0.00  0.00    +0.047 A 
ATOM     24  C   UNL     1       0.217  -2.800  -0.087  0.00  0.00    +0.136 A 
ATOM     25  C   UNL     1       0.922  -2.178   0.960  0.00  0.00    +0.021 A 
ATOM     26  C   UNL     1       1.219  -0.814   0.891  0.00  0.00    +0.015 A 
ATOM     27  C   UNL     1       1.189  -3.231   1.939  0.00  0.00    +0.063 A 
ATOM     28  C   UNL     1       0.645  -4.366   1.428  0.00  0.00    +0.191 A 
ATOM     29  O   UNL     1       0.075  -4.101   0.234  0.00  0.00    -0.450 OA
ENDBRANCH  16  28
ENDBRANCH   1  18
TORSDOF 3
