REMARK  Name = ZINC61644667
REMARK  6 active torsions:
REMARK  status: ('A' for Active; 'I' for Inactive)
REMARK    1  A    between atoms: C_1  and  N_2
REMARK    2  A    between atoms: N_2  and  C_3
REMARK    3  A    between atoms: N_2  and  C_4
REMARK    4  A    between atoms: C_4  and  C_5
REMARK    5  A    between atoms: N_10  and  S_11
REMARK    6  A    between atoms: S_11  and  C_14
REMARK                            x       y       z     vdW  Elec       q    Type
REMARK                         _______ _______ _______ _____ _____    ______ ____
ROOT
ATOM      1  C   UNL     1       2.393  -0.445  -0.890  0.00  0.00    +0.063 C 
ATOM      2  C   UNL     1       3.402  -1.161  -1.813  0.00  0.00    +0.020 C 
ATOM      3  C   UNL     1       4.643  -1.341  -0.899  0.00  0.00    +0.019 C 
ATOM      4  C   UNL     1       3.980  -1.601   0.477  0.00  0.00    +0.110 C 
ATOM      5  N   UNL     1       2.792  -0.724   0.497  0.00  0.00    -0.175 NA
ENDROOT
BRANCH   5   6
ATOM      6  S   UNL     1       2.034  -0.150   1.853  0.00  0.00    +0.061 S 
ATOM      7  O   UNL     1       3.024  -0.073   2.870  0.00  0.00    -0.153 OA
ATOM      8  O   UNL     1       1.271   0.978   1.446  0.00  0.00    -0.153 OA
BRANCH   6   9
ATOM      9  C   UNL     1       0.880  -1.380   2.365  0.00  0.00    +0.106 A 
ATOM     10  C   UNL     1      -0.435  -1.310   1.945  0.00  0.00    +0.031 A 
ATOM     11  C   UNL     1      -1.341  -2.275   2.346  0.00  0.00    +0.040 A 
ATOM     12  C   UNL     1      -0.930  -3.310   3.168  0.00  0.00    +0.124 A 
ATOM     13  C   UNL     1       0.388  -3.379   3.588  0.00  0.00    +0.040 A 
ATOM     14  C   UNL     1       1.293  -2.416   3.182  0.00  0.00    +0.031 A 
ATOM     15  F   UNL     1      -1.815  -4.253   3.560  0.00  0.00    -0.205 F 
ENDBRANCH   6   9
ENDBRANCH   5   6
BRANCH   1  16
ATOM     16  C   UNL     1       0.983  -0.981  -1.144  0.00  0.00    -0.059 C 
BRANCH  16  18
ATOM     17  C   UNL     1       1.284  -1.095  -3.522  0.00  0.00    -0.097 C 
ATOM     18  N   UNL     1       0.498  -0.487  -2.440  0.00  0.00    +0.377 N 
ATOM     19  C   UNL     1      -0.917  -0.846  -2.602  0.00  0.00    -0.097 C 
ATOM     20  H   UNL     1       0.597   0.517  -2.475  0.00  0.00    -0.083 HD
ENDBRANCH  16  18
ENDBRANCH   1  16
TORSDOF 4
