REMARK  Name = ZINC23949290
REMARK  8 active torsions:
REMARK  status: ('A' for Active; 'I' for Inactive)
REMARK    1  A    between atoms: C_1  and  C_2
REMARK    2  A    between atoms: C_5  and  C_8
REMARK    3  A    between atoms: N_11  and  C_13
REMARK    4  A    between atoms: C_13  and  C_15
REMARK    5  A    between atoms: C_13  and  C_16
REMARK    6  A    between atoms: N_18  and  C_19
REMARK    7  A    between atoms: C_24  and  O_25
REMARK    8  A    between atoms: O_25  and  C_26
REMARK                            x       y       z     vdW  Elec       q    Type
REMARK                         _______ _______ _______ _____ _____    ______ ____
ROOT
ATOM      1  C   UNL     1      -4.885   0.011  -0.143  0.00  0.00    +0.213 C 
ATOM      2  C   UNL     1      -5.068   0.882   1.102  0.00  0.00    +0.044 C 
ENDROOT
BRANCH   1   6
ATOM      3  C   UNL     1      -7.658  -2.025  -0.926  0.00  0.00    +0.205 A 
ATOM      4  N   UNL     1      -7.287  -2.522   0.261  0.00  0.00    -0.108 NA
ATOM      5  N   UNL     1      -6.262  -1.846   0.656  0.00  0.00    -0.045 NA
ATOM      6  N   UNL     1      -5.983  -0.955  -0.229  0.00  0.00    -0.151 N 
ATOM      7  N   UNL     1      -6.824  -1.041  -1.202  0.00  0.00    -0.130 NA
BRANCH   3  12
ATOM      8  C   UNL     1     -12.059  -3.815  -4.183  0.00  0.00    +0.044 C 
ATOM      9  C   UNL     1     -10.908  -3.347  -3.331  0.00  0.00    -0.050 A 
ATOM     10  C   UNL     1     -10.649  -3.966  -2.122  0.00  0.00    +0.004 A 
ATOM     11  C   UNL     1      -9.595  -3.541  -1.337  0.00  0.00    +0.012 A 
ATOM     12  C   UNL     1      -8.793  -2.486  -1.766  0.00  0.00    +0.023 A 
ATOM     13  C   UNL     1      -9.061  -1.863  -2.982  0.00  0.00    +0.012 A 
ATOM     14  C   UNL     1     -10.114  -2.299  -3.761  0.00  0.00    +0.004 A 
ENDBRANCH   3  12
ENDBRANCH   1   6
BRANCH   1  15
ATOM     15  C   UNL     1      -3.574  -0.726  -0.052  0.00  0.00    +0.243 C 
ATOM     16  O   UNL     1      -3.558  -1.939  -0.059  0.00  0.00    -0.273 OA
ATOM     17  N   UNL     1      -2.418  -0.038   0.037  0.00  0.00    -0.281 N 
ATOM     18  H   UNL     1      -2.437   1.058   0.134  0.00  0.00    +0.155 HD
BRANCH  17  19
ATOM     19  C   UNL     1      -1.193  -0.717   0.004  0.00  0.00    +0.077 A 
ATOM     20  C   UNL     1      -1.103  -1.958  -0.611  0.00  0.00    +0.047 A 
ATOM     21  C   UNL     1       0.106  -2.629  -0.636  0.00  0.00    +0.043 A 
ATOM     22  C   UNL     1       1.227  -2.064  -0.054  0.00  0.00    +0.024 A 
ATOM     23  C   UNL     1       1.144  -0.826   0.556  0.00  0.00    +0.049 A 
ATOM     24  C   UNL     1      -0.063  -0.147   0.585  0.00  0.00    +0.141 A 
ATOM     25 CL   UNL     1       0.217  -4.184  -1.401  0.00  0.00    -0.083 Cl
BRANCH  24  26
ATOM     26  O   UNL     1      -0.146   1.070   1.185  0.00  0.00    -0.493 OA
ATOM     27  C   UNL     1       1.052   1.590   1.765  0.00  0.00    +0.277 C 
ENDBRANCH  24  26
ENDBRANCH  17  19
ENDBRANCH   1  15
TORSDOF 5
