REMARK  Name = ZINC35809887
REMARK  13 active torsions:
REMARK  status: ('A' for Active; 'I' for Inactive)
REMARK    1  A    between atoms: C_1  and  C_2
REMARK    2  A    between atoms: C_2  and  C_3
REMARK    3  A    between atoms: C_2  and  C_4
REMARK    4  A    between atoms: C_2  and  C_5
REMARK    5  A    between atoms: C_8  and  C_11
REMARK    6  A    between atoms: C_11  and  N_12
REMARK    7  A    between atoms: C_21  and  C_23
REMARK    8  A    between atoms: C_25  and  O_33
REMARK    9  A    between atoms: C_26  and  O_31
REMARK   10  A    between atoms: C_28  and  O_29
REMARK   11  A    between atoms: O_29  and  C_30
REMARK   12  A    between atoms: O_31  and  C_32
REMARK   13  A    between atoms: O_33  and  C_34
REMARK                            x       y       z     vdW  Elec       q    Type
REMARK                         _______ _______ _______ _____ _____    ______ ____
ROOT
ATOM      1  N   UNL     1       2.329  -0.896  -5.967  0.00  0.00    +0.391 N 
ATOM      2  C   UNL     1       2.800   0.399  -5.469  0.00  0.00    -0.075 C 
ATOM      3  C   UNL     1       2.747   1.458  -6.563  0.00  0.00    +0.003 C 
ATOM      4  C   UNL     1       1.553   1.192  -7.485  0.00  0.00    +0.119 C 
ATOM      5  N   UNL     1       1.972   0.281  -8.556  0.00  0.00    -0.352 N 
ATOM      6  C   UNL     1       1.710   0.420  -9.885  0.00  0.00    +0.086 A 
ATOM      7  C   UNL     1       2.250  -0.632 -10.534  0.00  0.00    +0.019 A 
ATOM      8  C   UNL     1       2.872  -1.449  -9.569  0.00  0.00    +0.021 A 
ATOM      9  C   UNL     1       2.693  -0.864  -8.369  0.00  0.00    +0.010 A 
ATOM     10  C   UNL     1       3.208  -1.372  -7.044  0.00  0.00    +0.014 C 
ATOM     11  H   UNL     1       1.390  -0.795  -6.322  0.00  0.00    -0.080 HD
ENDROOT
BRANCH  10  12
ATOM     12  C   UNL     1       3.222  -2.878  -7.053  0.00  0.00    -0.010 A 
ATOM     13  C   UNL     1       2.034  -3.579  -7.154  0.00  0.00    +0.055 A 
ATOM     14  C   UNL     1       2.045  -4.964  -7.163  0.00  0.00    +0.162 A 
ATOM     15  C   UNL     1       3.252  -5.651  -7.071  0.00  0.00    +0.165 A 
ATOM     16  C   UNL     1       4.441  -4.947  -6.971  0.00  0.00    +0.095 A 
ATOM     17  C   UNL     1       4.426  -3.560  -6.967  0.00  0.00    +0.126 A 
BRANCH  17  18
ATOM     18  O   UNL     1       5.594  -2.869  -6.873  0.00  0.00    -0.495 OA
ATOM     19  C   UNL     1       6.796  -3.636  -6.788  0.00  0.00    +0.277 C 
ENDBRANCH  17  18
BRANCH  15  20
ATOM     20  O   UNL     1       3.264  -7.011  -7.080  0.00  0.00    -0.491 OA
ATOM     21  C   UNL     1       4.539  -7.649  -6.982  0.00  0.00    +0.277 C 
ENDBRANCH  15  20
BRANCH  14  22
ATOM     22  O   UNL     1       0.875  -5.653  -7.262  0.00  0.00    -0.491 OA
ATOM     23  C   UNL     1      -0.325  -4.883  -7.352  0.00  0.00    +0.277 C 
ENDBRANCH  14  22
ENDBRANCH  10  12
BRANCH   1  24
ATOM     24  C   UNL     1       2.332  -1.871  -4.868  0.00  0.00    -0.042 C 
BRANCH  24  28
ATOM     25  C   UNL     1      -0.411  -0.619  -1.842  0.00  0.00    -0.042 A 
ATOM     26  C   UNL     1      -0.843  -1.433  -2.873  0.00  0.00    +0.004 A 
ATOM     27  C   UNL     1       0.045  -1.838  -3.852  0.00  0.00    +0.002 A 
ATOM     28  C   UNL     1       1.364  -1.429  -3.801  0.00  0.00    -0.064 A 
ATOM     29  C   UNL     1       1.796  -0.614  -2.771  0.00  0.00    +0.002 A 
ATOM     30  C   UNL     1       0.907  -0.205  -1.794  0.00  0.00    +0.004 A 
BRANCH  25  32
ATOM     31  C   UNL     1      -1.470   1.350  -0.770  0.00  0.00    +0.015 C 
ATOM     32  C   UNL     1      -1.379  -0.178  -0.775  0.00  0.00    -0.013 C 
ATOM     33  C   UNL     1      -0.888  -0.664   0.591  0.00  0.00    +0.015 C 
ATOM     34  C   UNL     1      -2.760  -0.770  -1.062  0.00  0.00    +0.015 C 
ENDBRANCH  25  32
ENDBRANCH  24  28
ENDBRANCH   1  24
TORSDOF 7
