REMARK  Name = ZINC00931375
REMARK  10 active torsions:
REMARK  status: ('A' for Active; 'I' for Inactive)
REMARK    1  A    between atoms: C_1  and  C_2
REMARK    2  A    between atoms: C_3  and  C_8
REMARK    3  A    between atoms: N_5  and  C_7
REMARK    4  A    between atoms: C_8  and  C_10
REMARK    5  A    between atoms: C_8  and  N_19
REMARK    6  A    between atoms: N_12  and  C_13
REMARK    7  A    between atoms: N_19  and  C_20
REMARK    8  A    between atoms: C_23  and  C_26
REMARK    9  A    between atoms: C_26  and  C_28
REMARK   10  A    between atoms: C_29  and  C_31
REMARK                            x       y       z     vdW  Elec       q    Type
REMARK                         _______ _______ _______ _____ _____    ______ ____
ROOT
ATOM      1  N   UNL     1      -3.239   0.579   6.140  0.00  0.00    -0.252 N 
ATOM      2  C   UNL     1      -2.238   1.046   6.911  0.00  0.00    +0.265 C 
ATOM      3  O   UNL     1      -1.739   0.333   7.755  0.00  0.00    -0.271 OA
ENDROOT
BRANCH   2   4
ATOM      4  C   UNL     1      -1.738   2.456   6.725  0.00  0.00    +0.296 C 
ATOM      5  C   UNL     1      -2.799   3.450   7.213  0.00  0.00    +0.283 C 
ATOM      6  O   UNL     1      -2.288   4.776   7.034  0.00  0.00    -0.484 OA
ATOM      7  C   UNL     1      -1.010   4.999   7.448  0.00  0.00    +0.162 A 
ATOM      8  C   UNL     1      -0.575   6.301   7.641  0.00  0.00    +0.049 A 
ATOM      9  C   UNL     1       0.720   6.544   8.058  0.00  0.00    +0.004 A 
ATOM     10  C   UNL     1       1.585   5.490   8.284  0.00  0.00    +0.004 A 
ATOM     11  C   UNL     1       1.157   4.189   8.094  0.00  0.00    +0.049 A 
ATOM     12  C   UNL     1      -0.141   3.939   7.677  0.00  0.00    +0.163 A 
ATOM     13  O   UNL     1      -0.549   2.652   7.498  0.00  0.00    -0.472 OA
ENDBRANCH   2   4
BRANCH   1  14
ATOM     14  C   UNL     1      -3.752  -0.697   6.362  0.00  0.00    +0.038 A 
ATOM     15  C   UNL     1      -4.684  -1.234   5.477  0.00  0.00    +0.024 A 
ATOM     16  C   UNL     1      -5.187  -2.492   5.688  0.00  0.00    +0.013 A 
ATOM     17  C   UNL     1      -4.771  -3.232   6.802  0.00  0.00    +0.017 A 
ATOM     18  C   UNL     1      -3.838  -2.685   7.692  0.00  0.00    +0.013 A 
ATOM     19  C   UNL     1      -3.336  -1.429   7.470  0.00  0.00    +0.024 A 
BRANCH  17  20
ATOM     20  C   UNL     1      -5.312  -4.577   7.036  0.00  0.00    +0.160 C 
ATOM     21  O   UNL     1      -5.034  -5.174   8.055  0.00  0.00    -0.292 OA
ATOM     22  C   UNL     1      -6.213  -5.216   6.011  0.00  0.00    +0.091 C 
ENDBRANCH  17  20
ENDBRANCH   1  14
BRANCH   1  23
ATOM     23  C   UNL     1      -3.789   1.413   5.068  0.00  0.00    +0.200 C 
BRANCH  23  26
ATOM     24  C   UNL     1      -5.460   3.829   3.877  0.00  0.00    +0.068 C 
ATOM     25  C   UNL     1      -5.973   2.785   4.836  0.00  0.00    +0.065 A 
ATOM     26  C   UNL     1      -5.235   1.720   5.361  0.00  0.00    +0.022 A 
ATOM     27  C   UNL     1      -6.047   1.016   6.184  0.00  0.00    +0.114 A 
ATOM     28  N   UNL     1      -7.258   1.611   6.175  0.00  0.00    -0.274 N 
ATOM     29  N   UNL     1      -7.188   2.718   5.318  0.00  0.00    -0.176 NA
ATOM     30  C   UNL     1      -8.437   1.178   6.928  0.00  0.00    +0.172 C 
ENDBRANCH  23  26
BRANCH  23  31
ATOM     31  C   UNL     1      -3.687   0.678   3.757  0.00  0.00    +0.239 C 
ATOM     32  O   UNL     1      -3.203  -0.434   3.721  0.00  0.00    -0.273 OA
ATOM     33  N   UNL     1      -4.134   1.256   2.624  0.00  0.00    -0.311 N 
ATOM     34  H   UNL     1      -4.521   2.144   2.653  0.00  0.00    +0.149 HD
BRANCH  33  35
ATOM     35  C   UNL     1      -4.035   0.540   1.349  0.00  0.00    +0.073 C 
ATOM     36  C   UNL     1      -2.648   0.767   0.744  0.00  0.00    +0.022 C 
ATOM     37  C   UNL     1      -2.545   0.020  -0.588  0.00  0.00    +0.002 C 
ATOM     38  C   UNL     1      -3.613   0.543  -1.550  0.00  0.00    +0.000 C 
ATOM     39  C   UNL     1      -5.000   0.317  -0.945  0.00  0.00    +0.002 C 
ATOM     40  C   UNL     1      -5.103   1.064   0.387  0.00  0.00    +0.022 C 
ENDBRANCH  33  35
ENDBRANCH  23  31
ENDBRANCH   1  23
TORSDOF 7
