REMARK  Name = ZINC40707861
REMARK  5 active torsions:
REMARK  status: ('A' for Active; 'I' for Inactive)
REMARK    1  A    between atoms: C_1  and  C_2
REMARK    2  A    between atoms: C_2  and  C_3
REMARK    3  A    between atoms: C_2  and  C_4
REMARK    4  A    between atoms: C_5  and  N_23
REMARK    5  A    between atoms: C_7  and  C_12
REMARK                            x       y       z     vdW  Elec       q    Type
REMARK                         _______ _______ _______ _____ _____    ______ ____
ROOT
ATOM      1  C   UNL     1      -1.412  -0.526   0.013  0.00  0.00    +0.085 A 
ATOM      2  C   UNL     1      -1.971  -1.311  -0.930  0.00  0.00    +0.125 A 
ATOM      3  N   UNL     1      -3.283  -1.565  -0.543  0.00  0.00    -0.274 N 
ATOM      4  C   UNL     1      -4.383  -2.265  -1.014  0.00  0.00    +0.064 A 
ATOM      5  C   UNL     1      -5.534  -2.269  -0.316  0.00  0.00    +0.075 A 
ATOM      6  S   UNL     1      -5.120  -1.253   1.093  0.00  0.00    -0.057 S 
ATOM      7  C   UNL     1      -3.436  -0.896   0.647  0.00  0.00    +0.179 A 
ATOM      8  N   UNL     1      -2.331  -0.292   0.968  0.00  0.00    -0.224 NA
ENDROOT
BRANCH   4   9
ATOM      9  C   UNL     1      -4.291  -3.009  -2.288  0.00  0.00    +0.001 A 
ATOM     10  C   UNL     1      -3.434  -4.106  -2.397  0.00  0.00    +0.013 A 
ATOM     11  C   UNL     1      -3.348  -4.801  -3.586  0.00  0.00    +0.048 A 
ATOM     12  C   UNL     1      -4.113  -4.414  -4.674  0.00  0.00    +0.142 A 
ATOM     13  C   UNL     1      -4.972  -3.319  -4.572  0.00  0.00    +0.076 A 
ATOM     14  C   UNL     1      -5.067  -2.621  -3.382  0.00  0.00    +0.037 A 
ATOM     15  N   UNL     1      -5.737  -2.941  -5.685  0.00  0.00    -0.280 N 
ATOM     16  C   UNL     1      -5.871  -3.808  -6.712  0.00  0.00    +0.255 C 
ATOM     17  O   UNL     1      -6.503  -3.491  -7.698  0.00  0.00    -0.272 OA
ATOM     18  C   UNL     1      -5.233  -5.171  -6.628  0.00  0.00    +0.325 C 
ATOM     19  O   UNL     1      -4.035  -5.094  -5.850  0.00  0.00    -0.481 OA
ATOM     20  H   UNL     1      -6.162  -2.070  -5.717  0.00  0.00    +0.155 HD
ENDBRANCH   4   9
BRANCH   1  22
ATOM     21  C   UNL     1      -0.019   1.526   0.010  0.00  0.00    +0.014 C 
ATOM     22  C   UNL     1       0.002  -0.004   0.002  0.00  0.00    +0.035 C 
ATOM     23  C   UNL     1       0.742  -0.511   1.242  0.00  0.00    +0.014 C 
ENDBRANCH   1  22
BRANCH   2  24
ATOM     24  N   UNL     1      -1.343  -1.785  -2.091  0.00  0.00    -0.343 N 
ATOM     25  H   UNL     1      -0.420  -1.551  -2.273  0.00  0.00    +0.144 HD
ATOM     26  H   UNL     1      -1.833  -2.348  -2.711  0.00  0.00    +0.144 HD
ENDBRANCH   2  24
TORSDOF 3
