REMARK  Name = ZINC21573250
REMARK  7 active torsions:
REMARK  status: ('A' for Active; 'I' for Inactive)
REMARK    1  A    between atoms: C_1  and  C_2
REMARK    2  A    between atoms: C_5  and  N_9
REMARK    3  A    between atoms: C_7  and  C_8
REMARK    4  A    between atoms: C_10  and  S_14
REMARK    5  A    between atoms: S_14  and  C_15
REMARK    6  A    between atoms: C_15  and  C_16
REMARK    7  A    between atoms: C_22  and  C_27
REMARK                            x       y       z     vdW  Elec       q    Type
REMARK                         _______ _______ _______ _____ _____    ______ ____
ROOT
ATOM      1  C   UNL     1      -2.884  -5.814  -4.257  0.00  0.00    +0.121 A 
ATOM      2  N   UNL     1      -3.376  -6.855  -4.976  0.00  0.00    -0.310 N 
ATOM      3  H   UNL     1      -3.171  -7.762  -4.700  0.00  0.00    +0.170 HD
ATOM      4  C   UNL     1      -4.143  -6.653  -6.063  0.00  0.00    +0.260 A 
ATOM      5  O   UNL     1      -4.578  -7.599  -6.697  0.00  0.00    -0.267 OA
ATOM      6  C   UNL     1      -4.441  -5.312  -6.464  0.00  0.00    +0.080 A 
ATOM      7  C   UNL     1      -5.238  -4.840  -7.589  0.00  0.00    +0.004 A 
ATOM      8  C   UNL     1      -5.383  -3.505  -7.772  0.00  0.00    +0.056 A 
ATOM      9  S   UNL     1      -4.446  -2.801  -6.428  0.00  0.00    -0.076 S 
ATOM     10  C   UNL     1      -3.888  -4.301  -5.660  0.00  0.00    +0.116 A 
ATOM     11  N   UNL     1      -3.142  -4.579  -4.594  0.00  0.00    -0.226 NA
ENDROOT
BRANCH   7  12
ATOM     12  C   UNL     1      -5.878  -5.803  -8.517  0.00  0.00    -0.017 A 
ATOM     13  C   UNL     1      -5.132  -6.840  -9.074  0.00  0.00    +0.008 A 
ATOM     14  C   UNL     1      -5.734  -7.734  -9.937  0.00  0.00    +0.001 A 
ATOM     15  C   UNL     1      -7.074  -7.601 -10.249  0.00  0.00    +0.000 A 
ATOM     16  C   UNL     1      -7.820  -6.573  -9.700  0.00  0.00    +0.001 A 
ATOM     17  C   UNL     1      -7.231  -5.677  -8.832  0.00  0.00    +0.008 A 
ENDBRANCH   7  12
BRANCH   1  18
ATOM     18  C   UNL     1      -2.030  -6.088  -3.046  0.00  0.00    +0.151 C 
BRANCH  18  19
ATOM     19  S   UNL     1      -1.529  -4.516  -2.292  0.00  0.00    -0.076 S 
BRANCH  19  21
ATOM     20  N   UNL     1       0.057  -4.173  -0.021  0.00  0.00    -0.187 N 
ATOM     21  C   UNL     1      -0.550  -5.000  -0.908  0.00  0.00    +0.214 A 
ATOM     22  N   UNL     1      -0.271  -6.232  -0.540  0.00  0.00    -0.101 NA
ATOM     23  N   UNL     1       0.466  -6.231   0.511  0.00  0.00    -0.022 NA
ATOM     24  N   UNL     1       0.714  -5.023   0.886  0.00  0.00    -0.038 NA
BRANCH  20  29
ATOM     25  C   UNL     1      -0.018   1.503   0.010  0.00  0.00    +0.044 C 
ATOM     26  C   UNL     1       0.002  -0.004   0.002  0.00  0.00    -0.047 A 
ATOM     27  C   UNL     1       0.006  -0.688  -1.200  0.00  0.00    +0.006 A 
ATOM     28  C   UNL     1       0.024  -2.068  -1.211  0.00  0.00    +0.028 A 
ATOM     29  C   UNL     1       0.039  -2.771  -0.013  0.00  0.00    +0.070 A 
ATOM     30  C   UNL     1       0.036  -2.082   1.192  0.00  0.00    +0.031 A 
ATOM     31  C   UNL     1       0.023  -0.700   1.196  0.00  0.00    -0.046 A 
ATOM     32  C   UNL     1       0.026   0.048   2.504  0.00  0.00    +0.044 C 
ENDBRANCH  20  29
ENDBRANCH  19  21
ENDBRANCH  18  19
ENDBRANCH   1  18
TORSDOF 5
