REMARK  Name = ZINC35295303
REMARK  3 active torsions:
REMARK  status: ('A' for Active; 'I' for Inactive)
REMARK    1  A    between atoms: C_1  and  C_2
REMARK    2  A    between atoms: N_8  and  C_9
REMARK    3  A    between atoms: C_12  and  C_16
REMARK                            x       y       z     vdW  Elec       q    Type
REMARK                         _______ _______ _______ _____ _____    ______ ____
ROOT
ATOM      1  C   UNL     1      -0.307  -2.330   4.112  0.00  0.00    +0.068 A 
ATOM      2  C   UNL     1      -1.698  -2.167   4.142  0.00  0.00    +0.029 A 
ATOM      3  C   UNL     1      -2.466  -2.977   4.925  0.00  0.00    +0.022 A 
ATOM      4  C   UNL     1      -1.869  -3.976   5.702  0.00  0.00    +0.070 A 
ATOM      5  C   UNL     1      -0.478  -4.145   5.677  0.00  0.00    +0.060 A 
ATOM      6  C   UNL     1       0.296  -3.330   4.882  0.00  0.00    +0.049 A 
ATOM      7 CL   UNL     1       0.266  -5.382   6.641  0.00  0.00    -0.082 Cl
ENDROOT
BRANCH   1  14
ATOM      8  C   UNL     1      -0.019   1.526   0.010  0.00  0.00    +0.028 C 
ATOM      9  C   UNL     1       0.002  -0.004   0.002  0.00  0.00    +0.079 C 
ATOM     10  C   UNL     1      -1.455  -0.522  -0.046  0.00  0.00    +0.099 C 
ATOM     11  S   UNL     1      -1.365  -1.844   1.233  0.00  0.00    -0.089 S 
ATOM     12  C   UNL     1       0.088  -1.256   2.093  0.00  0.00    +0.155 C 
ATOM     13  N   UNL     1       0.725  -0.468   1.170  0.00  0.00    -0.320 N 
ATOM     14  N   UNL     1       0.458  -1.518   3.328  0.00  0.00    -0.226 NA
ATOM     15  H   UNL     1       1.655  -0.224   1.299  0.00  0.00    +0.148 HD
ENDBRANCH   1  14
BRANCH   4  16
ATOM     16  C   UNL     1      -2.678  -4.824   6.524  0.00  0.00    +0.101 C 
ATOM     17  N   UNL     1      -3.320  -5.497   7.176  0.00  0.00    -0.191 NA
ENDBRANCH   4  16
TORSDOF 2
