REMARK  Name = ZINC61222960
REMARK  7 active torsions:
REMARK  status: ('A' for Active; 'I' for Inactive)
REMARK    1  A    between atoms: C_1  and  C_2
REMARK    2  A    between atoms: C_2  and  N_3
REMARK    3  A    between atoms: N_3  and  C_4
REMARK    4  A    between atoms: C_4  and  C_5
REMARK    5  A    between atoms: C_5  and  C_7
REMARK    6  A    between atoms: C_5  and  C_8
REMARK    7  A    between atoms: N_13  and  C_14
REMARK                            x       y       z     vdW  Elec       q    Type
REMARK                         _______ _______ _______ _____ _____    ______ ____
ROOT
ATOM      1  N   UNL     1       0.690  -0.460  -1.208  0.00  0.00    -0.285 N 
ATOM      2  C   UNL     1      -0.012  -0.700  -2.333  0.00  0.00    +0.306 C 
ATOM      3  O   UNL     1       0.556  -1.100  -3.331  0.00  0.00    -0.252 OA
ATOM      4  N   UNL     1      -1.345  -0.498  -2.351  0.00  0.00    -0.268 N 
ATOM      5  H   UNL     1      -1.810  -0.258  -1.535  0.00  0.00    +0.156 HD
ENDROOT
BRANCH   4   6
ATOM      6  C   UNL     1      -2.057  -0.633  -3.550  0.00  0.00    +0.055 A 
ATOM      7  C   UNL     1      -1.410  -0.463  -4.766  0.00  0.00    +0.046 A 
ATOM      8  C   UNL     1      -2.115  -0.597  -5.947  0.00  0.00    +0.061 A 
ATOM      9  C   UNL     1      -3.466  -0.901  -5.918  0.00  0.00    +0.061 A 
ATOM     10  C   UNL     1      -4.113  -1.071  -4.707  0.00  0.00    +0.043 A 
ATOM     11  C   UNL     1      -3.411  -0.944  -3.523  0.00  0.00    +0.064 A 
ATOM     12 CL   UNL     1      -4.222  -1.166  -2.004  0.00  0.00    -0.082 Cl
ATOM     13 CL   UNL     1      -4.349  -1.068  -7.403  0.00  0.00    -0.082 Cl
ATOM     14 CL   UNL     1      -1.307  -0.384  -7.469  0.00  0.00    -0.082 Cl
ENDBRANCH   4   6
BRANCH   1  16
ATOM     15  C   UNL     1      -0.020   1.550  -0.010  0.00  0.00    +0.024 C 
ATOM     16  C   UNL     1       0.005   0.021  -0.005  0.00  0.00    +0.106 C 
ENDBRANCH   1  16
BRANCH   1  17
ATOM     17  C   UNL     1       2.138  -0.681  -1.187  0.00  0.00    +0.123 C 
BRANCH  17  18
ATOM     18  C   UNL     1       2.429  -2.120  -0.756  0.00  0.00    +0.116 C 
ATOM     19  C   UNL     1       1.887  -3.087  -1.811  0.00  0.00    +0.021 C 
BRANCH  18  20
ATOM     20  C   UNL     1       3.917  -2.311  -0.617  0.00  0.00    +0.360 C 
ATOM     21  O   UNL     1       4.675  -1.382  -0.841  0.00  0.00    -0.246 OA
ATOM     22  O   UNL     1       4.364  -3.394  -0.280  0.00  0.00    -0.246 OA
ENDBRANCH  18  20
ENDBRANCH  17  18
ENDBRANCH   1  17
TORSDOF 5
