REMARK  Name = ZINC34212568
REMARK  5 active torsions:
REMARK  status: ('A' for Active; 'I' for Inactive)
REMARK    1  A    between atoms: C_1  and  C_2
REMARK    2  A    between atoms: C_13  and  C_15
REMARK    3  A    between atoms: C_15  and  O_17
REMARK    4  A    between atoms: O_17  and  C_18
REMARK    5  A    between atoms: C_23  and  C_29
REMARK                            x       y       z     vdW  Elec       q    Type
REMARK                         _______ _______ _______ _____ _____    ______ ____
ROOT
ATOM      1  C   UNL     1       1.706   1.676  -0.269  0.00  0.00    +0.012 C 
ATOM      2  C   UNL     1       0.965   0.388   0.085  0.00  0.00    -0.016 C 
ATOM      3  C   UNL     1      -0.338   0.697   0.785  0.00  0.00    +0.008 C 
ATOM      4  C   UNL     1      -0.020   1.314   2.162  0.00  0.00    +0.005 C 
ATOM      5  C   UNL     1       0.781   0.342   3.013  0.00  0.00    +0.004 C 
ATOM      6  C   UNL     1       2.097  -0.058   2.326  0.00  0.00    -0.003 C 
ATOM      7  C   UNL     1       1.800  -0.572   0.954  0.00  0.00    -0.001 C 
ATOM      8  C   UNL     1       2.966  -0.909   0.018  0.00  0.00    +0.005 C 
ATOM      9  C   UNL     1       2.245  -1.105  -1.347  0.00  0.00    +0.015 C 
ATOM     10  C   UNL     1       0.850  -0.442  -1.208  0.00  0.00    +0.104 C 
ATOM     11  C   UNL     1       3.089   1.093   2.400  0.00  0.00    +0.006 C 
ATOM     12  C   UNL     1       3.502   1.301   3.865  0.00  0.00    +0.023 C 
ATOM     13  C   UNL     1       2.529   0.576   4.785  0.00  0.00    +0.083 C 
ATOM     14  C   UNL     1       1.076   0.872   4.410  0.00  0.00    +0.008 C 
ATOM     15  C   UNL     1       0.173   0.174   5.404  0.00  0.00    -0.013 C 
ATOM     16  C   UNL     1       0.543   0.081   6.678  0.00  0.00    +0.063 C 
ATOM     17  C   UNL     1       1.834   0.643   7.111  0.00  0.00    +0.237 C 
ATOM     18  O   UNL     1       2.075   0.797   8.292  0.00  0.00    -0.271 OA
ATOM     19  N   UNL     1       2.762   0.953   6.181  0.00  0.00    -0.308 N 
ATOM     20  C   UNL     1       0.817   2.375   4.505  0.00  0.00    +0.017 C 
ATOM     21  H   UNL     1       3.572   1.421   6.429  0.00  0.00    +0.149 HD
ENDROOT
BRANCH  10  22
ATOM     22  C   UNL     1       0.580   0.467  -2.375  0.00  0.00    +0.310 C 
ATOM     23  O   UNL     1      -0.138   1.429  -2.238  0.00  0.00    -0.251 OA
BRANCH  22  24
ATOM     24  O   UNL     1       1.137   0.210  -3.569  0.00  0.00    -0.468 OA
ATOM     25  C   UNL     1       0.838   1.115  -4.633  0.00  0.00    +0.280 C 
ENDBRANCH  22  24
ENDBRANCH  10  22
TORSDOF 2
