REMARK  Name = ZINC40746768
REMARK  4 active torsions:
REMARK  status: ('A' for Active; 'I' for Inactive)
REMARK    1  A    between atoms: C_1  and  N_2
REMARK    2  A    between atoms: N_2  and  C_3
REMARK    3  A    between atoms: N_2  and  S_13
REMARK    4  A    between atoms: S_13  and  C_16
REMARK                            x       y       z     vdW  Elec       q    Type
REMARK                         _______ _______ _______ _____ _____    ______ ____
ROOT
ATOM      1  C   UNL     1      -0.018   1.461   0.010  0.00  0.00    +0.132 C 
ATOM      2  N   UNL     1       0.002  -0.004   0.002  0.00  0.00    -0.177 NA
ENDROOT
BRANCH   2   3
ATOM      3  C   UNL     1       0.024  -0.743   1.267  0.00  0.00    +0.076 C 
ATOM      4  C   UNL     1      -1.227  -0.399   2.080  0.00  0.00    +0.005 C 
ATOM      5  C   UNL     1      -1.120  -1.063   3.462  0.00  0.00    -0.070 C 
ATOM      6  C   UNL     1      -0.719  -2.540   3.248  0.00  0.00    -0.017 C 
ATOM      7  C   UNL     1       0.824  -2.532   3.227  0.00  0.00    -0.017 C 
ATOM      8  C   UNL     1       1.214  -1.050   3.431  0.00  0.00    -0.070 C 
ATOM      9  C   UNL     1       1.277  -0.360   2.059  0.00  0.00    +0.005 C 
ATOM     10  N   UNL     1       0.044  -0.450   4.156  0.00  0.00    +0.383 N 
ATOM     11  H   UNL     1       0.027   0.554   4.059  0.00  0.00    -0.085 HD
ATOM     12  H   UNL     1       0.056  -0.715   5.130  0.00  0.00    -0.085 HD
ENDBRANCH   2   3
BRANCH   2  13
ATOM     13  S   UNL     1      -0.000  -0.824  -1.437  0.00  0.00    +0.061 S 
ATOM     14  O   UNL     1      -0.531  -2.115  -1.167  0.00  0.00    -0.153 OA
ATOM     15  O   UNL     1      -0.572   0.049  -2.401  0.00  0.00    -0.153 OA
BRANCH  13  16
ATOM     16  C   UNL     1       1.682  -1.059  -1.905  0.00  0.00    +0.108 A 
ATOM     17  C   UNL     1       2.323  -0.109  -2.677  0.00  0.00    +0.048 A 
ATOM     18  C   UNL     1       3.644  -0.293  -3.046  0.00  0.00    +0.044 A 
ATOM     19  C   UNL     1       4.323  -1.429  -2.641  0.00  0.00    +0.040 A 
ATOM     20  C   UNL     1       3.680  -2.379  -1.868  0.00  0.00    +0.044 A 
ATOM     21  C   UNL     1       2.361  -2.192  -1.496  0.00  0.00    +0.048 A 
ATOM     22 CL   UNL     1       4.531  -3.805  -1.361  0.00  0.00    -0.083 Cl
ATOM     23 CL   UNL     1       4.449   0.900  -4.016  0.00  0.00    -0.083 Cl
ENDBRANCH  13  16
ENDBRANCH   2  13
TORSDOF 3
