REMARK  Name = ZINC20804039
REMARK  6 active torsions:
REMARK  status: ('A' for Active; 'I' for Inactive)
REMARK    1  A    between atoms: C_1  and  C_2
REMARK    2  A    between atoms: C_5  and  N_9
REMARK    3  A    between atoms: C_6  and  C_8
REMARK    4  A    between atoms: C_10  and  C_12
REMARK    5  A    between atoms: C_14  and  C_31
REMARK    6  A    between atoms: C_22  and  C_24
REMARK                            x       y       z     vdW  Elec       q    Type
REMARK                         _______ _______ _______ _____ _____    ______ ____
ROOT
ATOM      1  C   UNL     1       0.113   0.867  -0.944  0.00  0.00    +0.124 C 
ATOM      2  C   UNL     1       1.373   0.028  -0.706  0.00  0.00    +0.084 C 
ATOM      3  N   UNL     1       0.972  -1.377  -0.499  0.00  0.00    -0.310 N 
ATOM      4  C   UNL     1      -0.126  -1.587   0.325  0.00  0.00    +0.214 A 
ATOM      5  N   UNL     1      -0.564  -2.692   0.865  0.00  0.00    -0.202 NA
ATOM      6  C   UNL     1      -1.655  -2.432   1.592  0.00  0.00    +0.247 A 
ATOM      7  N   UNL     1      -1.925  -1.153   1.521  0.00  0.00    -0.156 NA
ATOM      8  N   UNL     1      -0.949  -0.580   0.705  0.00  0.00    -0.225 N 
ATOM      9  C   UNL     1      -0.786   0.815   0.297  0.00  0.00    +0.154 C 
ATOM     10  C   UNL     1       2.104   0.541   0.537  0.00  0.00    +0.028 C 
ATOM     11  H   UNL     1       1.535  -2.187  -0.986  0.00  0.00    +0.149 HD
ENDROOT
BRANCH   9  12
ATOM     12  C   UNL     1      -2.133   1.406  -0.030  0.00  0.00    -0.019 A 
ATOM     13  C   UNL     1      -3.054   0.670  -0.753  0.00  0.00    +0.006 A 
ATOM     14  C   UNL     1      -4.289   1.211  -1.055  0.00  0.00    +0.003 A 
ATOM     15  C   UNL     1      -4.607   2.488  -0.632  0.00  0.00    +0.038 A 
ATOM     16  C   UNL     1      -3.687   3.226   0.093  0.00  0.00    +0.124 A 
ATOM     17  C   UNL     1      -2.451   2.681   0.399  0.00  0.00    +0.044 A 
ATOM     18  F   UNL     1      -3.996   4.474   0.507  0.00  0.00    -0.205 F 
ENDBRANCH   9  12
BRANCH   1  20
ATOM     19  N   UNL     1      -0.977   1.131  -3.149  0.00  0.00    -0.285 N 
ATOM     20  C   UNL     1      -0.638   0.317  -2.130  0.00  0.00    +0.224 C 
ATOM     21  O   UNL     1      -0.937  -0.858  -2.167  0.00  0.00    -0.275 OA
ATOM     22  H   UNL     1      -0.641   2.178  -3.151  0.00  0.00    +0.155 HD
BRANCH  19  27
ATOM     23  C   UNL     1      -4.137  -0.845  -7.426  0.00  0.00    +0.044 C 
ATOM     24  C   UNL     1      -3.298  -0.320  -6.290  0.00  0.00    -0.050 A 
ATOM     25  C   UNL     1      -2.466  -1.177  -5.593  0.00  0.00    +0.005 A 
ATOM     26  C   UNL     1      -1.696  -0.700  -4.551  0.00  0.00    +0.024 A 
ATOM     27  C   UNL     1      -1.756   0.644  -4.204  0.00  0.00    +0.036 A 
ATOM     28  C   UNL     1      -2.597   1.501  -4.902  0.00  0.00    -0.029 A 
ATOM     29  C   UNL     1      -3.360   1.018  -5.947  0.00  0.00    +0.008 A 
ATOM     30  C   UNL     1      -2.671   2.958  -4.524  0.00  0.00    +0.045 C 
ENDBRANCH  19  27
ENDBRANCH   1  20
TORSDOF 3
