REMARK  Name = ZINC64394684
REMARK  3 active torsions:
REMARK  status: ('A' for Active; 'I' for Inactive)
REMARK    1  A    between atoms: C_4  and  N_7
REMARK    2  A    between atoms: C_13  and  C_15
REMARK    3  A    between atoms: N_18  and  C_20
REMARK                            x       y       z     vdW  Elec       q    Type
REMARK                         _______ _______ _______ _____ _____    ______ ____
ROOT
ATOM      1  N   UNL     1       3.632  -0.650  -0.269  0.00  0.00    -0.215 N 
ATOM      2  C   UNL     1       3.636  -2.031  -0.195  0.00  0.00    +0.163 C 
ATOM      3  N   UNL     1       2.631  -2.834  -0.389  0.00  0.00    -0.262 NA
ATOM      4  C   UNL     1       2.776  -4.271  -0.254  0.00  0.00    +0.155 C 
ATOM      5  C   UNL     1       4.269  -4.691  -0.327  0.00  0.00    +0.100 C 
ATOM      6  S   UNL     1       5.025  -3.089   0.178  0.00  0.00    -0.088 S 
ATOM      7  C   UNL     1       4.786   0.035  -0.146  0.00  0.00    +0.260 C 
ATOM      8  O   UNL     1       5.840  -0.563  -0.043  0.00  0.00    -0.269 OA
ENDROOT
BRANCH   1  12
ATOM      9  C   UNL     1       0.049   1.392  -0.870  0.00  0.00    +0.000 A 
ATOM     10  C   UNL     1       1.048   1.457  -1.823  0.00  0.00    +0.002 A 
ATOM     11  C   UNL     1       2.237   0.781  -1.627  0.00  0.00    +0.024 A 
ATOM     12  C   UNL     1       2.427   0.036  -0.471  0.00  0.00    +0.043 A 
ATOM     13  C   UNL     1       1.422  -0.027   0.485  0.00  0.00    +0.024 A 
ATOM     14  C   UNL     1       0.235   0.651   0.283  0.00  0.00    +0.002 A 
ENDBRANCH   1  12
BRANCH   7  15
ATOM     15  C   UNL     1       4.770   1.508  -0.137  0.00  0.00    +0.075 A 
ATOM     16  C   UNL     1       3.624   2.335  -0.114  0.00  0.00    +0.147 A 
ATOM     17  N   UNL     1       4.022   3.578  -0.112  0.00  0.00    -0.174 NA
ATOM     18  N   UNL     1       5.421   3.607  -0.134  0.00  0.00    -0.238 N 
ATOM     19  C   UNL     1       5.873   2.340  -0.144  0.00  0.00    +0.127 A 
BRANCH  18  20
ATOM     20  C   UNL     1       6.217   4.761  -0.139  0.00  0.00    +0.084 A 
ATOM     21  C   UNL     1       7.601   4.652  -0.168  0.00  0.00    +0.029 A 
ATOM     22  C   UNL     1       8.382   5.790  -0.173  0.00  0.00    +0.002 A 
ATOM     23  C   UNL     1       7.788   7.039  -0.149  0.00  0.00    +0.002 A 
ATOM     24  C   UNL     1       6.410   7.152  -0.120  0.00  0.00    +0.022 A 
ATOM     25  C   UNL     1       5.622   6.016  -0.121  0.00  0.00    +0.066 A 
ATOM     26 CL   UNL     1       3.892   6.159  -0.092  0.00  0.00    -0.081 Cl
ENDBRANCH  18  20
ENDBRANCH   7  15
TORSDOF 3
