REMARK  Name = ZINC49303133
REMARK  7 active torsions:
REMARK  status: ('A' for Active; 'I' for Inactive)
REMARK    1  A    between atoms: C_1  and  C_2
REMARK    2  A    between atoms: C_2  and  C_4
REMARK    3  A    between atoms: C_2  and  N_14
REMARK    4  A    between atoms: C_8  and  S_10
REMARK    5  A    between atoms: S_10  and  N_13
REMARK    6  A    between atoms: C_15  and  C_17
REMARK    7  A    between atoms: N_19  and  C_20
REMARK                            x       y       z     vdW  Elec       q    Type
REMARK                         _______ _______ _______ _____ _____    ______ ____
ROOT
ATOM      1  N   UNL     1      -1.365  -0.533   0.013  0.00  0.00    -0.301 N 
ATOM      2  C   UNL     1      -2.023  -0.672   1.181  0.00  0.00    +0.300 C 
ATOM      3  O   UNL     1      -1.474  -0.385   2.225  0.00  0.00    -0.265 OA
ATOM      4  H   UNL     1      -1.804  -0.762  -0.821  0.00  0.00    +0.150 HD
ENDROOT
BRANCH   2   5
ATOM      5  C   UNL     1      -3.428  -1.178   1.192  0.00  0.00    +0.303 C 
ATOM      6  O   UNL     1      -3.978  -1.465   0.148  0.00  0.00    -0.265 OA
ATOM      7  N   UNL     1      -4.086  -1.316   2.360  0.00  0.00    -0.276 N 
ATOM      8  H   UNL     1      -3.627  -1.150   3.198  0.00  0.00    +0.155 HD
BRANCH   7   9
ATOM      9  C   UNL     1      -5.431  -1.700   2.364  0.00  0.00    +0.052 A 
ATOM     10  C   UNL     1      -5.904  -2.588   1.406  0.00  0.00    +0.027 A 
ATOM     11  C   UNL     1      -7.232  -2.966   1.411  0.00  0.00    +0.040 A 
ATOM     12  C   UNL     1      -8.093  -2.459   2.371  0.00  0.00    +0.125 A 
ATOM     13  C   UNL     1      -7.625  -1.574   3.327  0.00  0.00    +0.060 A 
ATOM     14  C   UNL     1      -6.295  -1.198   3.329  0.00  0.00    +0.065 A 
ATOM     15 CL   UNL     1      -5.707  -0.094   4.533  0.00  0.00    -0.082 Cl
ATOM     16  F   UNL     1      -9.393  -2.830   2.373  0.00  0.00    -0.205 F 
ENDBRANCH   7   9
ENDBRANCH   2   5
BRANCH   1  18
ATOM     17  C   UNL     1       0.004   1.493   0.011  0.00  0.00    +0.033 C 
ATOM     18  C   UNL     1       0.013  -0.037   0.003  0.00  0.00    +0.101 C 
BRANCH  18  19
ATOM     19  C   UNL     1       0.715  -0.529  -1.236  0.00  0.00    -0.026 A 
ATOM     20  C   UNL     1       0.046  -0.556  -2.445  0.00  0.00    +0.005 A 
ATOM     21  C   UNL     1       0.690  -1.007  -3.582  0.00  0.00    +0.002 A 
ATOM     22  C   UNL     1       2.004  -1.431  -3.510  0.00  0.00    +0.028 A 
ATOM     23  C   UNL     1       2.673  -1.403  -2.301  0.00  0.00    +0.105 A 
ATOM     24  C   UNL     1       2.030  -0.948  -1.165  0.00  0.00    +0.034 A 
BRANCH  23  25
ATOM     25  S   UNL     1       4.348  -1.944  -2.209  0.00  0.00    +0.056 S 
ATOM     26  O   UNL     1       4.576  -2.331  -0.861  0.00  0.00    -0.153 OA
ATOM     27  O   UNL     1       4.549  -2.831  -3.301  0.00  0.00    -0.153 OA
BRANCH  25  28
ATOM     28  N   UNL     1       5.305  -0.622  -2.490  0.00  0.00    -0.204 NA
ATOM     29  H   UNL     1       4.900   0.242  -2.662  0.00  0.00    +0.144 HD
ATOM     30  H   UNL     1       6.271  -0.713  -2.482  0.00  0.00    +0.144 HD
ENDBRANCH  25  28
ENDBRANCH  23  25
ENDBRANCH  18  19
ENDBRANCH   1  18
TORSDOF 6
