REMARK  Name = ZINC59890932
REMARK  10 active torsions:
REMARK  status: ('A' for Active; 'I' for Inactive)
REMARK    1  A    between atoms: C_1  and  C_2
REMARK    2  A    between atoms: C_7  and  C_9
REMARK    3  A    between atoms: C_7  and  N_24
REMARK    4  A    between atoms: C_9  and  N_10
REMARK    5  A    between atoms: C_11  and  C_13
REMARK    6  A    between atoms: C_15  and  S_22
REMARK    7  A    between atoms: C_18  and  N_19
REMARK    8  A    between atoms: S_22  and  C_23
REMARK    9  A    between atoms: N_24  and  C_25
REMARK   10  A    between atoms: N_24  and  C_26
REMARK                            x       y       z     vdW  Elec       q    Type
REMARK                         _______ _______ _______ _____ _____    ______ ____
ROOT
ATOM      1  N   UNL     1      -1.134  -3.965   0.580  0.00  0.00    -0.313 N 
ATOM      2  C   UNL     1      -2.128  -4.843   0.818  0.00  0.00    +0.246 C 
ATOM      3  O   UNL     1      -3.273  -4.450   0.929  0.00  0.00    -0.270 OA
ATOM      4  H   UNL     1      -0.221  -4.278   0.491  0.00  0.00    +0.149 HD
ENDROOT
BRANCH   2   5
ATOM      5  C   UNL     1      -1.826  -6.285   0.942  0.00  0.00    +0.068 A 
ATOM      6  C   UNL     1      -1.152  -6.950  -0.082  0.00  0.00    +0.030 A 
ATOM      7  C   UNL     1      -0.872  -8.303   0.042  0.00  0.00    +0.008 A 
ATOM      8  C   UNL     1      -1.264  -8.991   1.185  0.00  0.00    +0.017 A 
ATOM      9  C   UNL     1      -1.931  -8.332   2.200  0.00  0.00    +0.034 A 
ATOM     10  C   UNL     1      -2.210  -6.985   2.088  0.00  0.00    +0.138 A 
BRANCH  10  11
ATOM     11  N   UNL     1      -2.920  -6.282   3.180  0.00  0.00    +0.057 N 
ATOM     12  O   UNL     1      -3.354  -6.908   4.119  0.00  0.00    -0.126 OA
ATOM     13  O   UNL     1      -3.067  -5.083   3.133  0.00  0.00    -0.126 OA
ENDBRANCH  10  11
BRANCH   7  14
ATOM     14  S   UNL     1      -0.022  -9.149  -1.248  0.00  0.00    -0.129 S 
ATOM     15  C   UNL     1       0.110 -10.854  -0.643  0.00  0.00    +0.090 C 
ENDBRANCH   7  14
ENDBRANCH   2   5
BRANCH   1  16
ATOM     16  C   UNL     1      -1.433  -2.536   0.457  0.00  0.00    +0.092 C 
BRANCH  16  22
ATOM     17  C   UNL     1      -1.812   1.573  -0.847  0.00  0.00    +0.007 C 
ATOM     18  C   UNL     1      -1.541   0.068  -0.882  0.00  0.00    -0.015 C 
ATOM     19  C   UNL     1      -1.106  -0.339  -2.291  0.00  0.00    +0.003 C 
ATOM     20  C   UNL     1      -0.835  -1.844  -2.327  0.00  0.00    -0.001 C 
ATOM     21  C   UNL     1       0.276  -2.186  -1.332  0.00  0.00    -0.010 C 
ATOM     22  C   UNL     1      -0.159  -1.779   0.078  0.00  0.00    -0.050 C 
ATOM     23  C   UNL     1      -0.430  -0.274   0.113  0.00  0.00    -0.007 C 
BRANCH  22  24
ATOM     24  N   UNL     1       0.908  -2.107   1.033  0.00  0.00    +0.381 N 
ATOM     25  C   UNL     1       2.109  -1.323   0.714  0.00  0.00    -0.096 C 
ATOM     26  C   UNL     1       0.461  -1.785   2.395  0.00  0.00    -0.096 C 
ATOM     27  H   UNL     1       1.123  -3.091   0.973  0.00  0.00    -0.082 HD
ENDBRANCH  22  24
ENDBRANCH  16  22
ENDBRANCH   1  16
TORSDOF 6
