REMARK  Name = ZINC39948151
REMARK  3 active torsions:
REMARK  status: ('A' for Active; 'I' for Inactive)
REMARK    1  A    between atoms: C_4  and  C_8
REMARK    2  A    between atoms: N_9  and  N_10
REMARK    3  A    between atoms: C_11  and  C_13
REMARK                            x       y       z     vdW  Elec       q    Type
REMARK                         _______ _______ _______ _____ _____    ______ ____
ROOT
ATOM      1  N   UNL     1       4.941  -2.660  -0.062  0.00  0.00    -0.202 N 
ATOM      2  C   UNL     1       4.963  -4.008  -0.069  0.00  0.00    +0.283 C 
ATOM      3  O   UNL     1       3.920  -4.633  -0.062  0.00  0.00    -0.267 OA
ATOM      4  H   UNL     1       5.773  -2.161  -0.068  0.00  0.00    +0.178 HD
ENDROOT
BRANCH   2   5
ATOM      5  C   UNL     1       6.254  -4.725  -0.086  0.00  0.00    +0.150 C 
ATOM      6  C   UNL     1       6.390  -6.050  -0.100  0.00  0.00    -0.011 C 
ATOM      7  C   UNL     1       5.878  -7.448   0.127  0.00  0.00    +0.035 C 
ATOM      8  C   UNL     1       7.058  -8.231   0.750  0.00  0.00    +0.007 C 
ATOM      9  C   UNL     1       8.258  -7.247   0.763  0.00  0.00    +0.033 C 
ATOM     10  C   UNL     1       7.889  -6.253  -0.349  0.00  0.00    +0.156 C 
ATOM     11  N   UNL     1       8.432  -4.913  -0.186  0.00  0.00    -0.179 NA
ATOM     12  N   UNL     1       7.480  -4.125  -0.096  0.00  0.00    -0.149 NA
ENDBRANCH   2   5
BRANCH   1  14
ATOM     13  C   UNL     1       3.695  -0.682  -0.038  0.00  0.00    +0.141 C 
ATOM     14  N   UNL     1       3.716  -1.980  -0.046  0.00  0.00    -0.187 NA
BRANCH  13  18
ATOM     15  C   UNL     1      -0.017   1.379   0.010  0.00  0.00    +0.003 A 
ATOM     16  C   UNL     1       1.168   2.095   0.002  0.00  0.00    +0.021 A 
ATOM     17  C   UNL     1       2.378   1.431  -0.013  0.00  0.00    +0.051 A 
ATOM     18  C   UNL     1       2.406   0.034  -0.021  0.00  0.00    +0.031 A 
ATOM     19  C   UNL     1       1.205  -0.682  -0.013  0.00  0.00    +0.051 A 
ATOM     20  C   UNL     1       0.002  -0.004   0.002  0.00  0.00    +0.021 A 
ATOM     21 CL   UNL     1       1.226  -2.417  -0.023  0.00  0.00    -0.083 Cl
ATOM     22 CL   UNL     1       3.863   2.331  -0.024  0.00  0.00    -0.083 Cl
ENDBRANCH  13  18
ENDBRANCH   1  14
TORSDOF 3
