REMARK  Name = ZINC22036148
REMARK  4 active torsions:
REMARK  status: ('A' for Active; 'I' for Inactive)
REMARK    1  A    between atoms: C_1  and  N_2
REMARK    2  A    between atoms: N_5  and  C_8
REMARK    3  A    between atoms: C_13  and  C_14
REMARK    4  A    between atoms: C_13  and  C_16
REMARK                            x       y       z     vdW  Elec       q    Type
REMARK                         _______ _______ _______ _____ _____    ______ ____
ROOT
ATOM      1  C   UNL     1       1.249  -3.954  -0.070  0.00  0.00    -0.009 C 
ATOM      2  C   UNL     1       2.393  -4.631  -0.115  0.00  0.00    +0.021 C 
ATOM      3  C   UNL     1       2.425  -6.047  -0.126  0.00  0.00    -0.043 C 
ATOM      4  C   UNL     1       3.620  -6.691  -0.177  0.00  0.00    +0.009 C 
ATOM      5  C   UNL     1       3.705  -8.085  -0.206  0.00  0.00    -0.019 C 
ATOM      6  C   UNL     1       4.950  -8.695  -0.253  0.00  0.00    +0.131 C 
ATOM      7  C   UNL     1       2.461  -8.934  -0.188  0.00  0.00    +0.038 C 
ATOM      8  C   UNL     1       1.312  -8.149  -0.830  0.00  0.00    +0.013 C 
ATOM      9  C   UNL     1       1.137  -6.828  -0.079  0.00  0.00    +0.020 C 
ATOM     10  C   UNL     1       0.028  -6.006  -0.742  0.00  0.00    +0.014 C 
ATOM     11  C   UNL     1      -0.081  -4.657  -0.018  0.00  0.00    +0.049 C 
ENDROOT
BRANCH   1  16
ATOM     12  C   UNL     1      -0.018   1.465   0.010  0.00  0.00    +0.105 C 
ATOM     13  N   UNL     1       0.002  -0.004   0.002  0.00  0.00    -0.302 NA
ATOM     14  C   UNL     1       0.605  -0.516  -1.237  0.00  0.00    +0.101 C 
ATOM     15  C   UNL     1       0.553  -2.045  -1.232  0.00  0.00    +0.100 C 
ATOM     16  N   UNL     1       1.282  -2.557  -0.064  0.00  0.00    -0.394 NA
ATOM     17  C   UNL     1       0.653  -2.057   1.165  0.00  0.00    +0.100 C 
ATOM     18  C   UNL     1       0.707  -0.528   1.181  0.00  0.00    +0.101 C 
ATOM     19  H   UNL     1       2.241  -2.244  -0.103  0.00  0.00    +0.126 HD
ENDBRANCH   1  16
BRANCH   6  20
ATOM     20  C   UNL     1       6.138  -7.896  -0.271  0.00  0.00    +0.110 C 
ATOM     21  N   UNL     1       7.081  -7.262  -0.285  0.00  0.00    -0.190 NA
ENDBRANCH   6  20
BRANCH   6  22
ATOM     22  C   UNL     1       5.046 -10.123  -0.284  0.00  0.00    +0.110 C 
ATOM     23  N   UNL     1       5.123 -11.256  -0.308  0.00  0.00    -0.190 NA
ENDBRANCH   6  22
TORSDOF 3
