REMARK  Name = ZINC11804462
REMARK  8 active torsions:
REMARK  status: ('A' for Active; 'I' for Inactive)
REMARK    1  A    between atoms: C_3  and  O_20
REMARK    2  A    between atoms: C_6  and  C_7
REMARK    3  A    between atoms: C_7  and  C_8
REMARK    4  A    between atoms: C_8  and  N_9
REMARK    5  A    between atoms: N_9  and  S_10
REMARK    6  A    between atoms: S_10  and  C_13
REMARK    7  A    between atoms: C_16  and  N_19
REMARK    8  A    between atoms: O_20  and  C_21
REMARK                            x       y       z     vdW  Elec       q    Type
REMARK                         _______ _______ _______ _____ _____    ______ ____
ROOT
ATOM      1  C   UNL     1       2.341  -3.498  -3.677  0.00  0.00    +0.052 C 
ENDROOT
BRANCH   1   7
ATOM      2  C   UNL     1       3.344  -2.210  -5.573  0.00  0.00    +0.007 A 
ATOM      3  C   UNL     1       4.403  -1.900  -6.405  0.00  0.00    +0.046 A 
ATOM      4  C   UNL     1       5.615  -2.558  -6.257  0.00  0.00    +0.128 A 
ATOM      5  C   UNL     1       5.763  -3.522  -5.270  0.00  0.00    +0.046 A 
ATOM      6  C   UNL     1       4.703  -3.825  -4.438  0.00  0.00    +0.007 A 
ATOM      7  C   UNL     1       3.496  -3.167  -4.587  0.00  0.00    -0.046 A 
BRANCH   4   8
ATOM      8  O   UNL     1       6.657  -2.259  -7.078  0.00  0.00    -0.456 OA
BRANCH   8   9
ATOM      9  C   UNL     1       7.070  -3.210  -7.957  0.00  0.00    +0.129 A 
ATOM     10  C   UNL     1       6.359  -4.395  -8.084  0.00  0.00    +0.049 A 
ATOM     11  C   UNL     1       6.777  -5.357  -8.982  0.00  0.00    +0.042 A 
ATOM     12  C   UNL     1       7.911  -5.145  -9.747  0.00  0.00    +0.124 A 
ATOM     13  C   UNL     1       8.625  -3.966  -9.617  0.00  0.00    +0.042 A 
ATOM     14  C   UNL     1       8.206  -2.999  -8.724  0.00  0.00    +0.049 A 
ATOM     15  F   UNL     1       8.322  -6.090 -10.621  0.00  0.00    -0.205 F 
ENDBRANCH   8   9
ENDBRANCH   4   8
ENDBRANCH   1   7
BRANCH   1  16
ATOM     16  C   UNL     1       2.389  -2.595  -2.443  0.00  0.00    +0.110 C 
BRANCH  16  17
ATOM     17  N   UNL     1       1.267  -2.917  -1.558  0.00  0.00    -0.190 NA
ATOM     18  H   UNL     1       0.526  -3.447  -1.888  0.00  0.00    +0.148 HD
BRANCH  17  19
ATOM     19  S   UNL     1       1.264  -2.374   0.007  0.00  0.00    +0.058 S 
ATOM     20  O   UNL     1       2.535  -2.700   0.552  0.00  0.00    -0.153 OA
ATOM     21  O   UNL     1       0.048  -2.822   0.590  0.00  0.00    -0.153 OA
BRANCH  19  22
ATOM     22  C   UNL     1       1.178  -0.615  -0.051  0.00  0.00    +0.105 A 
ATOM     23  C   UNL     1      -0.053   0.015  -0.056  0.00  0.00    +0.030 A 
ATOM     24  C   UNL     1      -0.124   1.393  -0.102  0.00  0.00    +0.024 A 
ATOM     25  C   UNL     1       1.042   2.147  -0.143  0.00  0.00    +0.025 A 
ATOM     26  C   UNL     1       2.277   1.510  -0.137  0.00  0.00    +0.024 A 
ATOM     27  C   UNL     1       2.341   0.132  -0.092  0.00  0.00    +0.030 A 
BRANCH  25  28
ATOM     28  N   UNL     1       0.973   3.541  -0.190  0.00  0.00    -0.358 N 
ATOM     29  H   UNL     1       0.111   3.984  -0.193  0.00  0.00    +0.142 HD
ATOM     30  H   UNL     1       1.789   4.066  -0.218  0.00  0.00    +0.142 HD
ENDBRANCH  25  28
ENDBRANCH  19  22
ENDBRANCH  17  19
ENDBRANCH  16  17
ENDBRANCH   1  16
TORSDOF 8
