REMARK  Name = ZINC60191092
REMARK  6 active torsions:
REMARK  status: ('A' for Active; 'I' for Inactive)
REMARK    1  A    between atoms: C_1  and  C_2
REMARK    2  A    between atoms: C_5  and  N_8
REMARK    3  A    between atoms: C_9  and  C_30
REMARK    4  A    between atoms: C_11  and  C_17
REMARK    5  A    between atoms: N_19  and  C_20
REMARK    6  A    between atoms: C_23  and  N_27
REMARK                            x       y       z     vdW  Elec       q    Type
REMARK                         _______ _______ _______ _____ _____    ______ ____
ROOT
ATOM      1  N   UNL     1       0.081  -4.175  -0.027  0.00  0.00    -0.263 N 
ATOM      2  C   UNL     1       0.177  -4.858   1.257  0.00  0.00    +0.130 C 
ATOM      3  C   UNL     1      -0.267  -6.315   1.123  0.00  0.00    +0.101 C 
ATOM      4  C   UNL     1       0.484  -6.951  -0.054  0.00  0.00    +0.024 C 
ATOM      5  C   UNL     1      -0.002  -6.294  -1.349  0.00  0.00    +0.097 C 
ATOM      6  C   UNL     1       0.017  -4.800  -1.203  0.00  0.00    +0.220 C 
ATOM      7  O   UNL     1      -0.025  -4.125  -2.210  0.00  0.00    -0.275 OA
ENDROOT
BRANCH   1  12
ATOM      8  C   UNL     1      -0.054   1.496  -0.016  0.00  0.00    +0.044 C 
ATOM      9  C   UNL     1      -0.018  -0.010  -0.019  0.00  0.00    -0.050 A 
ATOM     10  C   UNL     1      -1.035  -0.723  -0.627  0.00  0.00    +0.005 A 
ATOM     11  C   UNL     1      -1.006  -2.104  -0.631  0.00  0.00    +0.024 A 
ATOM     12  C   UNL     1       0.048  -2.776  -0.025  0.00  0.00    +0.037 A 
ATOM     13  C   UNL     1       1.068  -2.057   0.584  0.00  0.00    +0.024 A 
ATOM     14  C   UNL     1       1.034  -0.676   0.581  0.00  0.00    +0.005 A 
ENDBRANCH   1  12
BRANCH   2  15
ATOM     15  C   UNL     1      -0.709  -4.163   2.259  0.00  0.00    +0.011 A 
ATOM     16  C   UNL     1      -0.470  -3.892   3.566  0.00  0.00    +0.013 A 
ATOM     17  C   UNL     1      -1.439  -3.235   4.301  0.00  0.00    +0.008 A 
ATOM     18  C   UNL     1      -2.598  -2.881   3.694  0.00  0.00    +0.045 A 
ATOM     19  S   UNL     1      -2.340  -3.474   2.030  0.00  0.00    -0.100 S 
ENDBRANCH   2  15
BRANCH   3  20
ATOM     20  C   UNL     1       0.053  -7.061   2.393  0.00  0.00    +0.223 C 
ATOM     21  O   UNL     1       0.585  -6.483   3.317  0.00  0.00    -0.275 OA
ATOM     22  N   UNL     1      -0.251  -8.369   2.501  0.00  0.00    -0.283 N 
ATOM     23  H   UNL     1      -0.626  -8.844   1.744  0.00  0.00    +0.155 HD
BRANCH  22  24
ATOM     24  C   UNL     1      -0.026  -9.043   3.708  0.00  0.00    +0.069 A 
ATOM     25  C   UNL     1       0.947  -8.588   4.588  0.00  0.00    +0.028 A 
ATOM     26  C   UNL     1       1.166  -9.253   5.778  0.00  0.00    +0.035 A 
ATOM     27  C   UNL     1       0.418 -10.373   6.095  0.00  0.00    +0.129 A 
ATOM     28  C   UNL     1      -0.551 -10.830   5.222  0.00  0.00    +0.073 A 
ATOM     29  C   UNL     1      -0.780 -10.165   4.031  0.00  0.00    +0.147 A 
ATOM     30  F   UNL     1      -1.732 -10.608   3.181  0.00  0.00    -0.203 F 
BRANCH  27  31
ATOM     31  N   UNL     1       0.657 -11.083   7.372  0.00  0.00    +0.057 N 
ATOM     32  O   UNL     1       1.505 -10.685   8.136  0.00  0.00    -0.126 OA
ATOM     33  O   UNL     1       0.004 -12.062   7.650  0.00  0.00    -0.126 OA
ENDBRANCH  27  31
ENDBRANCH  22  24
ENDBRANCH   3  20
TORSDOF 5
