REMARK  Name = ZINC25894855
REMARK  10 active torsions:
REMARK  status: ('A' for Active; 'I' for Inactive)
REMARK    1  A    between atoms: C_1  and  C_2
REMARK    2  A    between atoms: C_3  and  S_8
REMARK    3  A    between atoms: C_4  and  C_7
REMARK    4  A    between atoms: S_8  and  N_11
REMARK    5  A    between atoms: C_17  and  C_19
REMARK    6  A    between atoms: C_20  and  C_21
REMARK    7  A    between atoms: C_24  and  C_27
REMARK    8  A    between atoms: C_27  and  C_28
REMARK    9  A    between atoms: C_27  and  C_29
REMARK   10  A    between atoms: C_27  and  C_30
REMARK                            x       y       z     vdW  Elec       q    Type
REMARK                         _______ _______ _______ _____ _____    ______ ____
ROOT
ATOM      1  N   UNL     1       2.283   3.183   2.634  0.00  0.00    -0.173 NA
ATOM      2  C   UNL     1       2.890   3.445   1.321  0.00  0.00    +0.128 C 
ATOM      3  C   UNL     1       2.251   4.716   0.737  0.00  0.00    +0.125 C 
ATOM      4  N   UNL     1       2.289   5.772   1.758  0.00  0.00    -0.295 N 
ATOM      5  C   UNL     1       1.687   5.508   3.072  0.00  0.00    +0.125 C 
ATOM      6  C   UNL     1       2.321   4.239   3.656  0.00  0.00    +0.128 C 
ATOM      7  C   UNL     1       2.866   6.961   1.494  0.00  0.00    +0.240 C 
ATOM      8  O   UNL     1       2.810   7.859   2.313  0.00  0.00    -0.271 OA
ENDROOT
BRANCH   1   9
ATOM      9  S   UNL     1       1.576   1.721   2.959  0.00  0.00    +0.066 S 
ATOM     10  O   UNL     1       1.608   1.559   4.370  0.00  0.00    -0.153 OA
ATOM     11  O   UNL     1       2.162   0.780   2.071  0.00  0.00    -0.153 OA
BRANCH   9  14
ATOM     12  C   UNL     1      -0.009   1.083   0.012  0.00  0.00    +0.071 C 
ATOM     13  C   UNL     1      -0.713   1.568   1.253  0.00  0.00    +0.107 A 
ATOM     14  C   UNL     1      -0.122   1.852   2.506  0.00  0.00    +0.170 A 
ATOM     15  C   UNL     1      -1.163   2.249   3.276  0.00  0.00    +0.161 A 
ATOM     16  O   UNL     1      -2.254   2.188   2.501  0.00  0.00    -0.358 OA
ATOM     17  N   UNL     1      -1.984   1.814   1.383  0.00  0.00    -0.081 NA
ATOM     18  C   UNL     1      -1.105   2.674   4.721  0.00  0.00    +0.091 C 
ENDBRANCH   9  14
ENDBRANCH   1   9
BRANCH   7  19
ATOM     19  C   UNL     1       3.559   7.172   0.222  0.00  0.00    +0.068 C 
ATOM     20  C   UNL     1       4.223   8.324  -0.001  0.00  0.00    +0.013 C 
BRANCH  20  21
ATOM     21  C   UNL     1       4.920   8.536  -1.280  0.00  0.00    -0.025 A 
ATOM     22  C   UNL     1       4.901   7.543  -2.264  0.00  0.00    +0.008 A 
ATOM     23  C   UNL     1       5.552   7.750  -3.462  0.00  0.00    +0.005 A 
ATOM     24  C   UNL     1       6.233   8.934  -3.687  0.00  0.00    -0.042 A 
ATOM     25  C   UNL     1       6.261   9.920  -2.716  0.00  0.00    +0.005 A 
ATOM     26  C   UNL     1       5.610   9.729  -1.515  0.00  0.00    +0.008 A 
BRANCH  24  27
ATOM     27  C   UNL     1       6.947   9.151  -4.996  0.00  0.00    -0.013 C 
ATOM     28  C   UNL     1       8.438   9.372  -4.733  0.00  0.00    +0.015 C 
ATOM     29  C   UNL     1       6.763   7.922  -5.888  0.00  0.00    +0.015 C 
ATOM     30  C   UNL     1       6.365  10.381  -5.697  0.00  0.00    +0.015 C 
ENDBRANCH  24  27
ENDBRANCH  20  21
ENDBRANCH   7  19
TORSDOF 5
