REMARK  Name = ZINC66567514
REMARK  17 active torsions:
REMARK  status: ('A' for Active; 'I' for Inactive)
REMARK    1  A    between atoms: C_1  and  C_2
REMARK    2  A    between atoms: C_2  and  C_4
REMARK    3  A    between atoms: C_2  and  N_14
REMARK    4  A    between atoms: N_6  and  C_7
REMARK    5  A    between atoms: C_7  and  C_8
REMARK    6  A    between atoms: C_7  and  C_9
REMARK    7  A    between atoms: C_7  and  C_11
REMARK    8  A    between atoms: C_11  and  C_12
REMARK    9  A    between atoms: C_11  and  C_13
REMARK   10  A    between atoms: C_17  and  C_20
REMARK   11  A    between atoms: C_17  and  N_21
REMARK   12  A    between atoms: N_21  and  C_22
REMARK   13  A    between atoms: C_23  and  O_25
REMARK   14  A    between atoms: O_25  and  C_26
REMARK   15  A    between atoms: C_26  and  C_27
REMARK   16  A    between atoms: C_26  and  C_28
REMARK   17  A    between atoms: C_26  and  C_29
REMARK                            x       y       z     vdW  Elec       q    Type
REMARK                         _______ _______ _______ _____ _____    ______ ____
ROOT
ATOM      1  N   UNL     1       0.754  -1.522  -1.591  0.00  0.00    +0.387 N 
ATOM      2  C   UNL     1       0.151  -1.126  -2.870  0.00  0.00    -0.076 C 
ATOM      3  C   UNL     1       0.132  -2.324  -3.821  0.00  0.00    +0.007 C 
ATOM      4  C   UNL     1      -0.691  -3.453  -3.195  0.00  0.00    +0.034 C 
ATOM      5  C   UNL     1      -0.097  -3.807  -1.829  0.00  0.00    +0.007 C 
ATOM      6  C   UNL     1      -0.069  -2.554  -0.951  0.00  0.00    -0.076 C 
ATOM      7  C   UNL     1      -0.649  -4.683  -4.105  0.00  0.00    +0.032 C 
ATOM      8  H   UNL     1       1.680  -1.886  -1.757  0.00  0.00    -0.081 HD
ENDROOT
BRANCH   4   9
ATOM      9  N   UNL     1      -2.078  -3.014  -3.027  0.00  0.00    -0.265 N 
ATOM     10  C   UNL     1      -2.727  -3.121  -1.718  0.00  0.00    +0.136 C 
ATOM     11  C   UNL     1      -2.757  -2.511  -4.077  0.00  0.00    +0.404 C 
ATOM     12  O   UNL     1      -2.219  -2.422  -5.163  0.00  0.00    -0.226 OA
BRANCH  11  13
ATOM     13  O   UNL     1      -4.032  -2.107  -3.923  0.00  0.00    -0.445 OA
BRANCH  13  14
ATOM     14  C   UNL     1      -4.692  -1.584  -5.078  0.00  0.00    +0.107 C 
ATOM     15  C   UNL     1      -4.729  -2.653  -6.172  0.00  0.00    +0.055 C 
ATOM     16  C   UNL     1      -6.121  -1.180  -4.710  0.00  0.00    +0.055 C 
ATOM     17  C   UNL     1      -3.931  -0.358  -5.588  0.00  0.00    +0.055 C 
ENDBRANCH  13  14
ENDBRANCH  11  13
ENDBRANCH   4   9
BRANCH   1  19
ATOM     18  C   UNL     1       1.598   0.771  -1.424  0.00  0.00    -0.004 C 
ATOM     19  C   UNL     1       0.841  -0.350  -0.709  0.00  0.00    +0.016 C 
BRANCH  19  20
ATOM     20  C   UNL     1       1.574  -0.725   0.553  0.00  0.00    +0.200 C 
ATOM     21  O   UNL     1       2.400  -1.613   0.533  0.00  0.00    -0.278 OA
ATOM     22  N   UNL     1       1.312  -0.074   1.703  0.00  0.00    -0.299 N 
ATOM     23  H   UNL     1       0.652   0.637   1.719  0.00  0.00    +0.150 HD
BRANCH  22  24
ATOM     24  C   UNL     1       2.025  -0.438   2.930  0.00  0.00    +0.121 C 
ATOM     25  C   UNL     1       3.528  -0.237   2.726  0.00  0.00    +0.048 C 
BRANCH  24  26
ATOM     26  C   UNL     1       1.544   0.447   4.082  0.00  0.00    +0.020 C 
ATOM     27  C   UNL     1       0.070   0.155   4.368  0.00  0.00    +0.010 C 
ATOM     28  C   UNL     1       2.374   0.153   5.332  0.00  0.00    +0.010 C 
ENDBRANCH  24  26
BRANCH  24  29
ATOM     29  C   UNL     1       1.758  -1.849   3.252  0.00  0.00    +0.088 C 
ATOM     30  N   UNL     1       1.552  -2.939   3.500  0.00  0.00    -0.194 NA
ENDBRANCH  24  29
ENDBRANCH  22  24
ENDBRANCH  19  20
ENDBRANCH   1  19
TORSDOF 8
