REMARK  Name = ZINC00218200
REMARK  4 active torsions:
REMARK  status: ('A' for Active; 'I' for Inactive)
REMARK    1  A    between atoms: C_4  and  N_7
REMARK    2  A    between atoms: C_10  and  C_15
REMARK    3  A    between atoms: C_15  and  C_16
REMARK    4  A    between atoms: C_21  and  O_22
REMARK                            x       y       z     vdW  Elec       q    Type
REMARK                         _______ _______ _______ _____ _____    ______ ____
ROOT
ATOM      1  N   UNL     1       3.623  -0.652  -0.037  0.00  0.00    -0.220 N 
ATOM      2  C   UNL     1       3.744  -1.992   0.046  0.00  0.00    +0.246 C 
ATOM      3  O   UNL     1       2.849  -2.803   0.145  0.00  0.00    -0.273 OA
ATOM      4  C   UNL     1       5.232  -2.273  -0.011  0.00  0.00    +0.163 C 
ATOM      5  N   UNL     1       5.834  -0.934  -0.132  0.00  0.00    -0.314 N 
ATOM      6  C   UNL     1       4.816  -0.055  -0.143  0.00  0.00    +0.144 C 
ATOM      7  S   UNL     1       5.023   1.640  -0.275  0.00  0.00    -0.018 S 
ATOM      8  H   UNL     1       6.779  -0.727  -0.194  0.00  0.00    +0.149 HD
ENDROOT
BRANCH   1  12
ATOM      9  C   UNL     1      -0.017   1.377   0.011  0.00  0.00    +0.000 A 
ATOM     10  C   UNL     1       0.749   1.362  -1.141  0.00  0.00    +0.002 A 
ATOM     11  C   UNL     1       1.956   0.690  -1.159  0.00  0.00    +0.024 A 
ATOM     12  C   UNL     1       2.399   0.031  -0.021  0.00  0.00    +0.043 A 
ATOM     13  C   UNL     1       1.628   0.049   1.133  0.00  0.00    +0.024 A 
ATOM     14  C   UNL     1       0.422   0.722   1.146  0.00  0.00    +0.002 A 
ENDBRANCH   1  12
BRANCH   4  15
ATOM     15  C   UNL     1       5.571  -3.131  -1.232  0.00  0.00    +0.070 C 
BRANCH  15  16
ATOM     16  C   UNL     1       7.033  -3.498  -1.199  0.00  0.00    -0.004 A 
ATOM     17  C   UNL     1       7.954  -2.732  -1.887  0.00  0.00    +0.007 A 
ATOM     18  C   UNL     1       9.294  -3.068  -1.856  0.00  0.00    +0.000 A 
ATOM     19  C   UNL     1       9.717  -4.171  -1.138  0.00  0.00    +0.004 A 
ATOM     20  C   UNL     1       8.800  -4.940  -0.448  0.00  0.00    +0.045 A 
ATOM     21  C   UNL     1       7.455  -4.602  -0.472  0.00  0.00    +0.120 A 
BRANCH  21  22
ATOM     22  O   UNL     1       6.551  -5.354   0.210  0.00  0.00    -0.506 OA
ATOM     23  H   UNL     1       6.177  -6.082  -0.304  0.00  0.00    +0.292 HD
ENDBRANCH  21  22
ENDBRANCH  15  16
ENDBRANCH   4  15
TORSDOF 4
