REMARK  Name = ZINC09395874
REMARK  10 active torsions:
REMARK  status: ('A' for Active; 'I' for Inactive)
REMARK    1  A    between atoms: C_1  and  C_2
REMARK    2  A    between atoms: C_2  and  C_3
REMARK    3  A    between atoms: C_3  and  N_4
REMARK    4  A    between atoms: C_17  and  S_18
REMARK    5  A    between atoms: S_18  and  C_19
REMARK    6  A    between atoms: C_19  and  C_21
REMARK    7  A    between atoms: C_19  and  C_22
REMARK    8  A    between atoms: N_24  and  C_25
REMARK    9  A    between atoms: C_30  and  C_35
REMARK   10  A    between atoms: C_32  and  C_34
REMARK                            x       y       z     vdW  Elec       q    Type
REMARK                         _______ _______ _______ _____ _____    ______ ____
ROOT
ATOM      1  N   UNL     1      -1.700   7.297  10.379  0.00  0.00    -0.277 N 
ATOM      2  C   UNL     1      -0.479   7.672  10.812  0.00  0.00    +0.263 A 
ATOM      3  O   UNL     1      -0.354   8.280  11.859  0.00  0.00    -0.267 OA
ATOM      4  C   UNL     1       0.701   7.333   9.996  0.00  0.00    +0.064 A 
ATOM      5  C   UNL     1       1.986   7.696  10.396  0.00  0.00    +0.015 A 
ATOM      6  C   UNL     1       3.065   7.361   9.605  0.00  0.00    +0.001 A 
ATOM      7  C   UNL     1       2.877   6.668   8.420  0.00  0.00    +0.002 A 
ATOM      8  C   UNL     1       1.609   6.303   8.013  0.00  0.00    +0.027 A 
ATOM      9  C   UNL     1       0.512   6.632   8.796  0.00  0.00    +0.064 A 
ATOM     10  N   UNL     1      -0.778   6.276   8.408  0.00  0.00    -0.256 N 
ATOM     11  C   UNL     1      -1.853   6.604   9.188  0.00  0.00    +0.240 A 
ATOM     12  N   UNL     1      -2.934   6.152   8.592  0.00  0.00    -0.109 NA
ATOM     13  N   UNL     1      -2.545   5.524   7.402  0.00  0.00    -0.120 NA
ATOM     14  C   UNL     1      -1.240   5.603   7.309  0.00  0.00    +0.198 A 
ENDROOT
BRANCH   1  15
ATOM     15  C   UNL     1      -2.881   7.626  11.179  0.00  0.00    +0.128 C 
BRANCH  15  17
ATOM     16  C   UNL     1      -4.660   9.333  11.585  0.00  0.00    +0.005 C 
ATOM     17  C   UNL     1      -3.425   8.990  10.749  0.00  0.00    +0.018 C 
ENDBRANCH  15  17
ENDBRANCH   1  15
BRANCH  14  18
ATOM     18  S   UNL     1      -0.254   4.962   5.997  0.00  0.00    -0.073 S 
BRANCH  18  19
ATOM     19  C   UNL     1      -1.459   4.199   4.876  0.00  0.00    +0.137 C 
ATOM     20  C   UNL     1      -2.131   3.017   5.577  0.00  0.00    +0.029 C 
BRANCH  19  21
ATOM     21  C   UNL     1      -0.754   3.713   3.636  0.00  0.00    +0.226 C 
ATOM     22  O   UNL     1       0.427   3.441   3.678  0.00  0.00    -0.275 OA
ATOM     23  N   UNL     1      -1.435   3.582   2.481  0.00  0.00    -0.311 N 
ATOM     24  H   UNL     1      -2.380   3.800   2.447  0.00  0.00    +0.149 HD
BRANCH  23  25
ATOM     25  C   UNL     1      -0.750   3.109   1.275  0.00  0.00    +0.076 C 
ATOM     26  C   UNL     1      -0.729   1.579   1.267  0.00  0.00    +0.022 C 
ATOM     27  C   UNL     1      -0.013   1.086   0.008  0.00  0.00    +0.002 C 
ATOM     28  C   UNL     1      -0.753   1.593  -1.232  0.00  0.00    +0.003 C 
ATOM     29  C   UNL     1      -0.773   3.123  -1.223  0.00  0.00    -0.009 C 
ATOM     30  C   UNL     1      -1.490   3.616   0.036  0.00  0.00    +0.009 C 
ATOM     31  C   UNL     1      -1.510   5.146   0.044  0.00  0.00    +0.009 C 
ATOM     32  C   UNL     1       0.662   3.652  -1.234  0.00  0.00    +0.008 C 
ENDBRANCH  23  25
ENDBRANCH  19  21
ENDBRANCH  18  19
ENDBRANCH  14  18
TORSDOF 6
