REMARK  Name = ZINC35057420
REMARK  2 active torsions:
REMARK  status: ('A' for Active; 'I' for Inactive)
REMARK    1  A    between atoms: C_1  and  C_2
REMARK    2  A    between atoms: N_8  and  C_9
REMARK                            x       y       z     vdW  Elec       q    Type
REMARK                         _______ _______ _______ _____ _____    ______ ____
ROOT
ATOM      1  C   UNL     1       4.067  -2.880  -0.084  0.00  0.00    +0.070 A 
ATOM      2  C   UNL     1       3.676  -3.209  -1.383  0.00  0.00    +0.031 A 
ATOM      3  C   UNL     1       4.604  -3.704  -2.278  0.00  0.00    +0.052 A 
ATOM      4  C   UNL     1       5.924  -3.874  -1.891  0.00  0.00    +0.173 A 
ATOM      5  C   UNL     1       6.321  -3.547  -0.596  0.00  0.00    +0.175 A 
ATOM      6  C   UNL     1       5.396  -3.046   0.304  0.00  0.00    +0.077 A 
ATOM      7  O   UNL     1       7.655  -3.805  -0.470  0.00  0.00    -0.395 OA
ATOM      8  C   UNL     1       7.984  -4.675  -1.569  0.00  0.00    +0.589 C 
ATOM      9  O   UNL     1       7.012  -4.337  -2.576  0.00  0.00    -0.395 OA
ATOM     10  F   UNL     1       7.855  -6.016  -1.190  0.00  0.00    -0.125 F 
ATOM     11  F   UNL     1       9.280  -4.416  -2.029  0.00  0.00    -0.125 F 
ENDROOT
BRANCH   1  18
ATOM     12  C   UNL     1      -0.019   1.526   0.010  0.00  0.00    +0.021 C 
ATOM     13  C   UNL     1       0.002  -0.004   0.002  0.00  0.00    +0.068 C 
ATOM     14  C   UNL     1       0.803  -0.549  -1.208  0.00  0.00    +0.117 C 
ATOM     15  N   UNL     1       2.175  -0.858  -0.813  0.00  0.00    -0.323 N 
ATOM     16  C   UNL     1       2.298  -1.460   0.428  0.00  0.00    +0.155 C 
ATOM     17  S   UNL     1       1.016  -0.666   1.390  0.00  0.00    -0.086 S 
ATOM     18  N   UNL     1       3.147  -2.388   0.806  0.00  0.00    -0.226 NA
ATOM     19  H   UNL     1       2.940  -0.657  -1.375  0.00  0.00    +0.148 HD
ENDBRANCH   1  18
TORSDOF 1
