REMARK  Name = ZINC64002955
REMARK  5 active torsions:
REMARK  status: ('A' for Active; 'I' for Inactive)
REMARK    1  A    between atoms: C_1  and  C_2
REMARK    2  A    between atoms: N_11  and  C_12
REMARK    3  A    between atoms: C_12  and  C_13
REMARK    4  A    between atoms: C_13  and  C_15
REMARK    5  A    between atoms: C_13  and  C_22
REMARK                            x       y       z     vdW  Elec       q    Type
REMARK                         _______ _______ _______ _____ _____    ______ ____
ROOT
ATOM      1  C   UNL     1      -3.590  -6.975   3.011  0.00  0.00    +0.066 C 
ENDROOT
BRANCH   1   2
ATOM      2  C   UNL     1      -3.218  -8.179   3.837  0.00  0.00    -0.033 C 
ATOM      3  C   UNL     1      -3.134  -9.461   3.413  0.00  0.00    -0.000 A 
ATOM      4  C   UNL     1      -3.356 -10.093   2.107  0.00  0.00    +0.010 A 
ATOM      5  C   UNL     1      -3.191 -11.431   1.989  0.00  0.00    +0.001 A 
ATOM      6  C   UNL     1      -2.815 -12.226   3.080  0.00  0.00    +0.002 A 
ATOM      7  C   UNL     1      -2.593 -11.717   4.311  0.00  0.00    +0.026 A 
ATOM      8  C   UNL     1      -2.737 -10.323   4.549  0.00  0.00    +0.043 A 
ATOM      9  N   UNL     1      -2.582  -9.602   5.633  0.00  0.00    -0.380 N 
ATOM     10  C   UNL     1      -2.857  -8.199   5.305  0.00  0.00    +0.145 C 
ATOM     11  H   UNL     1      -2.324  -9.939   6.505  0.00  0.00    +0.160 HD
ENDBRANCH   1   2
BRANCH   1  12
ATOM     12  C   UNL     1      -4.818  -6.325   3.594  0.00  0.00    -0.020 A 
ATOM     13  C   UNL     1      -4.795  -5.842   4.889  0.00  0.00    +0.006 A 
ATOM     14  C   UNL     1      -5.922  -5.246   5.425  0.00  0.00    +0.000 A 
ATOM     15  C   UNL     1      -7.072  -5.133   4.665  0.00  0.00    +0.001 A 
ATOM     16  C   UNL     1      -7.095  -5.616   3.370  0.00  0.00    +0.020 A 
ATOM     17  C   UNL     1      -5.966  -6.207   2.832  0.00  0.00    +0.045 A 
ATOM     18 CL   UNL     1      -5.993  -6.807   1.203  0.00  0.00    -0.083 Cl
ENDBRANCH   1  12
BRANCH   1  19
ATOM     19  C   UNL     1      -2.432  -5.975   3.018  0.00  0.00    +0.118 C 
BRANCH  19  29
ATOM     20  C   UNL     1      -0.019   1.526   0.010  0.00  0.00    +0.055 C 
ATOM     21  C   UNL     1       0.002  -0.004   0.002  0.00  0.00    +0.208 C 
ATOM     22  C   UNL     1      -1.432  -0.578   0.091  0.00  0.00    +0.122 C 
ATOM     23  C   UNL     1      -1.246  -1.792   0.982  0.00  0.00    +0.145 C 
ATOM     24  N   UNL     1      -0.102  -1.695   1.565  0.00  0.00    -0.073 NA
ATOM     25  O   UNL     1       0.600  -0.519   1.209  0.00  0.00    -0.389 OA
ATOM     26  N   UNL     1      -2.150  -2.826   1.140  0.00  0.00    -0.255 N 
ATOM     27  C   UNL     1      -1.863  -3.852   1.966  0.00  0.00    +0.305 C 
ATOM     28  O   UNL     1      -0.809  -3.868   2.571  0.00  0.00    -0.252 OA
ATOM     29  N   UNL     1      -2.744  -4.860   2.120  0.00  0.00    -0.298 N 
ATOM     30  H   UNL     1      -2.991  -2.813   0.657  0.00  0.00    +0.158 HD
ATOM     31  H   UNL     1      -3.585  -4.847   1.637  0.00  0.00    +0.150 HD
ENDBRANCH  19  29
ENDBRANCH   1  19
TORSDOF 4
