REMARK  Name = ZINC32553412
REMARK  3 active torsions:
REMARK  status: ('A' for Active; 'I' for Inactive)
REMARK    1  A    between atoms: C_1  and  C_2
REMARK    2  A    between atoms: C_2  and  C_4
REMARK    3  A    between atoms: C_2  and  N_15
REMARK                            x       y       z     vdW  Elec       q    Type
REMARK                         _______ _______ _______ _____ _____    ______ ____
ROOT
ATOM      1  C   UNL     1       4.744  -0.330   0.570  0.00  0.00    +0.035 C 
ATOM      2  C   UNL     1       4.781   1.062  -0.064  0.00  0.00    +0.132 C 
ENDROOT
BRANCH   2   3
ATOM      3  N   UNL     1       4.820   0.933  -1.523  0.00  0.00    -0.292 N 
ATOM      4  C   UNL     1       3.809   0.295  -2.169  0.00  0.00    +0.203 A 
ATOM      5  N   UNL     1       3.768   0.145  -3.458  0.00  0.00    -0.237 NA
ATOM      6  C   UNL     1       4.756   0.614  -4.261  0.00  0.00    +0.078 A 
ATOM      7  C   UNL     1       4.715   0.448  -5.647  0.00  0.00    +0.028 A 
ATOM      8  C   UNL     1       5.740   0.940  -6.423  0.00  0.00    +0.002 A 
ATOM      9  C   UNL     1       6.817   1.600  -5.845  0.00  0.00    +0.001 A 
ATOM     10  C   UNL     1       6.880   1.776  -4.480  0.00  0.00    +0.015 A 
ATOM     11  C   UNL     1       5.852   1.286  -3.676  0.00  0.00    +0.065 A 
ATOM     12  C   UNL     1       5.865   1.444  -2.214  0.00  0.00    +0.262 A 
ATOM     13  O   UNL     1       6.780   2.013  -1.648  0.00  0.00    -0.267 OA
ENDBRANCH   2   3
BRANCH   2  14
ATOM     14  C   UNL     1       3.531   1.844   0.345  0.00  0.00    +0.233 C 
ATOM     15  C   UNL     1       3.501   3.192  -0.387  0.00  0.00    +0.275 C 
ATOM     16  O   UNL     1       2.315   3.890   0.008  0.00  0.00    -0.485 OA
ATOM     17  C   UNL     1       1.157   3.174   0.011  0.00  0.00    +0.162 A 
ATOM     18  C   UNL     1      -0.057   3.845   0.025  0.00  0.00    +0.049 A 
ATOM     19  C   UNL     1      -1.241   3.132   0.031  0.00  0.00    +0.004 A 
ATOM     20  C   UNL     1      -1.219   1.750   0.017  0.00  0.00    +0.004 A 
ATOM     21  C   UNL     1      -0.013   1.076   0.008  0.00  0.00    +0.049 A 
ATOM     22  C   UNL     1       1.179   1.785   0.000  0.00  0.00    +0.163 A 
ATOM     23  O   UNL     1       2.360   1.107  -0.022  0.00  0.00    -0.480 OA
ENDBRANCH   2  14
TORSDOF 2
