REMARK  Name = ZINC53553344
REMARK  5 active torsions:
REMARK  status: ('A' for Active; 'I' for Inactive)
REMARK    1  A    between atoms: C_1  and  C_2
REMARK    2  A    between atoms: N_11  and  C_12
REMARK    3  A    between atoms: C_15  and  C_21
REMARK    4  A    between atoms: C_17  and  N_18
REMARK    5  A    between atoms: N_23  and  C_24
REMARK                            x       y       z     vdW  Elec       q    Type
REMARK                         _______ _______ _______ _____ _____    ______ ____
ROOT
ATOM      1  C   UNL     1      -0.251  -0.971   1.973  0.00  0.00    +0.061 A 
ATOM      2  C   UNL     1      -0.458  -2.348   1.968  0.00  0.00    +0.026 A 
ATOM      3  C   UNL     1      -1.028  -2.963   3.058  0.00  0.00    +0.015 A 
ATOM      4  C   UNL     1      -1.399  -2.205   4.173  0.00  0.00    +0.039 A 
ATOM      5  C   UNL     1      -1.191  -0.823   4.175  0.00  0.00    +0.047 A 
ATOM      6  C   UNL     1      -0.615  -0.214   3.083  0.00  0.00    +0.148 A 
ENDROOT
BRANCH   1  16
ATOM      7  C   UNL     1       2.443  -1.052  -0.153  0.00  0.00    +0.033 C 
ATOM      8  C   UNL     1       1.771  -0.093   0.832  0.00  0.00    +0.101 C 
ATOM      9  C   UNL     1       1.977   1.349   0.371  0.00  0.00    -0.017 A 
ATOM     10  C   UNL     1       3.197   2.015   0.469  0.00  0.00    +0.013 A 
ATOM     11  C   UNL     1       3.308   3.292   0.036  0.00  0.00    +0.046 A 
ATOM     12  S   UNL     1       1.652   3.628  -0.545  0.00  0.00    -0.101 S 
ATOM     13  C   UNL     1       0.941   2.048  -0.166  0.00  0.00    -0.004 A 
ATOM     14  C   UNL     1      -0.465   1.588  -0.380  0.00  0.00    +0.061 C 
ATOM     15  C   UNL     1      -0.502   0.056  -0.277  0.00  0.00    +0.111 C 
ATOM     16  N   UNL     1       0.326  -0.351   0.870  0.00  0.00    -0.321 N 
ENDBRANCH   1  16
BRANCH   4  17
ATOM     17  C   UNL     1      -2.011  -2.862   5.343  0.00  0.00    +0.244 C 
ATOM     18  O   UNL     1      -2.334  -2.201   6.311  0.00  0.00    -0.270 OA
ATOM     19  N   UNL     1      -2.212  -4.195   5.339  0.00  0.00    -0.314 N 
ATOM     20  C   UNL     1      -2.820  -4.847   6.502  0.00  0.00    +0.128 C 
ATOM     21  H   UNL     1      -1.955  -4.722   4.567  0.00  0.00    +0.149 HD
ENDBRANCH   4  17
BRANCH   6  22
ATOM     22  N   UNL     1      -0.389   1.249   3.087  0.00  0.00    +0.058 N 
ATOM     23  O   UNL     1      -0.803   1.923   4.001  0.00  0.00    -0.126 OA
ATOM     24  O   UNL     1       0.210   1.770   2.175  0.00  0.00    -0.126 OA
ENDBRANCH   6  22
TORSDOF 3
