REMARK  Name = ZINC13546357
REMARK  6 active torsions:
REMARK  status: ('A' for Active; 'I' for Inactive)
REMARK    1  A    between atoms: C_1  and  C_2
REMARK    2  A    between atoms: C_5  and  C_11
REMARK    3  A    between atoms: C_7  and  N_8
REMARK    4  A    between atoms: C_12  and  C_13
REMARK    5  A    between atoms: C_12  and  C_15
REMARK    6  A    between atoms: N_17  and  C_18
REMARK                            x       y       z     vdW  Elec       q    Type
REMARK                         _______ _______ _______ _____ _____    ______ ____
ROOT
ATOM      1  C   UNL     1      -1.099  -0.652  -0.202  0.00  0.00    +0.032 C 
ATOM      2  C   UNL     1      -1.327  -1.999  -0.198  0.00  0.00    +0.114 C 
ENDROOT
BRANCH   1   7
ATOM      3  C   UNL     1       4.180   1.364  -1.236  0.00  0.00    +0.046 C 
ATOM      4  C   UNL     1       2.796   0.835  -0.965  0.00  0.00    -0.020 A 
ATOM      5  C   UNL     1       2.328  -0.263  -1.668  0.00  0.00    +0.006 A 
ATOM      6  C   UNL     1       1.063  -0.753  -1.426  0.00  0.00    +0.008 A 
ATOM      7  C   UNL     1       0.249  -0.137  -0.466  0.00  0.00    -0.021 A 
ATOM      8  C   UNL     1       0.730   0.973   0.239  0.00  0.00    +0.041 A 
ATOM      9  C   UNL     1       1.998   1.450  -0.015  0.00  0.00    +0.130 A 
BRANCH   9  10
ATOM     10  N   UNL     1       2.508   2.624   0.729  0.00  0.00    +0.057 N 
ATOM     11  O   UNL     1       1.862   3.088   1.651  0.00  0.00    -0.126 OA
ATOM     12  O   UNL     1       3.574   3.125   0.419  0.00  0.00    -0.126 OA
ENDBRANCH   9  10
ENDBRANCH   1   7
BRANCH   2  13
ATOM     13  C   UNL     1      -0.194  -2.937  -0.132  0.00  0.00    +0.259 C 
ATOM     14  O   UNL     1       0.933  -2.518   0.048  0.00  0.00    -0.269 OA
ATOM     15  N   UNL     1      -0.407  -4.261  -0.270  0.00  0.00    -0.281 N 
ATOM     16  H   UNL     1      -1.312  -4.602  -0.345  0.00  0.00    +0.155 HD
BRANCH  15  17
ATOM     17  C   UNL     1       0.678  -5.143  -0.305  0.00  0.00    +0.034 A 
ATOM     18  C   UNL     1       0.629  -6.274  -1.111  0.00  0.00    +0.025 A 
ATOM     19  C   UNL     1       1.704  -7.140  -1.148  0.00  0.00    +0.022 A 
ATOM     20  C   UNL     1       2.824  -6.890  -0.375  0.00  0.00    +0.041 A 
ATOM     21  C   UNL     1       2.873  -5.767   0.433  0.00  0.00    +0.022 A 
ATOM     22  C   UNL     1       1.803  -4.894   0.470  0.00  0.00    +0.025 A 
ATOM     23 CL   UNL     1       4.170  -7.985  -0.419  0.00  0.00    -0.084 Cl
ENDBRANCH  15  17
ENDBRANCH   2  13
BRANCH   2  24
ATOM     24  C   UNL     1      -2.668  -2.498  -0.258  0.00  0.00    +0.104 C 
ATOM     25  N   UNL     1      -3.731  -2.894  -0.305  0.00  0.00    -0.191 NA
ENDBRANCH   2  24
TORSDOF 5
