REMARK  Name = ZINC43360411
REMARK  3 active torsions:
REMARK  status: ('A' for Active; 'I' for Inactive)
REMARK    1  A    between atoms: C_1  and  C_2
REMARK    2  A    between atoms: C_5  and  C_21
REMARK    3  A    between atoms: C_16  and  C_18
REMARK                            x       y       z     vdW  Elec       q    Type
REMARK                         _______ _______ _______ _____ _____    ______ ____
ROOT
ATOM      1  C   UNL     1      -0.018   1.524   0.004  0.00  0.00    +0.009 C 
ATOM      2  C   UNL     1       0.003  -0.006  -0.003  0.00  0.00    +0.004 C 
ATOM      3  C   UNL     1      -1.432  -0.536   0.009  0.00  0.00    +0.009 C 
ATOM      4  C   UNL     1      -1.413  -2.066  -0.031  0.00  0.00    +0.004 C 
ATOM      5  C   UNL     1      -0.691  -2.596   1.212  0.00  0.00    +0.112 C 
ATOM      6  N   UNL     1       0.639  -1.978   1.286  0.00  0.00    -0.285 N 
ATOM      7  C   UNL     1       0.741  -0.512   1.240  0.00  0.00    +0.112 C 
ATOM      8  C   UNL     1       1.746  -2.740   1.395  0.00  0.00    +0.308 C 
ATOM      9  O   UNL     1       1.644  -3.944   1.524  0.00  0.00    -0.252 OA
ATOM     10  N   UNL     1       2.965  -2.166   1.360  0.00  0.00    -0.247 N 
ATOM     11  C   UNL     1       4.107  -2.960   1.365  0.00  0.00    +0.189 A 
ATOM     12  N   UNL     1       4.206  -4.274   1.395  0.00  0.00    -0.126 NA
ATOM     13  N   UNL     1       5.326  -4.859   1.395  0.00  0.00    -0.144 NA
ATOM     14  C   UNL     1       6.427  -4.136   1.364  0.00  0.00    +0.107 A 
ATOM     15  S   UNL     1       5.726  -2.493   1.327  0.00  0.00    -0.035 S 
ATOM     16  C   UNL     1      -0.677  -2.535  -1.288  0.00  0.00    +0.009 C 
ATOM     17  H   UNL     1       3.046  -1.200   1.331  0.00  0.00    +0.158 HD
ENDROOT
BRANCH  14  18
ATOM     18  C   UNL     1       7.870  -4.573   1.357  0.00  0.00    +0.047 C 
ATOM     19  C   UNL     1       8.155  -6.066   1.186  0.00  0.00    +0.011 C 
ATOM     20  C   UNL     1       8.364  -5.398   2.546  0.00  0.00    +0.011 C 
ENDBRANCH  14  18
TORSDOF 1
