REMARK  Name = ZINC63375546
REMARK  9 active torsions:
REMARK  status: ('A' for Active; 'I' for Inactive)
REMARK    1  A    between atoms: C_1  and  C_2
REMARK    2  A    between atoms: C_7  and  O_31
REMARK    3  A    between atoms: C_13  and  C_15
REMARK    4  A    between atoms: C_15  and  C_16
REMARK    5  A    between atoms: C_16  and  C_17
REMARK    6  A    between atoms: N_19  and  C_20
REMARK    7  A    between atoms: C_20  and  C_21
REMARK    8  A    between atoms: C_21  and  C_22
REMARK    9  A    between atoms: O_31  and  C_32
REMARK                            x       y       z     vdW  Elec       q    Type
REMARK                         _______ _______ _______ _____ _____    ______ ____
ROOT
ATOM      1  C   UNL     1       1.126  -0.153   3.685  0.00  0.00    +0.096 C 
ENDROOT
BRANCH   1   2
ATOM      2  C   UNL     1       0.676   0.615   4.901  0.00  0.00    +0.213 C 
ATOM      3  O   UNL     1      -0.225   1.423   4.809  0.00  0.00    -0.276 OA
ATOM      4  N   UNL     1       1.274   0.405   6.090  0.00  0.00    -0.315 N 
ATOM      5  H   UNL     1       1.994  -0.240   6.164  0.00  0.00    +0.149 HD
BRANCH   4   6
ATOM      6  C   UNL     1       0.837   1.152   7.272  0.00  0.00    +0.108 C 
BRANCH   6   7
ATOM      7  C   UNL     1       1.673   0.728   8.482  0.00  0.00    +0.052 C 
BRANCH   7   8
ATOM      8  C   UNL     1       1.223   1.497   9.697  0.00  0.00    -0.040 C 
ATOM      9  C   UNL     1       0.333   1.092  10.632  0.00  0.00    -0.001 A 
ATOM     10  C   UNL     1      -0.453  -0.137  10.790  0.00  0.00    +0.010 A 
ATOM     11  C   UNL     1      -1.280  -0.255  11.854  0.00  0.00    +0.001 A 
ATOM     12  C   UNL     1      -1.404   0.765  12.807  0.00  0.00    +0.002 A 
ATOM     13  C   UNL     1      -0.715   1.923  12.730  0.00  0.00    +0.026 A 
ATOM     14  C   UNL     1       0.184   2.154  11.652  0.00  0.00    +0.043 A 
ATOM     15  N   UNL     1       0.952   3.176  11.360  0.00  0.00    -0.380 N 
ATOM     16  C   UNL     1       1.680   2.874  10.123  0.00  0.00    +0.144 C 
ATOM     17  H   UNL     1       1.028   3.993  11.877  0.00  0.00    +0.160 HD
ENDBRANCH   7   8
ENDBRANCH   6   7
ENDBRANCH   4   6
ENDBRANCH   1   2
BRANCH   1  18
ATOM     18  C   UNL     1       0.290   0.271   2.476  0.00  0.00    +0.024 C 
BRANCH  18  30
ATOM     19  C   UNL     1      -0.019   1.526   0.010  0.00  0.00    +0.013 C 
ATOM     20  C   UNL     1       0.002  -0.004   0.002  0.00  0.00    +0.033 C 
ATOM     21  C   UNL     1      -1.413  -0.524   0.009  0.00  0.00    -0.001 A 
ATOM     22  C   UNL     1      -2.362   0.134  -0.759  0.00  0.00    +0.011 A 
ATOM     23  C   UNL     1      -3.668  -0.310  -0.789  0.00  0.00    +0.046 A 
ATOM     24  C   UNL     1      -4.039  -1.424  -0.048  0.00  0.00    +0.124 A 
ATOM     25  C   UNL     1      -3.095  -2.082   0.722  0.00  0.00    +0.092 A 
ATOM     26  C   UNL     1      -1.781  -1.631   0.754  0.00  0.00    +0.139 A 
ATOM     27  O   UNL     1      -0.889  -2.295   1.540  0.00  0.00    -0.425 OA
ATOM     28  C   UNL     1       0.414  -1.979   1.408  0.00  0.00    +0.316 C 
ATOM     29  O   UNL     1       1.276  -2.826   1.423  0.00  0.00    -0.250 OA
ATOM     30  C   UNL     1       0.747  -0.510   1.241  0.00  0.00    +0.106 C 
BRANCH  24  31
ATOM     31  O   UNL     1      -5.323  -1.866  -0.078  0.00  0.00    -0.495 OA
ATOM     32  C   UNL     1      -6.241  -1.136  -0.895  0.00  0.00    +0.277 C 
ENDBRANCH  24  31
ENDBRANCH  18  30
ENDBRANCH   1  18
TORSDOF 7
