REMARK  Name = ZINC09610546
REMARK  6 active torsions:
REMARK  status: ('A' for Active; 'I' for Inactive)
REMARK    1  A    between atoms: C_4  and  C_7
REMARK    2  A    between atoms: C_7  and  C_9
REMARK    3  A    between atoms: C_7  and  N_17
REMARK    4  A    between atoms: N_11  and  C_12
REMARK    5  A    between atoms: N_17  and  S_18
REMARK    6  A    between atoms: S_18  and  C_21
REMARK                            x       y       z     vdW  Elec       q    Type
REMARK                         _______ _______ _______ _____ _____    ______ ____
ROOT
ATOM      1  N   UNL     1       0.024  -0.502   1.581  0.00  0.00    -0.174 NA
ATOM      2  H   UNL     1       0.795  -0.976   1.930  0.00  0.00    +0.149 HD
ENDROOT
BRANCH   1   3
ATOM      3  S   UNL     1       0.002  -0.004   0.002  0.00  0.00    +0.059 S 
ATOM      4  O   UNL     1      -1.243  -0.424  -0.539  0.00  0.00    -0.153 OA
ATOM      5  O   UNL     1       1.248  -0.390  -0.563  0.00  0.00    -0.153 OA
BRANCH   3   6
ATOM      6  C   UNL     1      -0.022   1.758   0.012  0.00  0.00    +0.106 A 
ATOM      7  C   UNL     1      -1.230   2.431   0.021  0.00  0.00    +0.030 A 
ATOM      8  C   UNL     1      -1.252   3.812   0.032  0.00  0.00    +0.025 A 
ATOM      9  C   UNL     1      -0.060   4.524   0.025  0.00  0.00    +0.037 A 
ATOM     10  C   UNL     1       1.151   3.845   0.011  0.00  0.00    -0.024 A 
ATOM     11  C   UNL     1       1.167   2.464   0.004  0.00  0.00    +0.034 A 
ATOM     12  C   UNL     1       2.444   4.617   0.004  0.00  0.00    +0.046 C 
ATOM     13  C   UNL     1       2.263   5.910  -0.792  0.00  0.00    +0.101 C 
ATOM     14  C   UNL     1       1.013   6.618  -0.341  0.00  0.00    +0.218 C 
ATOM     15  O   UNL     1       0.988   7.831  -0.315  0.00  0.00    -0.275 OA
ATOM     16  N   UNL     1      -0.076   5.922   0.032  0.00  0.00    -0.285 N 
ATOM     17  H   UNL     1      -0.877   6.393   0.309  0.00  0.00    +0.155 HD
ENDBRANCH   3   6
ENDBRANCH   1   3
BRANCH   1  18
ATOM     18  C   UNL     1      -1.122  -0.227   2.452  0.00  0.00    +0.192 C 
BRANCH  18  22
ATOM     19  C   UNL     1      -3.730  -3.610   2.485  0.00  0.00    +0.000 A 
ATOM     20  C   UNL     1      -4.256  -2.332   2.457  0.00  0.00    +0.000 A 
ATOM     21  C   UNL     1      -3.412  -1.237   2.446  0.00  0.00    +0.006 A 
ATOM     22  C   UNL     1      -2.042  -1.420   2.464  0.00  0.00    -0.020 A 
ATOM     23  C   UNL     1      -1.516  -2.698   2.487  0.00  0.00    +0.006 A 
ATOM     24  C   UNL     1      -2.360  -3.793   2.503  0.00  0.00    +0.000 A 
ENDBRANCH  18  22
BRANCH  18  25
ATOM     25  C   UNL     1      -0.634   0.046   3.852  0.00  0.00    +0.236 C 
ATOM     26  O   UNL     1       0.553   0.014   4.098  0.00  0.00    -0.274 OA
ATOM     27  N   UNL     1      -1.518   0.326   4.830  0.00  0.00    -0.311 N 
ATOM     28  H   UNL     1      -2.468   0.352   4.633  0.00  0.00    +0.149 HD
BRANCH  27  29
ATOM     29  C   UNL     1      -1.044   0.591   6.191  0.00  0.00    +0.073 C 
ATOM     30  C   UNL     1      -0.925  -0.731   6.976  0.00  0.00    +0.022 C 
ATOM     31  C   UNL     1      -1.374  -0.362   8.412  0.00  0.00    +0.002 C 
ATOM     32  C   UNL     1      -2.533   0.634   8.162  0.00  0.00    +0.002 C 
ATOM     33  C   UNL     1      -2.067   1.459   6.945  0.00  0.00    +0.022 C 
ENDBRANCH  27  29
ENDBRANCH  18  25
ENDBRANCH   1  18
TORSDOF 6
