REMARK  Name = ZINC29820719
REMARK  9 active torsions:
REMARK  status: ('A' for Active; 'I' for Inactive)
REMARK    1  A    between atoms: C_1  and  O_2
REMARK    2  A    between atoms: O_2  and  C_3
REMARK    3  A    between atoms: C_3  and  C_5
REMARK    4  A    between atoms: C_5  and  C_7
REMARK    5  A    between atoms: C_5  and  N_14
REMARK    6  A    between atoms: N_17  and  C_20
REMARK    7  A    between atoms: C_20  and  C_21
REMARK    8  A    between atoms: N_23  and  C_24
REMARK    9  A    between atoms: C_24  and  C_25
REMARK                            x       y       z     vdW  Elec       q    Type
REMARK                         _______ _______ _______ _____ _____    ______ ____
ROOT
ATOM      1  N   UNL     1      -2.341   0.876   0.061  0.00  0.00    -0.290 NA
ATOM      2  C   UNL     1      -2.206   0.069   1.282  0.00  0.00    +0.067 C 
ATOM      3  C   UNL     1      -3.325  -0.975   1.327  0.00  0.00    -0.063 C 
ATOM      4  N   UNL     1      -3.249  -1.822   0.128  0.00  0.00    +0.387 N 
ATOM      5  C   UNL     1      -3.385  -1.015  -1.092  0.00  0.00    -0.063 C 
ATOM      6  C   UNL     1      -2.266   0.029  -1.137  0.00  0.00    +0.067 C 
ATOM      7  H   UNL     1      -2.259  -2.300   0.111  0.00  0.00    -0.081 HD
ENDROOT
BRANCH   1   8
ATOM      8  C   UNL     1      -1.329   1.940   0.019  0.00  0.00    +0.197 C 
BRANCH   8   9
ATOM      9  C   UNL     1      -1.512   2.757  -1.234  0.00  0.00    -0.019 A 
ATOM     10  C   UNL     1      -2.777   3.168  -1.612  0.00  0.00    +0.007 A 
ATOM     11  C   UNL     1      -2.945   3.923  -2.758  0.00  0.00    +0.020 A 
ATOM     12  C   UNL     1      -1.848   4.257  -3.533  0.00  0.00    +0.041 A 
ATOM     13  C   UNL     1      -0.583   3.840  -3.156  0.00  0.00    +0.020 A 
ATOM     14  C   UNL     1      -0.416   3.091  -2.007  0.00  0.00    +0.007 A 
ATOM     15 CL   UNL     1      -2.059   5.198  -4.976  0.00  0.00    -0.084 Cl
ENDBRANCH   8   9
BRANCH   8  16
ATOM     16  C   UNL     1      -1.484   2.829   1.226  0.00  0.00    +0.329 C 
ATOM     17  O   UNL     1      -2.565   2.951   1.751  0.00  0.00    -0.249 OA
BRANCH  16  19
ATOM     18  C   UNL     1      -0.642   4.314   2.888  0.00  0.00    +0.280 C 
ATOM     19  O   UNL     1      -0.420   3.480   1.720  0.00  0.00    -0.467 OA
ENDBRANCH  16  19
ENDBRANCH   8  16
ENDBRANCH   1   8
BRANCH   4  20
ATOM     20  C   UNL     1      -4.261  -2.886   0.171  0.00  0.00    +0.019 C 
BRANCH  20  21
ATOM     21  C   UNL     1      -3.944  -3.836   1.297  0.00  0.00    +0.197 C 
ATOM     22  O   UNL     1      -2.971  -3.645   1.996  0.00  0.00    -0.278 OA
ATOM     23  N   UNL     1      -4.742  -4.897   1.528  0.00  0.00    -0.310 N 
ATOM     24  H   UNL     1      -5.625  -5.070   0.895  0.00  0.00    +0.149 HD
BRANCH  23  25
ATOM     25  C   UNL     1      -4.434  -5.820   2.623  0.00  0.00    +0.178 C 
BRANCH  25  26
ATOM     26  C   UNL     1      -5.473  -6.912   2.667  0.00  0.00    +0.122 A 
ATOM     27  C   UNL     1      -5.409  -8.084   2.011  0.00  0.00    +0.046 A 
ATOM     28  C   UNL     1      -6.585  -8.799   2.336  0.00  0.00    +0.041 A 
ATOM     29  C   UNL     1      -7.297  -8.021   3.170  0.00  0.00    +0.195 A 
ATOM     30  O   UNL     1      -6.615  -6.881   3.372  0.00  0.00    -0.466 OA
ENDBRANCH  25  26
ENDBRANCH  23  25
ENDBRANCH  20  21
ENDBRANCH   4  20
TORSDOF 8
