REMARK  Name = ZINC33068527
REMARK  6 active torsions:
REMARK  status: ('A' for Active; 'I' for Inactive)
REMARK    1  A    between atoms: C_1  and  C_2
REMARK    2  A    between atoms: C_2  and  N_3
REMARK    3  A    between atoms: C_9  and  C_11
REMARK    4  A    between atoms: C_11  and  N_12
REMARK    5  A    between atoms: N_19  and  C_24
REMARK    6  A    between atoms: C_24  and  C_25
REMARK                            x       y       z     vdW  Elec       q    Type
REMARK                         _______ _______ _______ _____ _____    ______ ____
ROOT
ATOM      1  N   UNL     1       2.361   3.873  -0.000  0.00  0.00    -0.293 N 
ATOM      2  C   UNL     1       1.159   3.170   0.008  0.00  0.00    +0.069 A 
ATOM      3  C   UNL     1       1.174   1.779   0.000  0.00  0.00    +0.028 A 
ATOM      4  C   UNL     1      -0.013   1.076   0.008  0.00  0.00    +0.002 A 
ATOM      5  C   UNL     1      -1.223   1.749   0.017  0.00  0.00    +0.002 A 
ATOM      6  C   UNL     1      -1.250   3.129   0.029  0.00  0.00    +0.028 A 
ATOM      7  C   UNL     1      -0.060   3.849   0.022  0.00  0.00    +0.069 A 
ATOM      8  N   UNL     1      -0.097   5.240   0.030  0.00  0.00    -0.298 N 
ATOM      9  C   UNL     1       1.052   5.946   0.023  0.00  0.00    +0.317 A 
ATOM     10  O   UNL     1       1.026   7.161   0.029  0.00  0.00    -0.262 OA
ATOM     11  C   UNL     1       2.355   5.221   0.007  0.00  0.00    +0.317 A 
ATOM     12  O   UNL     1       3.401   5.839  -0.000  0.00  0.00    -0.262 OA
ENDROOT
BRANCH   1  13
ATOM     13  C   UNL     1       3.633   3.146  -0.015  0.00  0.00    +0.221 C 
BRANCH  13  20
ATOM     14  N   UNL     1       6.931   0.119  -2.203  0.00  0.00    -0.300 NA
ATOM     15  C   UNL     1       5.962   0.511  -3.235  0.00  0.00    +0.103 C 
ATOM     16  C   UNL     1       5.636   2.001  -3.085  0.00  0.00    +0.123 C 
ATOM     17  N   UNL     1       5.205   2.248  -1.701  0.00  0.00    -0.298 N 
ATOM     18  C   UNL     1       6.062   1.766  -0.608  0.00  0.00    +0.123 C 
ATOM     19  C   UNL     1       6.369   0.280  -0.855  0.00  0.00    +0.103 C 
ATOM     20  C   UNL     1       4.056   2.904  -1.441  0.00  0.00    +0.236 C 
ATOM     21  O   UNL     1       3.363   3.299  -2.355  0.00  0.00    -0.274 OA
BRANCH  14  23
ATOM     22  C   UNL     1       8.579  -1.544  -1.485  0.00  0.00    +0.020 C 
ATOM     23  C   UNL     1       7.400  -1.257  -2.417  0.00  0.00    +0.081 C 
ENDBRANCH  14  23
ENDBRANCH  13  20
ENDBRANCH   1  13
BRANCH   8  24
ATOM     24  C   UNL     1      -1.384   5.939   0.045  0.00  0.00    +0.160 C 
BRANCH  24  25
ATOM     25  C   UNL     1      -1.839   6.185  -1.371  0.00  0.00    -0.028 A 
ATOM     26  C   UNL     1      -1.481   7.353  -2.018  0.00  0.00    +0.007 A 
ATOM     27  C   UNL     1      -1.893   7.576  -3.318  0.00  0.00    +0.020 A 
ATOM     28  C   UNL     1      -2.673   6.636  -3.968  0.00  0.00    +0.041 A 
ATOM     29  C   UNL     1      -3.035   5.470  -3.318  0.00  0.00    +0.020 A 
ATOM     30  C   UNL     1      -2.618   5.245  -2.019  0.00  0.00    +0.007 A 
ATOM     31 CL   UNL     1      -3.196   6.920  -5.599  0.00  0.00    -0.084 Cl
ENDBRANCH  24  25
ENDBRANCH   8  24
TORSDOF 5
