REMARK  Name = ZINC08721105
REMARK  5 active torsions:
REMARK  status: ('A' for Active; 'I' for Inactive)
REMARK    1  A    between atoms: C_1  and  N_2
REMARK    2  A    between atoms: C_5  and  C_6
REMARK    3  A    between atoms: N_7  and  C_8
REMARK    4  A    between atoms: C_8  and  C_9
REMARK    5  A    between atoms: N_19  and  C_22
REMARK                            x       y       z     vdW  Elec       q    Type
REMARK                         _______ _______ _______ _____ _____    ______ ____
ROOT
ATOM      1  C   UNL     1       4.892   1.302  -0.301  0.00  0.00    +0.143 C 
ATOM      2  N   UNL     1       3.563   1.914  -0.373  0.00  0.00    -0.228 N 
ATOM      3  C   UNL     1       2.474   1.153  -0.140  0.00  0.00    +0.240 C 
ATOM      4  O   UNL     1       2.583  -0.028   0.129  0.00  0.00    -0.274 OA
ATOM      5  C   UNL     1       1.148   1.792  -0.218  0.00  0.00    +0.202 C 
ATOM      6  C   UNL     1       1.113   3.227  -0.555  0.00  0.00    +0.240 C 
ATOM      7  O   UNL     1       0.056   3.822  -0.643  0.00  0.00    -0.274 OA
ATOM      8  N   UNL     1       2.286   3.862  -0.757  0.00  0.00    -0.228 N 
ATOM      9  C   UNL     1       3.457   3.217  -0.670  0.00  0.00    +0.317 C 
ATOM     10  O   UNL     1       4.478   3.846  -0.869  0.00  0.00    -0.252 OA
ATOM     11  C   UNL     1       2.278   5.290  -1.088  0.00  0.00    +0.143 C 
ENDROOT
BRANCH   5  12
ATOM     12  C   UNL     1      -0.013   1.076   0.008  0.00  0.00    +0.100 C 
ATOM     13  N   UNL     1      -1.196   1.717   0.085  0.00  0.00    -0.290 NA
BRANCH  13  14
ATOM     14  C   UNL     1      -2.426   0.958   0.325  0.00  0.00    +0.176 C 
BRANCH  14  15
ATOM     15  C   UNL     1      -3.599   1.903   0.367  0.00  0.00    -0.025 A 
ATOM     16  C   UNL     1      -3.992   2.464   1.568  0.00  0.00    +0.007 A 
ATOM     17  C   UNL     1      -5.064   3.335   1.606  0.00  0.00    +0.022 A 
ATOM     18  C   UNL     1      -5.752   3.637   0.445  0.00  0.00    +0.059 A 
ATOM     19  C   UNL     1      -5.362   3.071  -0.757  0.00  0.00    +0.060 A 
ATOM     20  C   UNL     1      -4.285   2.203  -0.795  0.00  0.00    +0.027 A 
ATOM     21 CL   UNL     1      -6.224   3.449  -2.215  0.00  0.00    -0.082 Cl
ATOM     22 CL   UNL     1      -7.103   4.726   0.494  0.00  0.00    -0.082 Cl
ENDBRANCH  14  15
ENDBRANCH  13  14
ENDBRANCH   5  12
TORSDOF 3
