REMARK  Name = ZINC39466997
REMARK  7 active torsions:
REMARK  status: ('A' for Active; 'I' for Inactive)
REMARK    1  A    between atoms: C_1  and  C_2
REMARK    2  A    between atoms: C_2  and  C_3
REMARK    3  A    between atoms: C_2  and  S_4
REMARK    4  A    between atoms: S_4  and  C_7
REMARK    5  A    between atoms: P_16  and  C_26
REMARK    6  A    between atoms: C_24  and  O_25
REMARK    7  A    between atoms: C_26  and  C_27
REMARK                            x       y       z     vdW  Elec       q    Type
REMARK                         _______ _______ _______ _____ _____    ______ ____
ROOT
ATOM      1  C   UNL     1      -1.536  -2.381   0.152  0.00  0.00    +0.126 C 
ATOM      2  C   UNL     1      -1.985  -3.012   1.237  0.00  0.00    +0.007 C 
ATOM      3  C   UNL     1      -1.842  -4.506   1.318  0.00  0.00    +0.018 C 
ATOM      4  C   UNL     1      -2.851  -5.116   2.285  0.00  0.00    -0.003 C 
ATOM      5  C   UNL     1      -2.685  -6.643   2.301  0.00  0.00    -0.020 C 
ATOM      6  C   UNL     1      -3.735  -7.204   3.268  0.00  0.00    +0.156 C 
ATOM      7  O   UNL     1      -3.562  -8.629   3.385  0.00  0.00    -0.319 OA
ATOM      8  P   UNL     1      -3.459  -9.494   2.012  0.00  0.00    +0.262 P 
ATOM      9  O   UNL     1      -4.810  -9.743   1.460  0.00  0.00    -0.274 OA
ATOM     10  N   UNL     1      -2.580  -8.559   0.973  0.00  0.00    -0.291 NA
ATOM     11  N   UNL     1      -2.859  -7.206   0.963  0.00  0.00    +0.397 N 
ATOM     12  C   UNL     1      -1.912  -6.615   0.002  0.00  0.00    -0.046 C 
ATOM     13  C   UNL     1      -2.098  -5.105  -0.071  0.00  0.00    +0.008 C 
ATOM     14  C   UNL     1      -1.165  -4.461  -1.058  0.00  0.00    +0.022 C 
ATOM     15  C   UNL     1      -0.906  -3.154  -0.936  0.00  0.00    +0.138 C 
ATOM     16  H   UNL     1      -1.907  -8.948   0.394  0.00  0.00    +0.111 HD
ATOM     17  H   UNL     1      -3.805  -7.046   0.650  0.00  0.00    -0.055 HD
ENDROOT
BRANCH   1  18
ATOM     18  S   UNL     1      -1.700  -0.632   0.015  0.00  0.00    +0.002 S 
ATOM     19  O   UNL     1      -2.359  -0.234   1.209  0.00  0.00    -0.169 OA
ATOM     20  O   UNL     1      -2.308  -0.423  -1.252  0.00  0.00    -0.169 OA
BRANCH  18  22
ATOM     21  C   UNL     1      -0.019   1.526   0.010  0.00  0.00    +0.032 C 
ATOM     22  C   UNL     1       0.002  -0.004   0.002  0.00  0.00    +0.130 C 
ATOM     23  C   UNL     1       0.742  -0.511   1.242  0.00  0.00    +0.032 C 
ENDBRANCH  18  22
ENDBRANCH   1  18
BRANCH  15  24
ATOM     24  O   UNL     1      -0.062  -2.543  -1.809  0.00  0.00    -0.505 OA
ATOM     25  H   UNL     1       0.299  -3.133  -2.485  0.00  0.00    +0.292 HD
ENDBRANCH  15  24
BRANCH   8  26
ATOM     26  C   UNL     1      -2.604 -11.074   2.323  0.00  0.00    +0.147 C 
BRANCH  26  27
ATOM     27  C   UNL     1      -3.372 -11.867   3.348  0.00  0.00    -0.037 A 
ATOM     28  C   UNL     1      -3.093 -11.711   4.693  0.00  0.00    +0.004 A 
ATOM     29  C   UNL     1      -3.797 -12.439   5.634  0.00  0.00    +0.000 A 
ATOM     30  C   UNL     1      -4.780 -13.323   5.230  0.00  0.00    +0.000 A 
ATOM     31  C   UNL     1      -5.060 -13.478   3.885  0.00  0.00    +0.000 A 
ATOM     32  C   UNL     1      -4.359 -12.747   2.944  0.00  0.00    +0.004 A 
ENDBRANCH  26  27
ENDBRANCH   8  26
TORSDOF 5
