REMARK  Name = ZINC45794948
REMARK  6 active torsions:
REMARK  status: ('A' for Active; 'I' for Inactive)
REMARK    1  A    between atoms: C_1  and  C_2
REMARK    2  A    between atoms: C_2  and  C_25
REMARK    3  A    between atoms: N_5  and  C_9
REMARK    4  A    between atoms: C_9  and  C_10
REMARK    5  A    between atoms: C_12  and  C_15
REMARK    6  A    between atoms: C_18  and  C_21
REMARK                            x       y       z     vdW  Elec       q    Type
REMARK                         _______ _______ _______ _____ _____    ______ ____
ROOT
ATOM      1  C   UNL     1      -0.019   1.526   0.010  0.00  0.00    +0.047 C 
ATOM      2  C   UNL     1       0.002  -0.004   0.002  0.00  0.00    +0.135 C 
ATOM      3  C   UNL     1       0.815  -0.520  -1.169  0.00  0.00    +0.251 C 
ATOM      4  O   UNL     1       0.595  -0.342  -2.348  0.00  0.00    -0.272 OA
ATOM      5  N   UNL     1       1.833  -1.217  -0.627  0.00  0.00    -0.215 N 
ATOM      6  C   UNL     1       1.777  -1.214   0.710  0.00  0.00    +0.310 C 
ATOM      7  O   UNL     1       2.586  -1.776   1.421  0.00  0.00    -0.252 OA
ATOM      8  N   UNL     1       0.724  -0.519   1.178  0.00  0.00    -0.281 N 
ATOM      9  H   UNL     1       0.487  -0.383   2.109  0.00  0.00    +0.152 HD
ENDROOT
BRANCH   2  10
ATOM     10  C   UNL     1      -1.401  -0.551  -0.040  0.00  0.00    -0.015 A 
ATOM     11  C   UNL     1      -2.004  -0.815  -1.256  0.00  0.00    +0.007 A 
ATOM     12  C   UNL     1      -3.291  -1.317  -1.295  0.00  0.00    +0.020 A 
ATOM     13  C   UNL     1      -3.976  -1.556  -0.117  0.00  0.00    +0.041 A 
ATOM     14  C   UNL     1      -3.372  -1.293   1.100  0.00  0.00    +0.020 A 
ATOM     15  C   UNL     1      -2.083  -0.796   1.137  0.00  0.00    +0.007 A 
ATOM     16 CL   UNL     1      -5.593  -2.186  -0.165  0.00  0.00    -0.084 Cl
ENDBRANCH   2  10
BRANCH   5  17
ATOM     17  C   UNL     1       2.871  -1.896  -1.406  0.00  0.00    +0.216 C 
BRANCH  17  18
ATOM     18  C   UNL     1       4.020  -0.950  -1.644  0.00  0.00    +0.246 A 
ATOM     19  N   UNL     1       5.059  -0.804  -0.871  0.00  0.00    -0.190 NA
ATOM     20  C   UNL     1       5.887   0.123  -1.384  0.00  0.00    +0.202 A 
ATOM     21  N   UNL     1       5.370   0.576  -2.499  0.00  0.00    -0.056 NA
ATOM     22  O   UNL     1       4.148  -0.121  -2.688  0.00  0.00    -0.336 OA
BRANCH  20  23
ATOM     23  C   UNL     1       7.173   0.561  -0.785  0.00  0.00    +0.022 A 
ATOM     24  C   UNL     1       7.617  -0.005   0.409  0.00  0.00    +0.012 A 
ATOM     25  C   UNL     1       8.813   0.406   0.961  0.00  0.00    +0.013 A 
ATOM     26  C   UNL     1       9.570   1.378   0.332  0.00  0.00    +0.055 A 
ATOM     27  C   UNL     1       9.134   1.942  -0.853  0.00  0.00    +0.013 A 
ATOM     28  C   UNL     1       7.943   1.534  -1.417  0.00  0.00    +0.012 A 
BRANCH  26  29
ATOM     29  C   UNL     1      10.875   1.823   0.941  0.00  0.00    +0.417 C 
ATOM     30  F   UNL     1      11.915   1.026   0.450  0.00  0.00    -0.166 F 
ATOM     31  F   UNL     1      11.114   3.160   0.605  0.00  0.00    -0.166 F 
ATOM     32  F   UNL     1      10.808   1.697   2.332  0.00  0.00    -0.166 F 
ENDBRANCH  26  29
ENDBRANCH  20  23
ENDBRANCH  17  18
ENDBRANCH   5  17
TORSDOF 5
