REMARK  Name = ZINC41351476
REMARK  6 active torsions:
REMARK  status: ('A' for Active; 'I' for Inactive)
REMARK    1  A    between atoms: C_1  and  C_2
REMARK    2  A    between atoms: C_4  and  C_19
REMARK    3  A    between atoms: C_5  and  C_9
REMARK    4  A    between atoms: C_6  and  C_8
REMARK    5  A    between atoms: C_9  and  C_16
REMARK    6  A    between atoms: N_12  and  C_15
REMARK                            x       y       z     vdW  Elec       q    Type
REMARK                         _______ _______ _______ _____ _____    ______ ____
ROOT
ATOM      1  C   UNL     1      -1.197  -3.687   1.246  0.00  0.00    +0.094 C 
ATOM      2  C   UNL     1      -2.566  -3.950   0.612  0.00  0.00    +0.004 C 
ATOM      3  C   UNL     1      -3.240  -5.120   1.332  0.00  0.00    -0.078 C 
ATOM      4  N   UNL     1      -3.412  -4.791   2.752  0.00  0.00    +0.378 N 
ATOM      5  C   UNL     1      -2.100  -4.607   3.384  0.00  0.00    -0.078 C 
ATOM      6  C   UNL     1      -1.383  -3.418   2.742  0.00  0.00    +0.004 C 
ATOM      7  C   UNL     1      -4.129  -5.883   3.423  0.00  0.00    -0.096 C 
ATOM      8  H   UNL     1      -3.947  -3.939   2.836  0.00  0.00    -0.082 HD
ENDROOT
BRANCH   1  13
ATOM      9  C   UNL     1       1.244   0.913  -1.259  0.00  0.00    +0.044 C 
ATOM     10  C   UNL     1       0.607  -0.287  -0.606  0.00  0.00    -0.050 A 
ATOM     11  C   UNL     1       1.153  -0.816   0.549  0.00  0.00    +0.007 A 
ATOM     12  C   UNL     1       0.569  -1.916   1.149  0.00  0.00    -0.046 A 
ATOM     13  C   UNL     1      -0.561  -2.487   0.593  0.00  0.00    -0.025 A 
ATOM     14  C   UNL     1      -1.107  -1.958  -0.561  0.00  0.00    -0.046 A 
ATOM     15  C   UNL     1      -0.526  -0.855  -1.158  0.00  0.00    +0.007 A 
ATOM     16  C   UNL     1      -2.339  -2.580  -1.166  0.00  0.00    +0.044 C 
ATOM     17  C   UNL     1       1.164  -2.493   2.407  0.00  0.00    +0.044 C 
ENDBRANCH   1  13
BRANCH   1  18
ATOM     18  C   UNL     1      -0.312  -4.892   1.057  0.00  0.00    +0.366 C 
ATOM     19  O   UNL     1       0.739  -4.787   0.448  0.00  0.00    -0.245 OA
ATOM     20  O   UNL     1      -0.647  -5.972   1.513  0.00  0.00    -0.245 OA
ENDBRANCH   1  18
TORSDOF 2
