REMARK  Name = ZINC63386378
REMARK  9 active torsions:
REMARK  status: ('A' for Active; 'I' for Inactive)
REMARK    1  A    between atoms: C_1  and  C_2
REMARK    2  A    between atoms: C_5  and  O_33
REMARK    3  A    between atoms: C_7  and  O_32
REMARK    4  A    between atoms: C_13  and  C_15
REMARK    5  A    between atoms: C_15  and  C_16
REMARK    6  A    between atoms: N_18  and  C_19
REMARK    7  A    between atoms: C_19  and  C_21
REMARK    8  A    between atoms: C_19  and  C_22
REMARK    9  A    between atoms: C_22  and  C_23
REMARK                            x       y       z     vdW  Elec       q    Type
REMARK                         _______ _______ _______ _____ _____    ______ ____
ROOT
ATOM      1  C   UNL     1       1.115  -1.984   1.061  0.00  0.00    +0.111 C 
ENDROOT
BRANCH   1  13
ATOM      2  C   UNL     1      -0.019   1.526   0.010  0.00  0.00    +0.013 C 
ATOM      3  C   UNL     1       0.002  -0.004   0.002  0.00  0.00    +0.037 C 
ATOM      4  C   UNL     1      -1.413  -0.524   0.009  0.00  0.00    +0.040 A 
ATOM      5  C   UNL     1      -2.116  -0.549  -1.192  0.00  0.00    +0.127 A 
ATOM      6  C   UNL     1      -3.420  -1.012  -1.231  0.00  0.00    +0.091 A 
ATOM      7  C   UNL     1      -4.031  -1.454  -0.067  0.00  0.00    +0.124 A 
ATOM      8  C   UNL     1      -3.333  -1.433   1.129  0.00  0.00    +0.092 A 
ATOM      9  C   UNL     1      -2.021  -0.971   1.168  0.00  0.00    +0.142 A 
ATOM     10  O   UNL     1      -1.367  -0.986   2.361  0.00  0.00    -0.425 OA
ATOM     11  C   UNL     1      -0.179  -0.353   2.429  0.00  0.00    +0.317 C 
ATOM     12  O   UNL     1       0.132   0.307   3.392  0.00  0.00    -0.250 OA
ATOM     13  C   UNL     1       0.747  -0.510   1.241  0.00  0.00    +0.114 C 
BRANCH   7  14
ATOM     14  O   UNL     1      -5.312  -1.906  -0.099  0.00  0.00    -0.507 OA
ATOM     15  H   UNL     1      -5.390  -2.855  -0.266  0.00  0.00    +0.292 HD
ENDBRANCH   7  14
BRANCH   5  16
ATOM     16  O   UNL     1      -1.519  -0.115  -2.333  0.00  0.00    -0.506 OA
ATOM     17  H   UNL     1      -1.050  -0.807  -2.820  0.00  0.00    +0.292 HD
ENDBRANCH   5  16
ENDBRANCH   1  13
BRANCH   1  18
ATOM     18  C   UNL     1       1.952  -2.439   2.228  0.00  0.00    +0.214 C 
ATOM     19  O   UNL     1       2.227  -1.662   3.117  0.00  0.00    -0.276 OA
ATOM     20  N   UNL     1       2.395  -3.711   2.284  0.00  0.00    -0.312 N 
ATOM     21  H   UNL     1       2.175  -4.333   1.573  0.00  0.00    +0.149 HD
BRANCH  20  22
ATOM     22  C   UNL     1       3.208  -4.154   3.419  0.00  0.00    +0.074 C 
ATOM     23  C   UNL     1       2.292  -4.577   4.569  0.00  0.00    +0.028 C 
BRANCH  22  24
ATOM     24  C   UNL     1       4.074  -5.341   2.993  0.00  0.00    +0.055 C 
BRANCH  24  25
ATOM     25  C   UNL     1       5.061  -4.894   1.945  0.00  0.00    -0.040 C 
ATOM     26  C   UNL     1       6.340  -4.504   2.147  0.00  0.00    -0.001 A 
ATOM     27  C   UNL     1       7.164  -4.383   3.356  0.00  0.00    +0.010 A 
ATOM     28  C   UNL     1       8.441  -3.954   3.239  0.00  0.00    +0.001 A 
ATOM     29  C   UNL     1       8.996  -3.623   1.996  0.00  0.00    +0.002 A 
ATOM     30  C   UNL     1       8.302  -3.708   0.841  0.00  0.00    +0.026 A 
ATOM     31  C   UNL     1       6.950  -4.148   0.846  0.00  0.00    +0.043 A 
ATOM     32  N   UNL     1       6.082  -4.311  -0.122  0.00  0.00    -0.380 N 
ATOM     33  C   UNL     1       4.823  -4.796   0.455  0.00  0.00    +0.144 C 
ATOM     34  H   UNL     1       6.245  -4.144  -1.064  0.00  0.00    +0.160 HD
ENDBRANCH  24  25
ENDBRANCH  22  24
ENDBRANCH  20  22
ENDBRANCH   1  18
TORSDOF 7
