REMARK  Name = ZINC20718741
REMARK  3 active torsions:
REMARK  status: ('A' for Active; 'I' for Inactive)
REMARK    1  A    between atoms: C_9  and  S_14
REMARK    2  A    between atoms: C_11  and  O_13
REMARK    3  A    between atoms: S_14  and  C_15
REMARK                            x       y       z     vdW  Elec       q    Type
REMARK                         _______ _______ _______ _____ _____    ______ ____
ROOT
ATOM      1  C   UNL     1      -0.017   1.373   0.010  0.00  0.00    +0.000 A 
ATOM      2  C   UNL     1       1.178   2.071   0.002  0.00  0.00    +0.002 A 
ATOM      3  C   UNL     1       2.366   1.387  -0.018  0.00  0.00    +0.028 A 
ATOM      4  C   UNL     1       2.401  -0.025  -0.029  0.00  0.00    +0.071 A 
ATOM      5  C   UNL     1       1.200  -0.715  -0.012  0.00  0.00    -0.022 A 
ATOM      6  C   UNL     1       0.002  -0.004   0.002  0.00  0.00    +0.006 A 
ATOM      7  C   UNL     1       1.071  -2.206   0.008  0.00  0.00    +0.039 C 
ATOM      8  C   UNL     1       2.115  -2.952  -0.764  0.00  0.00    +0.029 C 
ATOM      9  C   UNL     1       3.449  -3.006  -0.061  0.00  0.00    +0.140 C 
ATOM     10  C   UNL     1       4.160  -1.701  -0.109  0.00  0.00    +0.201 C 
ATOM     11  N   UNL     1       3.635  -0.562  -0.062  0.00  0.00    -0.216 NA
ENDROOT
BRANCH  10  12
ATOM     12  O   UNL     1       5.504  -1.746  -0.213  0.00  0.00    -0.495 OA
ATOM     13  H   UNL     1       5.925  -0.876  -0.240  0.00  0.00    +0.293 HD
ENDBRANCH  10  12
BRANCH   9  14
ATOM     14  S   UNL     1       4.483  -4.267  -0.856  0.00  0.00    -0.073 S 
BRANCH  14  15
ATOM     15  C   UNL     1       5.931  -4.324   0.146  0.00  0.00    +0.197 A 
ATOM     16  N   UNL     1       6.164  -3.603   1.220  0.00  0.00    -0.122 NA
ATOM     17  N   UNL     1       7.317  -3.894   1.712  0.00  0.00    -0.129 NA
ATOM     18  C   UNL     1       7.893  -4.825   0.974  0.00  0.00    +0.162 A 
ATOM     19  N   UNL     1       7.016  -5.128  -0.046  0.00  0.00    -0.278 N 
ATOM     20  C   UNL     1       7.339  -6.074  -0.978  0.00  0.00    +0.095 A 
ATOM     21  C   UNL     1       8.517  -6.726  -0.911  0.00  0.00    +0.018 A 
ATOM     22  C   UNL     1       9.431  -6.441   0.121  0.00  0.00    +0.005 A 
ATOM     23  C   UNL     1       9.130  -5.497   1.051  0.00  0.00    +0.049 A 
ENDBRANCH  14  15
ENDBRANCH   9  14
TORSDOF 3
