REMARK  Name = ZINC40500288
REMARK  4 active torsions:
REMARK  status: ('A' for Active; 'I' for Inactive)
REMARK    1  A    between atoms: C_1  and  C_2
REMARK    2  A    between atoms: C_3  and  C_9
REMARK    3  A    between atoms: C_7  and  N_8
REMARK    4  A    between atoms: C_9  and  N_10
REMARK                            x       y       z     vdW  Elec       q    Type
REMARK                         _______ _______ _______ _____ _____    ______ ____
ROOT
ATOM      1  N   UNL     1       1.342   0.543  -2.805  0.00  0.00    -0.188 N 
ATOM      2  C   UNL     1       1.832   1.716  -2.287  0.00  0.00    +0.206 C 
ATOM      3  N   UNL     1       3.079   1.934  -2.059  0.00  0.00    -0.237 NA
ATOM      4  C   UNL     1       4.118   1.080  -2.273  0.00  0.00    +0.092 A 
ATOM      5  C   UNL     1       5.365   1.317  -1.690  0.00  0.00    +0.030 A 
ATOM      6  C   UNL     1       6.408   0.443  -1.915  0.00  0.00    +0.002 A 
ATOM      7  C   UNL     1       6.233  -0.672  -2.715  0.00  0.00    +0.002 A 
ATOM      8  C   UNL     1       5.000  -0.919  -3.300  0.00  0.00    +0.031 A 
ATOM      9  C   UNL     1       3.960  -0.053  -3.081  0.00  0.00    +0.134 A 
ATOM     10  S   UNL     1       2.370  -0.322  -3.799  0.00  0.00    +0.078 S 
ATOM     11  O   UNL     1       2.059  -1.698  -3.629  0.00  0.00    -0.150 OA
ATOM     12  O   UNL     1       2.370   0.321  -5.066  0.00  0.00    -0.150 OA
ENDROOT
BRANCH   1  13
ATOM     13  C   UNL     1      -0.011   0.072  -2.498  0.00  0.00    +0.168 C 
BRANCH  13  16
ATOM     14  C   UNL     1      -0.018   1.503   0.010  0.00  0.00    +0.046 C 
ATOM     15  C   UNL     1       0.002  -0.004   0.002  0.00  0.00    -0.025 A 
ATOM     16  C   UNL     1       0.006  -0.689  -1.198  0.00  0.00    -0.024 A 
ATOM     17  C   UNL     1       0.024  -2.071  -1.206  0.00  0.00    +0.005 A 
ATOM     18  C   UNL     1       0.039  -2.773  -0.014  0.00  0.00    +0.002 A 
ATOM     19  C   UNL     1       0.036  -2.095   1.188  0.00  0.00    +0.023 A 
ATOM     20  C   UNL     1       0.023  -0.706   1.200  0.00  0.00    +0.028 A 
BRANCH  20  21
ATOM     21  N   UNL     1       0.025  -0.016   2.415  0.00  0.00    -0.358 N 
ATOM     22  H   UNL     1       0.012   0.954   2.422  0.00  0.00    +0.142 HD
ATOM     23  H   UNL     1       0.040  -0.507   3.252  0.00  0.00    +0.142 HD
ENDBRANCH  20  21
ENDBRANCH  13  16
ENDBRANCH   1  13
TORSDOF 3
