REMARK  Name = ZINC19234216
REMARK  6 active torsions:
REMARK  status: ('A' for Active; 'I' for Inactive)
REMARK    1  A    between atoms: C_1  and  C_2
REMARK    2  A    between atoms: C_7  and  C_15
REMARK    3  A    between atoms: C_13  and  C_14
REMARK    4  A    between atoms: C_15  and  C_17
REMARK    5  A    between atoms: C_15  and  N_28
REMARK    6  A    between atoms: N_21  and  C_22
REMARK                            x       y       z     vdW  Elec       q    Type
REMARK                         _______ _______ _______ _____ _____    ______ ____
ROOT
ATOM      1  C   UNL     1      -4.985   1.048   0.031  0.00  0.00    +0.163 C 
ENDROOT
BRANCH   1   8
ATOM      2  C   UNL     1       2.357   4.084  -0.673  0.00  0.00    +0.044 C 
ATOM      3  C   UNL     1       1.077   3.303  -0.525  0.00  0.00    -0.046 A 
ATOM      4  C   UNL     1       1.125   1.920  -0.411  0.00  0.00    +0.004 A 
ATOM      5  C   UNL     1      -0.024   1.194  -0.276  0.00  0.00    +0.010 A 
ATOM      6  C   UNL     1      -1.260   1.848  -0.258  0.00  0.00    -0.001 A 
ATOM      7  C   UNL     1      -2.511   1.100  -0.120  0.00  0.00    +0.021 A 
ATOM      8  C   UNL     1      -3.680   1.788  -0.109  0.00  0.00    +0.042 A 
ATOM      9  C   UNL     1      -3.678   3.194  -0.228  0.00  0.00    +0.254 A 
ATOM     10  O   UNL     1      -4.739   3.793  -0.217  0.00  0.00    -0.268 OA
ATOM     11  N   UNL     1      -2.533   3.891  -0.344  0.00  0.00    -0.322 N 
ATOM     12  H   UNL     1      -2.562   4.988  -0.421  0.00  0.00    +0.169 HD
ATOM     13  C   UNL     1      -1.313   3.251  -0.367  0.00  0.00    +0.052 A 
ATOM     14  C   UNL     1      -0.129   3.969  -0.504  0.00  0.00    -0.024 A 
ATOM     15  C   UNL     1      -0.167   5.471  -0.628  0.00  0.00    +0.046 C 
ENDBRANCH   1   8
BRANCH   1  16
ATOM     16  N   UNL     1      -5.749   1.611   1.153  0.00  0.00    -0.284 NA
ATOM     17  C   UNL     1      -5.009   1.470   2.417  0.00  0.00    +0.090 C 
ATOM     18  C   UNL     1      -5.659   2.377   3.463  0.00  0.00    +0.051 C 
ATOM     19  C   UNL     1      -7.146   2.136   3.500  0.00  0.00    -0.042 A 
ATOM     20  C   UNL     1      -7.862   2.586   4.599  0.00  0.00    +0.004 A 
ATOM     21  C   UNL     1      -9.227   2.393   4.669  0.00  0.00    +0.000 A 
ATOM     22  C   UNL     1      -9.884   1.748   3.638  0.00  0.00    +0.000 A 
ATOM     23  C   UNL     1      -9.172   1.298   2.544  0.00  0.00    +0.005 A 
ATOM     24  C   UNL     1      -7.800   1.490   2.473  0.00  0.00    -0.030 A 
ATOM     25  C   UNL     1      -7.067   0.977   1.261  0.00  0.00    +0.120 C 
ENDBRANCH   1  16
BRANCH   1  26
ATOM     26  C   UNL     1      -5.782   1.191  -1.240  0.00  0.00    +0.173 A 
ATOM     27  N   UNL     1      -6.475   2.238  -1.617  0.00  0.00    -0.111 NA
ATOM     28  N   UNL     1      -7.010   1.971  -2.758  0.00  0.00    -0.023 NA
ATOM     29  N   UNL     1      -6.676   0.781  -3.120  0.00  0.00    -0.044 NA
ATOM     30  N   UNL     1      -5.915   0.269  -2.213  0.00  0.00    -0.224 N 
BRANCH  30  31
ATOM     31  C   UNL     1      -5.312  -1.065  -2.235  0.00  0.00    +0.111 C 
ATOM     32  C   UNL     1      -4.404  -1.194  -3.460  0.00  0.00    +0.027 C 
ATOM     33  C   UNL     1      -3.774  -2.588  -3.483  0.00  0.00    +0.002 C 
ATOM     34  C   UNL     1      -4.877  -3.646  -3.553  0.00  0.00    +0.000 C 
ATOM     35  C   UNL     1      -5.785  -3.517  -2.328  0.00  0.00    +0.002 C 
ATOM     36  C   UNL     1      -6.415  -2.123  -2.304  0.00  0.00    +0.027 C 
ENDBRANCH  30  31
ENDBRANCH   1  26
TORSDOF 4
