REMARK  Name = ZINC01461904
REMARK  4 active torsions:
REMARK  status: ('A' for Active; 'I' for Inactive)
REMARK    1  A    between atoms: C_1  and  O_2
REMARK    2  A    between atoms: O_2  and  C_3
REMARK    3  A    between atoms: C_6  and  C_12
REMARK    4  A    between atoms: C_8  and  N_9
REMARK                            x       y       z     vdW  Elec       q    Type
REMARK                         _______ _______ _______ _____ _____    ______ ____
ROOT
ATOM      1  C   UNL     1      -0.018   1.514   0.010  0.00  0.00    +0.105 C 
ATOM      2  C   UNL     1       0.002  -0.004   0.002  0.00  0.00    +0.029 C 
ATOM      3  C   UNL     1      -1.343  -0.722  -0.169  0.00  0.00    +0.033 C 
ATOM      4  C   UNL     1      -0.915  -2.017  -0.861  0.00  0.00    -0.030 C 
ATOM      5  C   UNL     1       0.217  -1.824  -1.526  0.00  0.00    -0.023 C 
ATOM      6  C   UNL     1       0.623  -0.403  -1.370  0.00  0.00    +0.049 C 
ATOM      7  C   UNL     1       2.043   0.007  -1.362  0.00  0.00    -0.018 A 
ATOM      8  C   UNL     1       3.029  -0.724  -1.990  0.00  0.00    +0.026 A 
ATOM      9  C   UNL     1       4.342  -0.290  -1.965  0.00  0.00    +0.041 A 
ATOM     10  C   UNL     1       4.671   0.882  -1.307  0.00  0.00    +0.022 A 
ATOM     11  C   UNL     1       3.692   1.617  -0.671  0.00  0.00    +0.024 A 
ATOM     12  C   UNL     1       2.370   1.187  -0.684  0.00  0.00    +0.031 A 
ATOM     13  N   UNL     1       1.401   1.932  -0.001  0.00  0.00    -0.336 N 
ATOM     14 CL   UNL     1       5.578  -1.217  -2.758  0.00  0.00    -0.084 Cl
ATOM     15  H   UNL     1       1.664   2.736   0.473  0.00  0.00    +0.147 HD
ENDROOT
BRANCH   1  19
ATOM     16  C   UNL     1      -1.950   2.945   3.543  0.00  0.00    +0.150 A 
ATOM     17  C   UNL     1      -0.628   2.527   3.595  0.00  0.00    +0.048 A 
ATOM     18  C   UNL     1      -0.006   2.065   2.452  0.00  0.00    +0.009 A 
ATOM     19  C   UNL     1      -0.700   2.019   1.256  0.00  0.00    -0.025 A 
ATOM     20  C   UNL     1      -2.015   2.440   1.201  0.00  0.00    +0.042 A 
ATOM     21  C   UNL     1      -2.644   2.898   2.343  0.00  0.00    +0.168 A 
BRANCH  21  22
ATOM     22  N   UNL     1      -4.054   3.343   2.284  0.00  0.00    +0.060 N 
ATOM     23  O   UNL     1      -4.663   3.301   1.230  0.00  0.00    -0.126 OA
ATOM     24  O   UNL     1      -4.606   3.751   3.290  0.00  0.00    -0.126 OA
ENDBRANCH  21  22
BRANCH  16  26
ATOM     25  C   UNL     1      -1.789   3.421   5.867  0.00  0.00    +0.277 C 
ATOM     26  O   UNL     1      -2.565   3.400   4.667  0.00  0.00    -0.493 OA
ENDBRANCH  16  26
ENDBRANCH   1  19
TORSDOF 3
