REMARK  Name = ZINC07713314
REMARK  5 active torsions:
REMARK  status: ('A' for Active; 'I' for Inactive)
REMARK    1  A    between atoms: C_1  and  C_2
REMARK    2  A    between atoms: C_2  and  C_3
REMARK    3  A    between atoms: C_3  and  N_4
REMARK    4  A    between atoms: N_9  and  C_12
REMARK    5  A    between atoms: C_16  and  C_17
REMARK                            x       y       z     vdW  Elec       q    Type
REMARK                         _______ _______ _______ _____ _____    ______ ____
ROOT
ATOM      1  N   UNL     1      -5.764   0.235  -0.230  0.00  0.00    -0.281 N 
ATOM      2  C   UNL     1      -5.139   1.456  -0.174  0.00  0.00    +0.123 A 
ATOM      3  C   UNL     1      -5.929   2.608  -0.229  0.00  0.00    +0.126 A 
ATOM      4  C   UNL     1      -7.379   2.465  -0.343  0.00  0.00    +0.269 A 
ATOM      5  O   UNL     1      -8.100   3.444  -0.394  0.00  0.00    -0.267 OA
ATOM      6  N   UNL     1      -7.899   1.219  -0.392  0.00  0.00    -0.263 N 
ATOM      7  C   UNL     1      -7.099   0.142  -0.336  0.00  0.00    +0.333 A 
ATOM      8  O   UNL     1      -7.604  -0.963  -0.382  0.00  0.00    -0.246 OA
ATOM      9  C   UNL     1      -9.349   1.041  -0.507  0.00  0.00    +0.157 C 
ATOM     10  C   UNL     1      -5.032   3.760  -0.151  0.00  0.00    +0.216 C 
ATOM     11  O   UNL     1      -5.336   4.941  -0.168  0.00  0.00    -0.285 OA
ATOM     12  C   UNL     1      -3.680   3.182  -0.049  0.00  0.00    +0.081 C 
ATOM     13  C   UNL     1      -2.513   3.868   0.046  0.00  0.00    +0.035 C 
ATOM     14  N   UNL     1      -3.829   1.798  -0.075  0.00  0.00    -0.297 N 
ATOM     15  H   UNL     1      -3.096   1.164  -0.026  0.00  0.00    +0.154 HD
ENDROOT
BRANCH  13  16
ATOM     16  C   UNL     1      -1.232   3.153  -0.032  0.00  0.00    -0.022 A 
ATOM     17  C   UNL     1      -1.147   1.936  -0.720  0.00  0.00    +0.011 A 
ATOM     18  C   UNL     1       0.056   1.268  -0.784  0.00  0.00    +0.040 A 
ATOM     19  C   UNL     1       1.184   1.802  -0.179  0.00  0.00    +0.137 A 
ATOM     20  C   UNL     1       1.108   3.010   0.500  0.00  0.00    +0.054 A 
ATOM     21  C   UNL     1      -0.090   3.687   0.577  0.00  0.00    +0.026 A 
ATOM     22 BR   UNL     1       2.652   3.729   1.321  0.00  0.00    -0.047 Br
ATOM     23  F   UNL     1       2.361   1.144  -0.251  0.00  0.00    -0.204 F 
ENDBRANCH  13  16
BRANCH   1  24
ATOM     24  C   UNL     1      -4.960  -0.989  -0.174  0.00  0.00    +0.128 C 
BRANCH  24  26
ATOM     25  C   UNL     1      -3.727  -2.683  -1.535  0.00  0.00    +0.005 C 
ATOM     26  C   UNL     1      -4.567  -1.405  -1.593  0.00  0.00    +0.018 C 
ENDBRANCH  24  26
ENDBRANCH   1  24
TORSDOF 3
