REMARK  Name = ZINC43619560
REMARK  6 active torsions:
REMARK  status: ('A' for Active; 'I' for Inactive)
REMARK    1  A    between atoms: C_1  and  O_2
REMARK    2  A    between atoms: O_2  and  C_3
REMARK    3  A    between atoms: C_5  and  C_12
REMARK    4  A    between atoms: C_12  and  N_13
REMARK    5  A    between atoms: N_25  and  C_26
REMARK    6  A    between atoms: C_26  and  C_27
REMARK                            x       y       z     vdW  Elec       q    Type
REMARK                         _______ _______ _______ _____ _____    ______ ____
ROOT
ATOM      1  N   UNL     1       3.821   0.959  -3.921  0.00  0.00    +0.383 N 
ATOM      2  C   UNL     1       4.678  -0.232  -3.860  0.00  0.00    -0.077 C 
ATOM      3  C   UNL     1       6.088   0.180  -3.433  0.00  0.00    +0.004 C 
ATOM      4  C   UNL     1       6.659   1.175  -4.443  0.00  0.00    +0.076 C 
ATOM      5  C   UNL     1       5.715   2.366  -4.595  0.00  0.00    -0.007 C 
ATOM      6  C   UNL     1       4.314   1.869  -4.960  0.00  0.00    -0.073 C 
ATOM      7  C   UNL     1       6.235   3.258  -5.731  0.00  0.00    +0.013 C 
ATOM      8  C   UNL     1       6.091   2.493  -7.049  0.00  0.00    +0.096 C 
ATOM      9  C   UNL     1       6.658   1.110  -6.905  0.00  0.00    +0.216 C 
ATOM     10  O   UNL     1       6.923   0.490  -7.913  0.00  0.00    -0.276 OA
ATOM     11  N   UNL     1       6.865   0.533  -5.732  0.00  0.00    -0.298 N 
ATOM     12  H   UNL     1       3.836   1.429  -3.028  0.00  0.00    -0.081 HD
ENDROOT
BRANCH   1  13
ATOM     13  C   UNL     1       2.444   0.555  -4.237  0.00  0.00    -0.043 C 
BRANCH  13  16
ATOM     14  C   UNL     1       0.803  -0.373  -0.962  0.00  0.00    +0.166 A 
ATOM     15  C   UNL     1       1.319   0.374  -2.010  0.00  0.00    +0.051 A 
ATOM     16  C   UNL     1       1.885  -0.260  -3.100  0.00  0.00    -0.057 A 
ATOM     17  C   UNL     1       1.941  -1.640  -3.149  0.00  0.00    +0.051 A 
ATOM     18  C   UNL     1       1.428  -2.395  -2.105  0.00  0.00    +0.170 A 
ATOM     19  C   UNL     1       0.862  -1.760  -1.005  0.00  0.00    +0.208 A 
ATOM     20  O   UNL     1       0.440  -2.712  -0.120  0.00  0.00    -0.449 OA
ATOM     21  C   UNL     1       0.390  -3.939  -0.872  0.00  0.00    +0.467 C 
ATOM     22  O   UNL     1       1.360  -3.745  -1.913  0.00  0.00    -0.452 OA
BRANCH  14  24
ATOM     23  C   UNL     1       0.220   1.681   0.086  0.00  0.00    +0.277 C 
ATOM     24  O   UNL     1       0.246   0.252   0.110  0.00  0.00    -0.491 OA
ENDBRANCH  14  24
ENDBRANCH  13  16
ENDBRANCH   1  13
BRANCH  11  25
ATOM     25  C   UNL     1       7.360  -0.845  -5.744  0.00  0.00    +0.111 C 
BRANCH  25  26
ATOM     26  C   UNL     1       8.885  -0.841  -5.611  0.00  0.00    +0.006 C 
ATOM     27  C   UNL     1       9.502  -0.184  -6.847  0.00  0.00    +0.005 C 
ATOM     28  C   UNL     1      11.027  -0.180  -6.715  0.00  0.00    +0.000 C 
ATOM     29  C   UNL     1      11.532  -1.619  -6.596  0.00  0.00    +0.000 C 
ATOM     30  C   UNL     1      10.914  -2.276  -5.360  0.00  0.00    +0.000 C 
ATOM     31  C   UNL     1       9.390  -2.280  -5.493  0.00  0.00    +0.005 C 
ENDBRANCH  25  26
ENDBRANCH  11  25
TORSDOF 5
