REMARK  Name = ZINC53205984
REMARK  5 active torsions:
REMARK  status: ('A' for Active; 'I' for Inactive)
REMARK    1  A    between atoms: C_1  and  N_2
REMARK    2  A    between atoms: C_6  and  N_9
REMARK    3  A    between atoms: N_9  and  C_10
REMARK    4  A    between atoms: N_9  and  C_11
REMARK    5  A    between atoms: C_16  and  N_17
REMARK                            x       y       z     vdW  Elec       q    Type
REMARK                         _______ _______ _______ _____ _____    ______ ____
ROOT
ATOM      1  C   UNL     1       0.700  -3.266   3.377  0.00  0.00    +0.051 A 
ATOM      2  C   UNL     1       0.671  -4.648   3.268  0.00  0.00    +0.030 A 
ATOM      3  C   UNL     1       0.003  -5.403   4.213  0.00  0.00    -0.024 A 
ATOM      4  C   UNL     1      -0.640  -4.782   5.275  0.00  0.00    +0.038 A 
ATOM      5  C   UNL     1      -0.614  -3.398   5.390  0.00  0.00    +0.048 A 
ATOM      6  C   UNL     1       0.060  -2.639   4.446  0.00  0.00    +0.048 A 
ATOM      7  N   UNL     1      -1.315  -5.552   6.230  0.00  0.00    -0.285 N 
ATOM      8  C   UNL     1      -1.052  -6.866   6.356  0.00  0.00    +0.218 C 
ATOM      9  O   UNL     1      -1.656  -7.522   7.178  0.00  0.00    -0.275 OA
ATOM     10  C   UNL     1      -0.017  -7.530   5.489  0.00  0.00    +0.101 C 
ATOM     11  C   UNL     1      -0.029  -6.905   4.093  0.00  0.00    +0.046 C 
ATOM     12  H   UNL     1      -1.978  -5.136   6.804  0.00  0.00    +0.155 HD
ENDROOT
BRANCH   6  13
ATOM     13  N   UNL     1       0.093  -1.244   4.562  0.00  0.00    -0.356 N 
ATOM     14  H   UNL     1       0.561  -0.713   3.899  0.00  0.00    +0.142 HD
ATOM     15  H   UNL     1      -0.353  -0.809   5.306  0.00  0.00    +0.142 HD
ENDBRANCH   6  13
BRANCH   1  16
ATOM     16  N   UNL     1       1.377  -2.500   2.417  0.00  0.00    -0.330 N 
ATOM     17  C   UNL     1       2.795  -2.182   2.601  0.00  0.00    +0.129 C 
BRANCH  16  23
ATOM     18  C   UNL     1      -0.018   1.465   0.010  0.00  0.00    -0.096 C 
ATOM     19  N   UNL     1       0.002  -0.004   0.002  0.00  0.00    +0.379 N 
ATOM     20  C   UNL     1       0.681  -0.476  -1.210  0.00  0.00    -0.079 C 
ATOM     21  C   UNL     1       0.634  -2.005  -1.264  0.00  0.00    -0.017 C 
ATOM     22  C   UNL     1       1.336  -2.575  -0.029  0.00  0.00    +0.019 C 
ATOM     23  C   UNL     1       0.666  -2.018   1.230  0.00  0.00    +0.057 C 
ATOM     24  C   UNL     1       0.712  -0.489   1.192  0.00  0.00    -0.057 C 
ATOM     25  H   UNL     1      -0.945  -0.352   0.012  0.00  0.00    -0.082 HD
ENDBRANCH  16  23
ENDBRANCH   1  16
TORSDOF 3
