REMARK  Name = ZINC62775611
REMARK  2 active torsions:
REMARK  status: ('A' for Active; 'I' for Inactive)
REMARK    1  A    between atoms: C_8  and  C_12
REMARK    2  A    between atoms: C_12  and  C_14
REMARK                            x       y       z     vdW  Elec       q    Type
REMARK                         _______ _______ _______ _____ _____    ______ ____
ROOT
ATOM      1  C   UNL     1      -0.017   1.383   0.010  0.00  0.00    +0.017 A 
ATOM      2  C   UNL     1       1.159   2.102   0.002  0.00  0.00    +0.027 A 
ATOM      3  C   UNL     1       2.380   1.435  -0.013  0.00  0.00    +0.047 A 
ATOM      4  C   UNL     1       2.397   0.031  -0.021  0.00  0.00    +0.012 A 
ATOM      5  C   UNL     1       1.202  -0.683  -0.013  0.00  0.00    +0.026 A 
ATOM      6  C   UNL     1       0.002  -0.004   0.002  0.00  0.00    +0.019 A 
ATOM      7 BR   UNL     1      -1.625  -0.968   0.013  0.00  0.00    -0.050 Br
ATOM      8  C   UNL     1       3.821  -0.355  -0.037  0.00  0.00    +0.049 A 
ATOM      9  C   UNL     1       4.537   0.808  -0.038  0.00  0.00    +0.095 A 
ATOM     10  N   UNL     1       3.691   1.866  -0.024  0.00  0.00    -0.360 N 
ATOM     11  H   UNL     1       3.968   2.795  -0.022  0.00  0.00    +0.165 HD
ENDROOT
BRANCH   8  12
ATOM     12  C   UNL     1       4.362  -1.720  -0.049  0.00  0.00    +0.215 C 
ATOM     13  O   UNL     1       3.606  -2.674  -0.046  0.00  0.00    -0.285 OA
BRANCH  12  14
ATOM     14  C   UNL     1       5.823  -1.935  -0.065  0.00  0.00    +0.132 A 
ATOM     15  C   UNL     1       6.490  -3.183  -0.083  0.00  0.00    +0.052 A 
ATOM     16  C   UNL     1       7.811  -2.887  -0.093  0.00  0.00    +0.105 A 
ATOM     17  N   UNL     1       7.920  -1.541  -0.080  0.00  0.00    -0.284 N 
ATOM     18  H   UNL     1       8.757  -1.052  -0.083  0.00  0.00    +0.188 HD
ATOM     19  N   UNL     1       6.754  -1.001  -0.070  0.00  0.00    -0.171 NA
ENDBRANCH  12  14
ENDBRANCH   8  12
TORSDOF 2
