REMARK  Name = ZINC24877242
REMARK  7 active torsions:
REMARK  status: ('A' for Active; 'I' for Inactive)
REMARK    1  A    between atoms: C_1  and  C_2
REMARK    2  A    between atoms: C_5  and  C_8
REMARK    3  A    between atoms: C_10  and  C_13
REMARK    4  A    between atoms: C_13  and  C_15
REMARK    5  A    between atoms: C_13  and  N_16
REMARK    6  A    between atoms: C_22  and  C_24
REMARK    7  A    between atoms: C_28  and  C_34
REMARK                            x       y       z     vdW  Elec       q    Type
REMARK                         _______ _______ _______ _____ _____    ______ ____
ROOT
ATOM      1  N   UNL     1      -2.184   2.854  -1.082  0.00  0.00    -0.289 NA
ATOM      2  C   UNL     1      -1.998   1.399  -1.154  0.00  0.00    +0.104 C 
ATOM      3  C   UNL     1      -0.846   0.987  -0.231  0.00  0.00    +0.123 C 
ATOM      4  N   UNL     1      -1.111   1.514   1.116  0.00  0.00    -0.297 N 
ATOM      5  C   UNL     1      -1.446   2.940   1.252  0.00  0.00    +0.123 C 
ATOM      6  C   UNL     1      -2.575   3.275   0.270  0.00  0.00    +0.104 C 
ATOM      7  C   UNL     1      -1.054   0.710   2.197  0.00  0.00    +0.237 C 
ATOM      8  O   UNL     1      -1.183   1.178   3.308  0.00  0.00    -0.274 OA
ENDROOT
BRANCH   7   9
ATOM      9  C   UNL     1      -0.829  -0.770   2.024  0.00  0.00    +0.173 C 
ATOM     10  C   UNL     1       0.682  -1.011   1.798  0.00  0.00    +0.103 C 
ATOM     11  S   UNL     1       1.149  -1.730   3.437  0.00  0.00    -0.133 S 
ATOM     12  C   UNL     1      -0.496  -2.480   3.786  0.00  0.00    +0.082 C 
ATOM     13  N   UNL     1      -1.399  -1.463   3.183  0.00  0.00    -0.275 N 
ATOM     14  C   UNL     1      -2.535  -1.426   3.931  0.00  0.00    +0.217 C 
ATOM     15  O   UNL     1      -3.576  -0.912   3.581  0.00  0.00    -0.276 OA
ATOM     16  C   UNL     1      -2.317  -2.114   5.258  0.00  0.00    +0.099 C 
ATOM     17  C   UNL     1      -0.799  -2.417   5.291  0.00  0.00    +0.046 C 
ATOM     18  C   UNL     1      -0.674  -3.880   3.195  0.00  0.00    +0.044 C 
ENDBRANCH   7   9
BRANCH   1  19
ATOM     19  C   UNL     1      -3.162   3.310  -2.078  0.00  0.00    +0.143 C 
ATOM     20  C   UNL     1      -2.612   3.060  -3.484  0.00  0.00    +0.034 C 
BRANCH  19  23
ATOM     21  C   UNL     1      -4.326   6.689  -1.694  0.00  0.00    +0.202 A 
ATOM     22  N   UNL     1      -4.585   5.377  -1.893  0.00  0.00    -0.190 NA
ATOM     23  C   UNL     1      -3.417   4.784  -1.893  0.00  0.00    +0.245 A 
ATOM     24  O   UNL     1      -2.495   5.731  -1.693  0.00  0.00    -0.336 OA
ATOM     25  N   UNL     1      -3.029   6.814  -1.586  0.00  0.00    -0.056 NA
BRANCH  21  30
ATOM     26  C   UNL     1      -8.209  10.932  -1.380  0.00  0.00    +0.044 C 
ATOM     27  C   UNL     1      -7.193   9.822  -1.461  0.00  0.00    -0.050 A 
ATOM     28  C   UNL     1      -5.846  10.108  -1.327  0.00  0.00    +0.004 A 
ATOM     29  C   UNL     1      -4.912   9.096  -1.402  0.00  0.00    +0.012 A 
ATOM     30  C   UNL     1      -5.327   7.782  -1.613  0.00  0.00    +0.022 A 
ATOM     31  C   UNL     1      -6.684   7.500  -1.752  0.00  0.00    +0.012 A 
ATOM     32  C   UNL     1      -7.610   8.520  -1.671  0.00  0.00    +0.004 A 
ENDBRANCH  21  30
ENDBRANCH  19  23
ENDBRANCH   1  19
TORSDOF 4
