REMARK  Name = ZINC66421529
REMARK  10 active torsions:
REMARK  status: ('A' for Active; 'I' for Inactive)
REMARK    1  A    between atoms: C_1  and  C_2
REMARK    2  A    between atoms: C_2  and  C_3
REMARK    3  A    between atoms: C_3  and  C_4
REMARK    4  A    between atoms: C_4  and  C_5
REMARK    5  A    between atoms: C_5  and  C_7
REMARK    6  A    between atoms: C_5  and  N_28
REMARK    7  A    between atoms: N_12  and  C_15
REMARK    8  A    between atoms: C_15  and  C_16
REMARK    9  A    between atoms: N_18  and  C_19
REMARK   10  A    between atoms: C_24  and  C_27
REMARK                            x       y       z     vdW  Elec       q    Type
REMARK                         _______ _______ _______ _____ _____    ______ ____
ROOT
ATOM      1  C   UNL     1       1.417  -4.051   2.529  0.00  0.00    +0.236 C 
ATOM      2  O   UNL     1       2.353  -4.726   2.156  0.00  0.00    -0.274 OA
ATOM      3  N   UNL     1       0.301  -4.646   2.994  0.00  0.00    -0.298 N 
ATOM      4  C   UNL     1      -0.848  -3.846   3.445  0.00  0.00    +0.123 C 
ATOM      5  C   UNL     1      -1.256  -4.326   4.842  0.00  0.00    +0.104 C 
ATOM      6  N   UNL     1      -1.483  -5.777   4.811  0.00  0.00    -0.291 NA
ATOM      7  C   UNL     1      -0.250  -6.502   4.475  0.00  0.00    +0.104 C 
ATOM      8  C   UNL     1       0.197  -6.112   3.057  0.00  0.00    +0.123 C 
ENDROOT
BRANCH   1   9
ATOM      9  C   UNL     1       1.503  -2.548   2.473  0.00  0.00    +0.160 C 
BRANCH   9  10
ATOM     10  N   UNL     1       2.908  -2.140   2.403  0.00  0.00    -0.288 N 
ATOM     11  C   UNL     1       3.678  -2.549   1.374  0.00  0.00    +0.298 C 
ATOM     12  O   UNL     1       3.206  -3.255   0.505  0.00  0.00    -0.253 OA
ATOM     13  N   UNL     1       4.971  -2.175   1.310  0.00  0.00    -0.313 N 
ATOM     14  H   UNL     1       3.285  -1.577   3.097  0.00  0.00    +0.151 HD
ATOM     15  H   UNL     1       5.348  -1.611   2.004  0.00  0.00    +0.146 HD
ATOM     16  H   UNL     1       5.525  -2.469   0.570  0.00  0.00    +0.146 HD
ENDBRANCH   9  10
BRANCH   9  17
ATOM     17  C   UNL     1       0.763  -2.041   1.233  0.00  0.00    +0.032 C 
BRANCH  17  18
ATOM     18  C   UNL     1       0.742  -0.511   1.242  0.00  0.00    +0.002 C 
BRANCH  18  20
ATOM     19  C   UNL     1      -0.019   1.526   0.010  0.00  0.00    +0.004 C 
ATOM     20  C   UNL     1       0.002  -0.004   0.002  0.00  0.00    -0.003 C 
ENDBRANCH  18  20
ENDBRANCH  17  18
ENDBRANCH   9  17
ENDBRANCH   1   9
BRANCH   6  21
ATOM     21  C   UNL     1      -2.041  -6.250   6.085  0.00  0.00    +0.180 C 
BRANCH  21  22
ATOM     22  C   UNL     1      -2.487  -7.682   5.938  0.00  0.00    +0.227 C 
ATOM     23  O   UNL     1      -2.353  -8.252   4.875  0.00  0.00    -0.274 OA
ATOM     24  N   UNL     1      -3.034  -8.329   6.986  0.00  0.00    -0.311 N 
ATOM     25  H   UNL     1      -3.141  -7.873   7.835  0.00  0.00    +0.149 HD
BRANCH  24  26
ATOM     26  C   UNL     1      -3.468  -9.721   6.842  0.00  0.00    +0.073 C 
ATOM     27  C   UNL     1      -4.886  -9.756   6.267  0.00  0.00    +0.022 C 
ATOM     28  C   UNL     1      -5.339 -11.210   6.117  0.00  0.00    +0.002 C 
ATOM     29  C   UNL     1      -5.326 -11.892   7.487  0.00  0.00    +0.003 C 
ATOM     30  C   UNL     1      -3.909 -11.856   8.061  0.00  0.00    -0.012 C 
ATOM     31  C   UNL     1      -3.456 -10.403   8.211  0.00  0.00    +0.025 C 
ATOM     32  C   UNL     1      -3.896 -12.539   9.431  0.00  0.00    +0.007 C 
ENDBRANCH  24  26
ENDBRANCH  21  22
ENDBRANCH   6  21
TORSDOF 8
