REMARK  Name = ZINC01659535
REMARK  3 active torsions:
REMARK  status: ('A' for Active; 'I' for Inactive)
REMARK    1  A    between atoms: C_1  and  C_2
REMARK    2  A    between atoms: C_8  and  C_13
REMARK    3  A    between atoms: C_8  and  C_17
REMARK                            x       y       z     vdW  Elec       q    Type
REMARK                         _______ _______ _______ _____ _____    ______ ____
ROOT
ATOM      1  C   UNL     1       3.621   2.862  -0.018  0.00  0.00    +0.061 C 
ATOM      2  C   UNL     1       2.348   3.669  -0.002  0.00  0.00    +0.018 C 
ATOM      3  C   UNL     1       2.412   5.009  -0.098  0.00  0.00    +0.019 C 
ATOM      4  C   UNL     1       1.237   5.783  -0.084  0.00  0.00    +0.005 C 
ATOM      5  C   UNL     1       0.032   5.170   0.027  0.00  0.00    +0.044 C 
ATOM      6  C   UNL     1      -0.026   3.757   0.128  0.00  0.00    +0.131 C 
ATOM      7  N   UNL     1      -1.204   3.179   0.235  0.00  0.00    -0.226 NA
ATOM      8  C   UNL     1      -1.274   1.714   0.333  0.00  0.00    +0.321 C 
ATOM      9  N   UNL     1      -0.001   0.976   0.318  0.00  0.00    -0.260 N 
ATOM     10  C   UNL     1       1.142   1.680   0.204  0.00  0.00    +0.314 C 
ATOM     11  O   UNL     1       2.203   1.087   0.185  0.00  0.00    -0.252 OA
ATOM     12  N   UNL     1       1.139   3.023   0.112  0.00  0.00    -0.212 N 
ATOM     13  H   UNL     1       0.015   0.008   0.383  0.00  0.00    +0.153 HD
ENDROOT
BRANCH   8  14
ATOM     14  C   UNL     1      -2.129   1.201  -0.828  0.00  0.00    +0.440 C 
ATOM     15  F   UNL     1      -2.361  -0.169  -0.665  0.00  0.00    -0.166 F 
ATOM     16  F   UNL     1      -3.350   1.882  -0.845  0.00  0.00    -0.166 F 
ATOM     17  F   UNL     1      -1.456   1.419  -2.035  0.00  0.00    -0.166 F 
ENDBRANCH   8  14
BRANCH   8  18
ATOM     18  C   UNL     1      -2.002   1.370   1.633  0.00  0.00    +0.440 C 
ATOM     19  F   UNL     1      -1.211   1.746   2.724  0.00  0.00    -0.166 F 
ATOM     20  F   UNL     1      -3.220   2.056   1.682  0.00  0.00    -0.166 F 
ATOM     21  F   UNL     1      -2.240  -0.008   1.684  0.00  0.00    -0.166 F 
ENDBRANCH   8  18
TORSDOF 2
