REMARK  Name = ZINC15776871
REMARK  5 active torsions:
REMARK  status: ('A' for Active; 'I' for Inactive)
REMARK    1  A    between atoms: C_2  and  C_3
REMARK    2  A    between atoms: C_3  and  N_4
REMARK    3  A    between atoms: N_15  and  N_16
REMARK    4  A    between atoms: N_24  and  C_27
REMARK    5  A    between atoms: C_27  and  C_28
REMARK                            x       y       z     vdW  Elec       q    Type
REMARK                         _______ _______ _______ _____ _____    ______ ____
ROOT
ATOM      1  N   UNL     1      -0.068  -4.622  -0.477  0.00  0.00    -0.174 NA
ATOM      2  C   UNL     1      -0.544  -4.974  -1.648  0.00  0.00    +0.153 C 
ATOM      3  C   UNL     1      -1.093  -6.293  -2.040  0.00  0.00    +0.028 A 
ATOM      4  C   UNL     1      -1.271  -7.491  -1.357  0.00  0.00    +0.012 A 
ATOM      5  C   UNL     1      -1.824  -8.575  -2.009  0.00  0.00    +0.001 A 
ATOM      6  C   UNL     1      -2.200  -8.468  -3.338  0.00  0.00    +0.002 A 
ATOM      7  C   UNL     1      -2.027  -7.283  -4.024  0.00  0.00    +0.024 A 
ATOM      8  C   UNL     1      -1.472  -6.180  -3.384  0.00  0.00    +0.046 A 
ATOM      9  N   UNL     1      -1.194  -4.894  -3.833  0.00  0.00    -0.261 N 
ATOM     10  C   UNL     1      -0.654  -4.140  -2.860  0.00  0.00    +0.272 C 
ATOM     11  O   UNL     1      -0.314  -2.976  -2.962  0.00  0.00    -0.268 OA
ENDROOT
BRANCH   1  23
ATOM     12  N   UNL     1       1.367  -1.676   1.111  0.00  0.00    -0.275 N 
ATOM     13  C   UNL     1       1.862  -1.266   2.303  0.00  0.00    +0.263 A 
ATOM     14  O   UNL     1       2.268  -0.130   2.461  0.00  0.00    -0.267 OA
ATOM     15  C   UNL     1       1.889  -2.245   3.399  0.00  0.00    +0.065 A 
ATOM     16  C   UNL     1       2.378  -1.921   4.663  0.00  0.00    +0.015 A 
ATOM     17  C   UNL     1       2.380  -2.879   5.654  0.00  0.00    +0.001 A 
ATOM     18  C   UNL     1       1.900  -4.157   5.401  0.00  0.00    +0.002 A 
ATOM     19  C   UNL     1       1.416  -4.496   4.169  0.00  0.00    +0.028 A 
ATOM     20  C   UNL     1       1.401  -3.546   3.144  0.00  0.00    +0.080 A 
ATOM     21  N   UNL     1       0.929  -3.843   1.910  0.00  0.00    -0.214 NA
ATOM     22  C   UNL     1       0.910  -2.952   0.952  0.00  0.00    +0.219 A 
ATOM     23  N   UNL     1       0.410  -3.321  -0.277  0.00  0.00    -0.206 N 
ATOM     24  H   UNL     1       0.389  -2.679  -1.005  0.00  0.00    +0.177 HD
BRANCH  12  25
ATOM     25  C   UNL     1       1.317  -0.740  -0.015  0.00  0.00    +0.155 C 
BRANCH  25  27
ATOM     26  C   UNL     1      -0.016   1.306   0.009  0.00  0.00    +0.005 C 
ATOM     27  C   UNL     1       0.002  -0.004   0.002  0.00  0.00    -0.013 C 
ENDBRANCH  25  27
ENDBRANCH  12  25
ENDBRANCH   1  23
BRANCH   9  28
ATOM     28  C   UNL     1      -1.460  -4.419  -5.193  0.00  0.00    +0.149 C 
BRANCH  28  29
ATOM     29  C   UNL     1      -2.848  -3.836  -5.259  0.00  0.00    -0.030 A 
ATOM     30  C   UNL     1      -3.924  -4.645  -5.573  0.00  0.00    +0.005 A 
ATOM     31  C   UNL     1      -5.197  -4.109  -5.633  0.00  0.00    +0.000 A 
ATOM     32  C   UNL     1      -5.394  -2.765  -5.379  0.00  0.00    +0.000 A 
ATOM     33  C   UNL     1      -4.318  -1.956  -5.064  0.00  0.00    +0.000 A 
ATOM     34  C   UNL     1      -3.045  -2.492  -5.000  0.00  0.00    +0.005 A 
ENDBRANCH  28  29
ENDBRANCH   9  28
TORSDOF 5
