REMARK  Name = ZINC67543301
REMARK  6 active torsions:
REMARK  status: ('A' for Active; 'I' for Inactive)
REMARK    1  A    between atoms: C_1  and  C_2
REMARK    2  A    between atoms: C_5  and  N_12
REMARK    3  A    between atoms: N_9  and  C_11
REMARK    4  A    between atoms: N_15  and  C_16
REMARK    5  A    between atoms: C_16  and  C_18
REMARK    6  A    between atoms: C_16  and  C_19
REMARK                            x       y       z     vdW  Elec       q    Type
REMARK                         _______ _______ _______ _____ _____    ______ ____
ROOT
ATOM      1  N   UNL     1      -0.023  -1.502  -4.814  0.00  0.00    -0.268 N 
ATOM      2  C   UNL     1       0.102  -2.567  -5.630  0.00  0.00    +0.304 C 
ATOM      3  O   UNL     1       0.133  -3.689  -5.164  0.00  0.00    -0.252 OA
ATOM      4  N   UNL     1       0.193  -2.388  -6.963  0.00  0.00    -0.288 N 
ATOM      5  H   UNL     1      -0.123  -0.612  -5.189  0.00  0.00    +0.156 HD
ATOM      6  H   UNL     1       0.169  -1.492  -7.335  0.00  0.00    +0.151 HD
ENDROOT
BRANCH   1  11
ATOM      7  C   UNL     1       2.327  -4.841  -0.862  0.00  0.00    +0.068 C 
ATOM      8  C   UNL     1       1.382  -3.719  -0.515  0.00  0.00    +0.069 A 
ATOM      9  C   UNL     1       0.734  -2.816  -1.460  0.00  0.00    +0.043 A 
ATOM     10  C   UNL     1       0.756  -2.683  -2.854  0.00  0.00    +0.038 A 
ATOM     11  C   UNL     1      -0.009  -1.678  -3.423  0.00  0.00    +0.054 A 
ATOM     12  C   UNL     1      -0.764  -0.844  -2.600  0.00  0.00    +0.136 A 
ATOM     13  N   UNL     1      -0.767  -0.989  -1.294  0.00  0.00    -0.234 NA
ATOM     14  C   UNL     1      -0.054  -1.935  -0.695  0.00  0.00    +0.158 A 
ATOM     15  N   UNL     1       0.118  -2.295   0.616  0.00  0.00    -0.249 N 
ATOM     16  N   UNL     1       0.992  -3.385   0.682  0.00  0.00    -0.174 NA
ATOM     17  C   UNL     1      -0.516  -1.646   1.766  0.00  0.00    +0.174 C 
ENDBRANCH   1  11
BRANCH   4  18
ATOM     18  C   UNL     1       0.329  -3.546  -7.850  0.00  0.00    +0.157 C 
ATOM     19  C   UNL     1      -1.057  -4.110  -8.168  0.00  0.00    +0.038 C 
BRANCH  18  20
ATOM     20  C   UNL     1       1.005  -3.122  -9.128  0.00  0.00    +0.236 C 
ATOM     21  O   UNL     1       0.949  -1.966  -9.490  0.00  0.00    -0.274 OA
ATOM     22  N   UNL     1       1.673  -4.029  -9.870  0.00  0.00    -0.298 N 
ATOM     23  C   UNL     1       1.636  -5.442  -9.490  0.00  0.00    +0.118 C 
ATOM     24  C   UNL     1       0.899  -6.241 -10.571  0.00  0.00    +0.088 C 
ATOM     25  S   UNL     1       1.737  -5.978 -12.162  0.00  0.00    -0.158 S 
ATOM     26  C   UNL     1       1.784  -4.166 -12.310  0.00  0.00    +0.088 C 
ATOM     27  C   UNL     1       2.422  -3.588 -11.048  0.00  0.00    +0.118 C 
ENDBRANCH  18  20
ENDBRANCH   4  18
TORSDOF 3
