REMARK  Name = ZINC12766569
REMARK  4 active torsions:
REMARK  status: ('A' for Active; 'I' for Inactive)
REMARK    1  A    between atoms: C_1  and  C_2
REMARK    2  A    between atoms: C_5  and  N_11
REMARK    3  A    between atoms: C_7  and  N_8
REMARK    4  A    between atoms: C_12  and  C_14
REMARK                            x       y       z     vdW  Elec       q    Type
REMARK                         _______ _______ _______ _____ _____    ______ ____
ROOT
ATOM      1  N   UNL     1      -1.236   1.921  -0.501  0.00  0.00    -0.285 N 
ATOM      2  C   UNL     1      -0.038   1.320  -0.353  0.00  0.00    +0.225 C 
ATOM      3  O   UNL     1       0.019   0.164   0.008  0.00  0.00    -0.275 OA
ATOM      4  H   UNL     1      -1.281   2.866  -0.716  0.00  0.00    +0.155 HD
ENDROOT
BRANCH   2   5
ATOM      5  C   UNL     1       1.229   2.083  -0.642  0.00  0.00    +0.116 C 
ATOM      6  C   UNL     1       1.220   2.551  -2.098  0.00  0.00    +0.113 C 
ATOM      7  C   UNL     1       1.417   1.375  -3.016  0.00  0.00    +0.218 C 
ATOM      8  O   UNL     1       0.847   1.348  -4.086  0.00  0.00    -0.275 OA
ATOM      9  N   UNL     1       2.216   0.352  -2.662  0.00  0.00    -0.285 N 
ATOM     10  C   UNL     1       2.868   0.356  -1.425  0.00  0.00    +0.040 A 
ATOM     11  C   UNL     1       2.418   1.189  -0.408  0.00  0.00    -0.014 A 
ATOM     12  C   UNL     1       3.061   1.195   0.814  0.00  0.00    +0.009 A 
ATOM     13  C   UNL     1       4.152   0.373   1.027  0.00  0.00    +0.039 A 
ATOM     14  C   UNL     1       4.604  -0.458   0.016  0.00  0.00    +0.125 A 
ATOM     15  C   UNL     1       3.963  -0.468  -1.210  0.00  0.00    +0.062 A 
ATOM     16  F   UNL     1       5.671  -1.260   0.227  0.00  0.00    -0.205 F 
ATOM     17  H   UNL     1       2.342  -0.394  -3.270  0.00  0.00    +0.155 HD
ENDBRANCH   2   5
BRANCH   1  22
ATOM     18  C   UNL     1      -6.011  -1.075   0.136  0.00  0.00    +0.046 C 
ATOM     19  C   UNL     1      -4.742  -0.279  -0.033  0.00  0.00    -0.020 A 
ATOM     20  C   UNL     1      -3.613  -0.883  -0.555  0.00  0.00    +0.007 A 
ATOM     21  C   UNL     1      -2.451  -0.155  -0.717  0.00  0.00    +0.024 A 
ATOM     22  C   UNL     1      -2.413   1.182  -0.344  0.00  0.00    +0.036 A 
ATOM     23  C   UNL     1      -3.549   1.786   0.180  0.00  0.00    +0.056 A 
ATOM     24  C   UNL     1      -4.710   1.054   0.334  0.00  0.00    +0.131 A 
BRANCH  24  25
ATOM     25  N   UNL     1      -5.921   1.697   0.892  0.00  0.00    +0.057 N 
ATOM     26  O   UNL     1      -7.021   1.400   0.462  0.00  0.00    -0.126 OA
ATOM     27  O   UNL     1      -5.817   2.522   1.781  0.00  0.00    -0.126 OA
ENDBRANCH  24  25
ENDBRANCH   1  22
TORSDOF 3
