REMARK  Name = ZINC11330695
REMARK  7 active torsions:
REMARK  status: ('A' for Active; 'I' for Inactive)
REMARK    1  A    between atoms: C_4  and  C_7
REMARK    2  A    between atoms: C_8  and  C_18
REMARK    3  A    between atoms: N_10  and  C_12
REMARK    4  A    between atoms: N_20  and  N_21
REMARK    5  A    between atoms: C_22  and  C_24
REMARK    6  A    between atoms: C_24  and  C_25
REMARK    7  A    between atoms: C_25  and  C_26
REMARK                            x       y       z     vdW  Elec       q    Type
REMARK                         _______ _______ _______ _____ _____    ______ ____
ROOT
ATOM      1  C   UNL     1      -5.372  -4.153  -0.694  0.00  0.00    +0.264 C 
ATOM      2  O   UNL     1      -4.818  -4.422  -1.743  0.00  0.00    -0.269 OA
ATOM      3  N   UNL     1      -5.028  -3.040  -0.016  0.00  0.00    -0.230 N 
ATOM      4  H   UNL     1      -5.469  -2.825   0.820  0.00  0.00    +0.173 HD
ENDROOT
BRANCH   1   6
ATOM      5  C   UNL     1      -6.912  -6.281  -0.777  0.00  0.00    +0.105 A 
ATOM      6  C   UNL     1      -6.419  -5.043  -0.164  0.00  0.00    +0.084 A 
ATOM      7  C   UNL     1      -7.134  -4.875   1.003  0.00  0.00    +0.128 A 
ATOM      8  N   UNL     1      -7.987  -5.907   1.117  0.00  0.00    -0.239 N 
ATOM      9  N   UNL     1      -7.838  -6.763   0.021  0.00  0.00    -0.166 NA
BRANCH   5  13
ATOM     10  C   UNL     1      -5.589  -7.992  -4.437  0.00  0.00    +0.000 A 
ATOM     11  C   UNL     1      -5.962  -8.813  -3.388  0.00  0.00    +0.001 A 
ATOM     12  C   UNL     1      -6.392  -8.263  -2.197  0.00  0.00    +0.010 A 
ATOM     13  C   UNL     1      -6.450  -6.878  -2.053  0.00  0.00    +0.003 A 
ATOM     14  C   UNL     1      -6.078  -6.056  -3.115  0.00  0.00    +0.010 A 
ATOM     15  C   UNL     1      -5.644  -6.617  -4.299  0.00  0.00    +0.001 A 
ENDBRANCH   5  13
BRANCH   8  16
ATOM     16  C   UNL     1      -8.889  -6.097   2.172  0.00  0.00    +0.065 A 
ATOM     17  C   UNL     1      -8.945  -5.180   3.213  0.00  0.00    +0.028 A 
ATOM     18  C   UNL     1      -9.839  -5.367   4.249  0.00  0.00    +0.002 A 
ATOM     19  C   UNL     1     -10.670  -6.473   4.256  0.00  0.00    +0.000 A 
ATOM     20  C   UNL     1     -10.613  -7.391   3.224  0.00  0.00    +0.002 A 
ATOM     21  C   UNL     1      -9.725  -7.206   2.182  0.00  0.00    +0.028 A 
ENDBRANCH   8  16
ENDBRANCH   1   6
BRANCH   3  22
ATOM     22  N   UNL     1      -4.032  -2.193  -0.520  0.00  0.00    -0.234 N 
ATOM     23  C   UNL     1      -3.687  -1.080   0.158  0.00  0.00    +0.229 C 
ATOM     24  O   UNL     1      -4.240  -0.811   1.203  0.00  0.00    -0.274 OA
ATOM     25  H   UNL     1      -3.590  -2.407  -1.357  0.00  0.00    +0.173 HD
BRANCH  23  26
ATOM     26  C   UNL     1      -2.616  -0.169  -0.384  0.00  0.00    +0.098 C 
BRANCH  26  27
ATOM     27  C   UNL     1      -2.420   1.012   0.569  0.00  0.00    +0.022 C 
BRANCH  27  28
ATOM     28  C   UNL     1      -1.333   1.937   0.019  0.00  0.00    +0.080 C 
ATOM     29  C   UNL     1      -1.225   3.181   0.907  0.00  0.00    +0.049 C 
ATOM     30  C   UNL     1       0.016   3.954   0.543  0.00  0.00    -0.025 A 
ATOM     31  C   UNL     1       0.026   5.332   0.646  0.00  0.00    +0.005 A 
ATOM     32  C   UNL     1       1.176   6.040   0.352  0.00  0.00    +0.000 A 
ATOM     33  C   UNL     1       2.321   5.372  -0.042  0.00  0.00    +0.002 A 
ATOM     34  C   UNL     1       2.315   3.996  -0.154  0.00  0.00    +0.023 A 
ATOM     35  C   UNL     1       1.156   3.282   0.122  0.00  0.00    +0.037 A 
ATOM     36  N   UNL     1       1.144   1.890   0.001  0.00  0.00    -0.285 N 
ATOM     37  C   UNL     1      -0.014   1.209   0.009  0.00  0.00    +0.221 C 
ATOM     38  O   UNL     1       0.002  -0.004   0.002  0.00  0.00    -0.275 OA
ATOM     39  H   UNL     1       1.982   1.410  -0.089  0.00  0.00    +0.155 HD
ENDBRANCH  27  28
ENDBRANCH  26  27
ENDBRANCH  23  26
ENDBRANCH   3  22
TORSDOF 7
