REMARK  Name = ZINC02477028
REMARK  5 active torsions:
REMARK  status: ('A' for Active; 'I' for Inactive)
REMARK    1  A    between atoms: C_4  and  S_7
REMARK    2  A    between atoms: S_7  and  N_10
REMARK    3  A    between atoms: N_10  and  C_11
REMARK    4  A    between atoms: N_10  and  C_24
REMARK    5  A    between atoms: C_11  and  C_12
REMARK                            x       y       z     vdW  Elec       q    Type
REMARK                         _______ _______ _______ _____ _____    ______ ____
ROOT
ATOM      1  N   UNL     1       4.378  -1.079   1.536  0.00  0.00    -0.194 N 
ENDROOT
BRANCH   1   2
ATOM      2  C   UNL     1       5.241  -0.180   2.167  0.00  0.00    +0.053 A 
ATOM      3  C   UNL     1       4.914   0.340   3.413  0.00  0.00    +0.025 A 
ATOM      4  C   UNL     1       5.769   1.228   4.035  0.00  0.00    +0.003 A 
ATOM      5  C   UNL     1       6.950   1.601   3.419  0.00  0.00    +0.015 A 
ATOM      6  C   UNL     1       7.278   1.085   2.178  0.00  0.00    +0.020 A 
ATOM      7  C   UNL     1       6.430   0.191   1.553  0.00  0.00    +0.040 A 
ATOM      8 BR   UNL     1       8.894   1.598   1.340  0.00  0.00    -0.050 Br
ENDBRANCH   1   2
BRANCH   1   9
ATOM      9  S   UNL     1       3.741  -0.711   0.052  0.00  0.00    +0.075 S 
ATOM     10  O   UNL     1       3.524  -1.947  -0.615  0.00  0.00    -0.150 OA
ATOM     11  O   UNL     1       4.554   0.317  -0.496  0.00  0.00    -0.150 OA
BRANCH   9  15
ATOM     12  C   UNL     1      -0.343   1.109   0.759  0.00  0.00    +0.000 A 
ATOM     13  C   UNL     1       0.776   1.920   0.709  0.00  0.00    +0.002 A 
ATOM     14  C   UNL     1       2.023   1.364   0.494  0.00  0.00    +0.029 A 
ATOM     15  C   UNL     1       2.151  -0.003   0.328  0.00  0.00    +0.109 A 
ATOM     16  C   UNL     1       1.032  -0.813   0.379  0.00  0.00    +0.029 A 
ATOM     17  C   UNL     1      -0.215  -0.257   0.594  0.00  0.00    +0.002 A 
ENDBRANCH   9  15
ENDBRANCH   1   9
BRANCH   1  18
ATOM     18  C   UNL     1       4.036  -2.346   2.186  0.00  0.00    +0.227 C 
BRANCH  18  19
ATOM     19  C   UNL     1       5.096  -3.371   1.877  0.00  0.00    +0.235 C 
ATOM     20  O   UNL     1       6.044  -3.072   1.182  0.00  0.00    -0.274 OA
ATOM     21  N   UNL     1       4.991  -4.620   2.373  0.00  0.00    -0.295 N 
ATOM     22  C   UNL     1       6.013  -5.643   2.095  0.00  0.00    +0.113 C 
ATOM     23  C   UNL     1       6.675  -6.018   3.420  0.00  0.00    +0.054 C 
ATOM     24  C   UNL     1       5.639  -6.277   4.482  0.00  0.00    -0.041 A 
ATOM     25  C   UNL     1       6.023  -7.025   5.588  0.00  0.00    +0.004 A 
ATOM     26  C   UNL     1       5.126  -7.291   6.601  0.00  0.00    +0.000 A 
ATOM     27  C   UNL     1       3.833  -6.809   6.519  0.00  0.00    +0.000 A 
ATOM     28  C   UNL     1       3.447  -6.069   5.420  0.00  0.00    +0.005 A 
ATOM     29  C   UNL     1       4.348  -5.806   4.396  0.00  0.00    -0.027 A 
ATOM     30  C   UNL     1       3.858  -5.013   3.217  0.00  0.00    +0.143 C 
ENDBRANCH  18  19
ENDBRANCH   1  18
TORSDOF 5
