REMARK  Name = ZINC67306680
REMARK  8 active torsions:
REMARK  status: ('A' for Active; 'I' for Inactive)
REMARK    1  A    between atoms: C_1  and  C_2
REMARK    2  A    between atoms: C_3  and  C_9
REMARK    3  A    between atoms: C_4  and  C_8
REMARK    4  A    between atoms: N_5  and  C_7
REMARK    5  A    between atoms: C_9  and  C_11
REMARK    6  A    between atoms: C_9  and  N_12
REMARK    7  A    between atoms: C_13  and  C_15
REMARK    8  A    between atoms: C_15  and  N_16
REMARK                            x       y       z     vdW  Elec       q    Type
REMARK                         _______ _______ _______ _____ _____    ______ ____
ROOT
ATOM      1  N   UNL     1       0.955   0.751  -2.726  0.00  0.00    -0.307 N 
ATOM      2  C   UNL     1       1.494   1.003  -3.936  0.00  0.00    +0.231 C 
ATOM      3  O   UNL     1       1.183   0.323  -4.891  0.00  0.00    -0.274 OA
ATOM      4  H   UNL     1       1.203   1.295  -1.962  0.00  0.00    +0.149 HD
ENDROOT
BRANCH   1   5
ATOM      5  C   UNL     1      -0.006  -0.343  -2.566  0.00  0.00    +0.104 C 
ATOM      6  C   UNL     1      -1.408   0.152  -2.925  0.00  0.00    +0.033 C 
BRANCH   5   9
ATOM      7  C   UNL     1      -0.018   1.503   0.010  0.00  0.00    +0.068 C 
ATOM      8  C   UNL     1       0.002  -0.004   0.002  0.00  0.00    +0.065 A 
ATOM      9  C   UNL     1       0.008  -0.818  -1.135  0.00  0.00    +0.016 A 
ATOM     10  C   UNL     1       0.028  -2.107  -0.725  0.00  0.00    +0.041 A 
ATOM     11  N   UNL     1       0.034  -2.109   0.625  0.00  0.00    -0.271 N 
ATOM     12  N   UNL     1       0.023  -0.777   1.058  0.00  0.00    -0.176 NA
ATOM     13  C   UNL     1       0.055  -3.295   1.485  0.00  0.00    +0.172 C 
ATOM     14  C   UNL     1       0.040  -3.323  -1.615  0.00  0.00    +0.065 C 
ENDBRANCH   5   9
ENDBRANCH   1   5
BRANCH   2  15
ATOM     15  C   UNL     1       2.482   2.129  -4.101  0.00  0.00    +0.213 C 
BRANCH  15  16
ATOM     16  N   UNL     1       2.917   2.195  -5.498  0.00  0.00    -0.215 N 
ATOM     17  C   UNL     1       3.977   1.524  -5.996  0.00  0.00    +0.247 C 
ATOM     18  O   UNL     1       4.723   0.779  -5.397  0.00  0.00    -0.273 OA
ATOM     19  C   UNL     1       4.035   1.897  -7.455  0.00  0.00    +0.113 C 
ATOM     20  C   UNL     1       3.894   0.657  -8.348  0.00  0.00    +0.035 C 
ATOM     21  C   UNL     1       4.810   0.962  -9.561  0.00  0.00    +0.003 C 
ATOM     22  C   UNL     1       6.009   1.699  -8.911  0.00  0.00    +0.003 C 
ATOM     23  C   UNL     1       5.367   2.566  -7.805  0.00  0.00    +0.035 C 
ATOM     24  N   UNL     1       2.910   2.815  -7.644  0.00  0.00    -0.285 N 
ATOM     25  C   UNL     1       2.309   2.926  -6.442  0.00  0.00    +0.310 C 
ATOM     26  O   UNL     1       1.328   3.614  -6.237  0.00  0.00    -0.252 OA
ATOM     27  H   UNL     1       2.648   3.253  -8.468  0.00  0.00    +0.151 HD
ENDBRANCH  15  16
ENDBRANCH   2  15
TORSDOF 4
