REMARK  Name = ZINC39935053
REMARK  5 active torsions:
REMARK  status: ('A' for Active; 'I' for Inactive)
REMARK    1  A    between atoms: C_1  and  N_2
REMARK    2  A    between atoms: C_3  and  C_27
REMARK    3  A    between atoms: C_7  and  S_8
REMARK    4  A    between atoms: S_8  and  C_9
REMARK    5  A    between atoms: C_11  and  C_21
REMARK                            x       y       z     vdW  Elec       q    Type
REMARK                         _______ _______ _______ _____ _____    ______ ____
ROOT
ATOM      1  C   UNL     1       3.774  -1.541  -0.150  0.00  0.00    +0.171 C 
ATOM      2  C   UNL     1       5.240  -1.308   0.163  0.00  0.00    -0.009 C 
ATOM      3  C   UNL     1       6.172  -1.837  -0.735  0.00  0.00    +0.001 A 
ATOM      4  C   UNL     1       7.556  -1.668  -0.520  0.00  0.00    +0.010 A 
ATOM      5  C   UNL     1       8.441  -2.194  -1.409  0.00  0.00    +0.001 A 
ATOM      6  C   UNL     1       8.010  -2.898  -2.531  0.00  0.00    +0.002 A 
ATOM      7  C   UNL     1       6.688  -3.094  -2.792  0.00  0.00    +0.024 A 
ATOM      8  C   UNL     1       5.716  -2.579  -1.916  0.00  0.00    +0.041 A 
ATOM      9  N   UNL     1       4.418  -2.772  -2.173  0.00  0.00    -0.284 N 
ATOM     10  C   UNL     1       3.448  -2.322  -1.402  0.00  0.00    +0.235 C 
ATOM     11  O   UNL     1       2.287  -2.537  -1.699  0.00  0.00    -0.274 OA
ATOM     12  H   UNL     1       4.177  -3.271  -2.970  0.00  0.00    +0.155 HD
ENDROOT
BRANCH   2  13
ATOM     13  C   UNL     1       5.647  -0.587   1.313  0.00  0.00    -0.020 A 
ATOM     14  C   UNL     1       6.325   0.636   1.177  0.00  0.00    +0.008 A 
ATOM     15  C   UNL     1       6.715   1.329   2.301  0.00  0.00    +0.001 A 
ATOM     16  C   UNL     1       6.442   0.825   3.562  0.00  0.00    +0.000 A 
ATOM     17  C   UNL     1       5.774  -0.380   3.707  0.00  0.00    +0.001 A 
ATOM     18  C   UNL     1       5.369  -1.086   2.596  0.00  0.00    +0.008 A 
ENDBRANCH   2  13
BRANCH   1  19
ATOM     19  S   UNL     1       2.969   0.079  -0.279  0.00  0.00    -0.071 S 
BRANCH  19  25
ATOM     20  C   UNL     1       0.421   2.099  -0.546  0.00  0.00    +0.133 C 
ATOM     21  N   UNL     1       0.248   0.646  -0.493  0.00  0.00    -0.286 N 
ATOM     22  C   UNL     1      -1.024  -0.092  -0.555  0.00  0.00    +0.244 C 
ATOM     23  N   UNL     1      -0.619  -1.506  -0.460  0.00  0.00    -0.239 N 
ATOM     24  N   UNL     1       0.777  -1.504  -0.355  0.00  0.00    -0.162 NA
ATOM     25  C   UNL     1       1.252  -0.305  -0.380  0.00  0.00    +0.176 C 
ATOM     26  H   UNL     1      -1.202  -2.281  -0.469  0.00  0.00    +0.171 HD
BRANCH  22  27
ATOM     27  C   UNL     1      -1.726   0.173  -1.862  0.00  0.00    +0.146 A 
ATOM     28  C   UNL     1      -2.541  -0.690  -2.484  0.00  0.00    +0.057 A 
ATOM     29  C   UNL     1      -2.993  -0.017  -3.707  0.00  0.00    +0.021 A 
ATOM     30  C   UNL     1      -3.834  -0.371  -4.761  0.00  0.00    +0.011 A 
ATOM     31  C   UNL     1      -4.053   0.514  -5.780  0.00  0.00    +0.001 A 
ATOM     32  C   UNL     1      -3.443   1.760  -5.772  0.00  0.00    +0.004 A 
ATOM     33  C   UNL     1      -2.608   2.128  -4.739  0.00  0.00    +0.047 A 
ATOM     34  C   UNL     1      -2.373   1.244  -3.693  0.00  0.00    +0.135 A 
ATOM     35  O   UNL     1      -1.631   1.312  -2.569  0.00  0.00    -0.456 OA
ENDBRANCH  22  27
ENDBRANCH  19  25
ENDBRANCH   1  19
TORSDOF 4
