REMARK  Name = ZINC38570877
REMARK  1 active torsions:
REMARK  status: ('A' for Active; 'I' for Inactive)
REMARK    1  A    between atoms: C_17  and  C_19
REMARK                            x       y       z     vdW  Elec       q    Type
REMARK                         _______ _______ _______ _____ _____    ______ ____
ROOT
ATOM      1  C   UNL     1      -0.016   1.360   0.009  0.00  0.00    +0.007 A 
ATOM      2  C   UNL     1       1.199   2.053   0.002  0.00  0.00    +0.022 A 
ATOM      3  C   UNL     1       2.379   1.378   0.019  0.00  0.00    +0.027 A 
ATOM      4  N   UNL     1       2.396   0.027   0.102  0.00  0.00    -0.312 N 
ATOM      5  C   UNL     1       1.236  -0.669   0.010  0.00  0.00    +0.251 A 
ATOM      6  O   UNL     1       1.267  -1.887  -0.066  0.00  0.00    -0.268 OA
ATOM      7  C   UNL     1       0.002  -0.004   0.002  0.00  0.00    +0.070 A 
ATOM      8  C   UNL     1       3.615  -0.744   0.348  0.00  0.00    +0.130 C 
ATOM      9  C   UNL     1       4.871   0.033  -0.000  0.00  0.00    +0.027 C 
ATOM     10  C   UNL     1       4.797   1.438   0.601  0.00  0.00    +0.018 C 
ATOM     11  C   UNL     1       3.648   2.192  -0.074  0.00  0.00    +0.054 C 
ATOM     12  C   UNL     1       3.989   2.358  -1.565  0.00  0.00    +0.117 C 
ATOM     13  N   UNL     1       4.148   1.009  -2.132  0.00  0.00    -0.298 N 
ATOM     14  C   UNL     1       5.097   0.108  -1.504  0.00  0.00    +0.113 C 
ATOM     15  C   UNL     1       3.429   0.624  -3.204  0.00  0.00    +0.246 C 
ATOM     16  O   UNL     1       3.570  -0.491  -3.660  0.00  0.00    -0.273 OA
ENDROOT
BRANCH  15  17
ATOM     17  C   UNL     1       2.448   1.578  -3.837  0.00  0.00    +0.241 C 
ATOM     18  C   UNL     1       3.151   2.517  -4.784  0.00  0.00    -0.012 C 
ATOM     19  C   UNL     1       2.611   2.266  -5.981  0.00  0.00    +0.065 C 
ATOM     20  C   UNL     1       3.026   2.994  -7.240  0.00  0.00    +0.057 C 
ATOM     21  C   UNL     1       3.773   4.271  -6.841  0.00  0.00    +0.006 C 
ATOM     22  C   UNL     1       4.872   3.931  -5.830  0.00  0.00    +0.005 C 
ATOM     23  C   UNL     1       4.225   3.525  -4.498  0.00  0.00    +0.035 C 
ATOM     24  N   UNL     1       1.675   1.297  -5.872  0.00  0.00    -0.158 NA
ATOM     25  N   UNL     1       1.515   0.858  -4.724  0.00  0.00    -0.170 NA
ENDBRANCH  15  17
TORSDOF 1
