REMARK  Name = ZINC29252855
REMARK  4 active torsions:
REMARK  status: ('A' for Active; 'I' for Inactive)
REMARK    1  A    between atoms: C_1  and  C_2
REMARK    2  A    between atoms: C_2  and  C_4
REMARK    3  A    between atoms: C_2  and  N_14
REMARK    4  A    between atoms: C_15  and  C_17
REMARK                            x       y       z     vdW  Elec       q    Type
REMARK                         _______ _______ _______ _____ _____    ______ ____
ROOT
ATOM      1  C   UNL     1      -0.019   1.526   0.010  0.00  0.00    +0.036 C 
ATOM      2  C   UNL     1       0.002  -0.004   0.002  0.00  0.00    +0.138 C 
ENDROOT
BRANCH   2   3
ATOM      3  C   UNL     1      -1.412  -0.526   0.013  0.00  0.00    +0.154 A 
ATOM      4  N   UNL     1      -2.226  -0.539   1.035  0.00  0.00    -0.132 NA
ATOM      5  N   UNL     1      -3.355  -1.048   0.683  0.00  0.00    -0.134 NA
ATOM      6  C   UNL     1      -3.311  -1.378  -0.577  0.00  0.00    +0.134 A 
ATOM      7  N   UNL     1      -2.077  -1.062  -1.034  0.00  0.00    -0.313 N 
ATOM      8  C   UNL     1      -1.569  -1.279  -2.389  0.00  0.00    +0.125 C 
ATOM      9  C   UNL     1      -2.735  -1.243  -3.381  0.00  0.00    +0.022 C 
ATOM     10  C   UNL     1      -3.318  -2.647  -3.540  0.00  0.00    +0.002 C 
ATOM     11  C   UNL     1      -3.859  -3.155  -2.207  0.00  0.00    +0.008 C 
ATOM     12  C   UNL     1      -4.418  -1.987  -1.398  0.00  0.00    +0.076 C 
ENDBRANCH   2   3
BRANCH   2  13
ATOM     13  N   UNL     1       0.711  -0.489   1.189  0.00  0.00    -0.305 N 
ATOM     14  C   UNL     1       2.054  -0.600   1.174  0.00  0.00    +0.217 C 
ATOM     15  O   UNL     1       2.676  -0.297   0.177  0.00  0.00    -0.275 OA
ATOM     16  H   UNL     1       0.213  -0.731   1.986  0.00  0.00    +0.149 HD
BRANCH  14  17
ATOM     17  C   UNL     1       2.783  -1.099   2.395  0.00  0.00    +0.075 C 
ATOM     18  C   UNL     1       2.566  -0.128   3.573  0.00  0.00    +0.013 C 
ATOM     19  C   UNL     1       3.926  -0.120   4.314  0.00  0.00    +0.001 C 
ATOM     20  C   UNL     1       4.948  -0.183   3.152  0.00  0.00    +0.001 C 
ATOM     21  C   UNL     1       4.298  -1.134   2.127  0.00  0.00    +0.013 C 
ENDBRANCH  14  17
ENDBRANCH   2  13
TORSDOF 3
