REMARK  Name = ZINC62560025
REMARK  5 active torsions:
REMARK  status: ('A' for Active; 'I' for Inactive)
REMARK    1  A    between atoms: C_1  and  C_2
REMARK    2  A    between atoms: C_2  and  C_3
REMARK    3  A    between atoms: C_2  and  C_4
REMARK    4  A    between atoms: N_8  and  C_19
REMARK    5  A    between atoms: C_13  and  N_16
REMARK                            x       y       z     vdW  Elec       q    Type
REMARK                         _______ _______ _______ _____ _____    ______ ____
ROOT
ATOM      1  C   UNL     1       0.810  -0.500  -1.450  0.00  0.00    +0.262 C 
ATOM      2  C   UNL     1       0.827  -2.008  -1.464  0.00  0.00    +0.261 C 
ATOM      3  O   UNL     1       1.834  -2.609  -1.154  0.00  0.00    -0.271 OA
ATOM      4  N   UNL     1      -0.285  -2.687  -1.821  0.00  0.00    -0.267 N 
ATOM      5  C   UNL     1      -1.426  -1.967  -2.208  0.00  0.00    +0.099 A 
ATOM      6  C   UNL     1      -2.666  -2.587  -2.271  0.00  0.00    +0.067 A 
ATOM      7  C   UNL     1      -3.781  -1.863  -2.655  0.00  0.00    +0.044 A 
ATOM      8  C   UNL     1      -3.664  -0.522  -2.977  0.00  0.00    +0.067 A 
ATOM      9  C   UNL     1      -2.426   0.105  -2.914  0.00  0.00    +0.087 A 
ATOM     10  C   UNL     1      -1.304  -0.619  -2.528  0.00  0.00    +0.166 A 
ATOM     11  O   UNL     1      -0.084  -0.022  -2.458  0.00  0.00    -0.476 OA
ATOM     12 CL   UNL     1      -5.067   0.378  -3.459  0.00  0.00    -0.081 Cl
ATOM     13 CL   UNL     1      -2.818  -4.269  -1.870  0.00  0.00    -0.081 Cl
ATOM     14  C   UNL     1      -0.300  -4.151  -1.805  0.00  0.00    +0.138 C 
ENDROOT
BRANCH   1  16
ATOM     15  C   UNL     1       0.327   1.522  -0.064  0.00  0.00    +0.011 C 
ATOM     16  C   UNL     1       0.343  -0.008  -0.079  0.00  0.00    +0.033 C 
ATOM     17  C   UNL     1      -1.067  -0.535   0.198  0.00  0.00    +0.011 C 
ENDBRANCH   1  16
BRANCH   9  18
ATOM     18  N   UNL     1      -2.309   1.463  -3.239  0.00  0.00    -0.354 N 
ATOM     19  H   UNL     1      -3.093   1.967  -3.508  0.00  0.00    +0.142 HD
ATOM     20  H   UNL     1      -1.443   1.900  -3.195  0.00  0.00    +0.142 HD
ENDBRANCH   9  18
TORSDOF 2
