REMARK  Name = ZINC43919244
REMARK  10 active torsions:
REMARK  status: ('A' for Active; 'I' for Inactive)
REMARK    1  A    between atoms: C_1  and  C_2
REMARK    2  A    between atoms: C_8  and  C_34
REMARK    3  A    between atoms: C_19  and  C_26
REMARK    4  A    between atoms: C_19  and  O_33
REMARK    5  A    between atoms: C_20  and  C_25
REMARK    6  A    between atoms: C_22  and  O_24
REMARK    7  A    between atoms: C_26  and  C_28
REMARK    8  A    between atoms: C_28  and  O_29
REMARK    9  A    between atoms: O_29  and  C_30
REMARK   10  A    between atoms: C_30  and  C_32
REMARK                            x       y       z     vdW  Elec       q    Type
REMARK                         _______ _______ _______ _____ _____    ______ ____
ROOT
ATOM      1  C   UNL     1      -0.018   1.503   0.010  0.00  0.00    +0.040 C 
ATOM      2  C   UNL     1       0.002  -0.004   0.002  0.00  0.00    -0.059 C 
ATOM      3  C   UNL     1       0.023  -0.574  -1.198  0.00  0.00    +0.050 C 
ATOM      4  C   UNL     1       0.127  -2.035  -1.322  0.00  0.00    +0.179 C 
ATOM      5  O   UNL     1       0.023  -2.587  -2.399  0.00  0.00    -0.288 OA
ATOM      6  C   UNL     1       0.376  -2.811  -0.095  0.00  0.00    +0.051 C 
ATOM      7  C   UNL     1       0.350  -2.218   1.083  0.00  0.00    -0.056 C 
ATOM      8  C   UNL     1       0.024  -0.752   1.286  0.00  0.00    +0.016 C 
ATOM      9  C   UNL     1      -1.281  -0.729   2.073  0.00  0.00    +0.035 C 
ATOM     10  C   UNL     1      -1.135  -1.506   3.391  0.00  0.00    -0.000 C 
ATOM     11  C   UNL     1      -0.720  -2.961   3.140  0.00  0.00    +0.008 C 
ATOM     12  C   UNL     1       0.585  -3.032   2.342  0.00  0.00    +0.032 C 
ATOM     13  C   UNL     1      -2.506  -1.541   4.047  0.00  0.00    +0.002 C 
ATOM     14  C   UNL     1      -2.587  -2.246   5.404  0.00  0.00    +0.008 C 
ATOM     15  C   UNL     1      -3.861  -1.643   6.053  0.00  0.00    +0.043 C 
ATOM     16  C   UNL     1      -4.213  -0.369   5.242  0.00  0.00    +0.133 C 
ATOM     17  C   UNL     1      -2.967  -0.108   4.386  0.00  0.00    +0.009 C 
ATOM     18  C   UNL     1      -3.169   0.647   3.097  0.00  0.00    +0.041 C 
ATOM     19  C   UNL     1      -1.871   0.650   2.271  0.00  0.00    +0.120 C 
ATOM     20  C   UNL     1      -1.949   0.607   5.282  0.00  0.00    +0.015 C 
ATOM     21  C   UNL     1       1.157  -0.165   2.129  0.00  0.00    +0.021 C 
ENDROOT
BRANCH  19  22
ATOM     22  O   UNL     1      -0.946   1.567   2.841  0.00  0.00    -0.391 OA
ATOM     23  H   UNL     1      -1.304   2.455   2.975  0.00  0.00    +0.210 HD
ENDBRANCH  19  22
BRANCH  16  24
ATOM     24  C   UNL     1      -5.432  -0.610   4.398  0.00  0.00    +0.202 C 
ATOM     25  O   UNL     1      -5.314  -1.062   3.284  0.00  0.00    -0.291 OA
BRANCH  24  26
ATOM     26  C   UNL     1      -6.800  -0.288   4.940  0.00  0.00    +0.309 C 
BRANCH  26  27
ATOM     27  O   UNL     1      -7.788  -0.602   3.957  0.00  0.00    -0.457 OA
BRANCH  27  28
ATOM     28  C   UNL     1      -9.069  -0.372   4.285  0.00  0.00    +0.304 C 
ATOM     29  O   UNL     1      -9.343   0.082   5.371  0.00  0.00    -0.251 OA
ATOM     30  C   UNL     1     -10.167  -0.678   3.298  0.00  0.00    +0.136 C 
ENDBRANCH  27  28
ENDBRANCH  26  27
ENDBRANCH  24  26
ENDBRANCH  16  24
BRANCH  16  31
ATOM     31  O   UNL     1      -4.430   0.733   6.127  0.00  0.00    -0.380 OA
ATOM     32  H   UNL     1      -5.164   0.605   6.743  0.00  0.00    +0.211 HD
ENDBRANCH  16  31
TORSDOF 6
