REMARK  Name = ZINC64540990
REMARK  7 active torsions:
REMARK  status: ('A' for Active; 'I' for Inactive)
REMARK    1  A    between atoms: C_1  and  C_2
REMARK    2  A    between atoms: C_2  and  C_3
REMARK    3  A    between atoms: C_3  and  C_4
REMARK    4  A    between atoms: C_4  and  N_5
REMARK    5  A    between atoms: C_6  and  C_8
REMARK    6  A    between atoms: C_8  and  C_9
REMARK    7  A    between atoms: C_15  and  C_17
REMARK                            x       y       z     vdW  Elec       q    Type
REMARK                         _______ _______ _______ _____ _____    ______ ____
ROOT
ATOM      1  C   UNL     1      -4.408  -5.950   0.012  0.00  0.00    +0.001 C 
ATOM      2  C   UNL     1      -3.803  -6.445  -1.303  0.00  0.00    +0.023 C 
ATOM      3  C   UNL     1      -3.752  -7.976  -1.294  0.00  0.00    +0.108 C 
ATOM      4  N   UNL     1      -5.099  -8.492  -1.018  0.00  0.00    -0.300 N 
ATOM      5  C   UNL     1      -5.809  -8.012   0.175  0.00  0.00    +0.108 C 
ATOM      6  C   UNL     1      -5.838  -6.480   0.149  0.00  0.00    +0.023 C 
ATOM      7  C   UNL     1      -5.673  -9.389  -1.845  0.00  0.00    +0.242 C 
ATOM      8  O   UNL     1      -5.077  -9.777  -2.826  0.00  0.00    -0.273 OA
ENDROOT
BRANCH   7   9
ATOM      9  C   UNL     1      -7.056  -9.909  -1.548  0.00  0.00    +0.190 C 
ATOM     10  C   UNL     1      -7.062 -10.654  -0.232  0.00  0.00    +0.016 C 
ATOM     11  C   UNL     1      -7.434 -11.922  -0.521  0.00  0.00    -0.002 A 
ATOM     12  C   UNL     1      -7.627 -13.115   0.312  0.00  0.00    +0.029 A 
ATOM     13  C   UNL     1      -8.013 -14.271  -0.277  0.00  0.00    +0.042 A 
ATOM     14  C   UNL     1      -8.233 -14.356  -1.660  0.00  0.00    +0.022 A 
ATOM     15  C   UNL     1      -8.077 -13.302  -2.489  0.00  0.00    +0.027 A 
ATOM     16  C   UNL     1      -7.674 -12.038  -1.977  0.00  0.00    +0.043 A 
ATOM     17  N   UNL     1      -7.458 -10.886  -2.567  0.00  0.00    -0.370 N 
ATOM     18 CL   UNL     1      -8.241 -15.685   0.704  0.00  0.00    -0.084 Cl
ATOM     19  H   UNL     1      -7.549 -10.709  -3.516  0.00  0.00    +0.161 HD
ENDBRANCH   7   9
BRANCH   1  20
ATOM     20  C   UNL     1      -4.429  -4.420   0.021  0.00  0.00    +0.099 C 
BRANCH  20  22
ATOM     21  N   UNL     1      -2.787  -2.571   0.015  0.00  0.00    -0.315 N 
ATOM     22  C   UNL     1      -3.015  -3.899   0.010  0.00  0.00    +0.213 C 
ATOM     23  O   UNL     1      -2.083  -4.674  -0.003  0.00  0.00    -0.276 OA
ATOM     24  H   UNL     1      -3.533  -1.950   0.025  0.00  0.00    +0.149 HD
BRANCH  21  25
ATOM     25  C   UNL     1      -1.413  -2.063   0.004  0.00  0.00    +0.104 C 
BRANCH  25  26
ATOM     26  C   UNL     1      -1.433  -0.534   0.013  0.00  0.00    +0.018 C 
BRANCH  26  28
ATOM     27  C   UNL     1      -0.019   1.526   0.010  0.00  0.00    +0.004 C 
ATOM     28  C   UNL     1       0.002  -0.004   0.002  0.00  0.00    -0.002 C 
ENDBRANCH  26  28
ENDBRANCH  25  26
ENDBRANCH  21  25
ENDBRANCH  20  22
ENDBRANCH   1  20
TORSDOF 6
