REMARK  Name = ZINC20756298
REMARK  3 active torsions:
REMARK  status: ('A' for Active; 'I' for Inactive)
REMARK    1  A    between atoms: C_5  and  C_7
REMARK    2  A    between atoms: C_11  and  C_20
REMARK    3  A    between atoms: C_23  and  N_26
REMARK                            x       y       z     vdW  Elec       q    Type
REMARK                         _______ _______ _______ _____ _____    ______ ____
ROOT
ATOM      1  C   UNL     1      -7.344   4.762  -0.825  0.00  0.00    +0.001 A 
ATOM      2  C   UNL     1      -6.469   5.112   0.187  0.00  0.00    +0.006 A 
ATOM      3  C   UNL     1      -5.133   4.740   0.137  0.00  0.00    -0.019 A 
ATOM      4  C   UNL     1      -4.671   4.006  -0.941  0.00  0.00    +0.044 A 
ATOM      5  C   UNL     1      -5.560   3.648  -1.974  0.00  0.00    +0.058 A 
ATOM      6  C   UNL     1      -6.899   4.032  -1.905  0.00  0.00    +0.015 A 
ATOM      7  N   UNL     1      -3.350   3.599  -1.049  0.00  0.00    -0.336 N 
ATOM      8  C   UNL     1      -2.438   4.483  -0.323  0.00  0.00    +0.105 C 
ATOM      9  C   UNL     1      -2.841   4.528   1.153  0.00  0.00    +0.029 C 
ATOM     10  C   UNL     1      -4.244   5.161   1.270  0.00  0.00    +0.049 C 
ATOM     11  C   UNL     1      -3.984   6.649   1.217  0.00  0.00    -0.023 C 
ATOM     12  C   UNL     1      -2.740   6.909   1.531  0.00  0.00    -0.030 C 
ATOM     13  C   UNL     1      -1.991   5.629   1.847  0.00  0.00    +0.033 C 
ATOM     14  H   UNL     1      -2.955   2.729  -1.595  0.00  0.00    +0.147 HD
ENDROOT
BRANCH   8  15
ATOM     15  C   UNL     1      -1.030   3.961  -0.444  0.00  0.00    -0.027 A 
ATOM     16  C   UNL     1      -0.788   2.602  -0.378  0.00  0.00    +0.008 A 
ATOM     17  C   UNL     1       0.504   2.123  -0.484  0.00  0.00    +0.033 A 
ATOM     18  C   UNL     1       1.554   3.003  -0.667  0.00  0.00    +0.126 A 
ATOM     19  C   UNL     1       1.312   4.363  -0.738  0.00  0.00    +0.033 A 
ATOM     20  C   UNL     1       0.020   4.841  -0.626  0.00  0.00    +0.008 A 
BRANCH  18  21
ATOM     21  N   UNL     1       2.938   2.491  -0.786  0.00  0.00    +0.056 N 
ATOM     22  O   UNL     1       3.151   1.293  -0.724  0.00  0.00    -0.126 OA
ATOM     23  O   UNL     1       3.863   3.266  -0.947  0.00  0.00    -0.126 OA
ENDBRANCH  18  21
ENDBRANCH   8  15
BRANCH   5  24
ATOM     24  C   UNL     1      -5.075   2.867  -3.126  0.00  0.00    +0.243 C 
ATOM     25  O   UNL     1      -3.941   2.428  -3.129  0.00  0.00    -0.270 OA
ATOM     26  N   UNL     1      -5.888   2.640  -4.177  0.00  0.00    -0.325 N 
ATOM     27  H   UNL     1      -5.526   2.058  -5.037  0.00  0.00    +0.145 HD
ATOM     28  H   UNL     1      -6.914   3.037  -4.174  0.00  0.00    +0.145 HD
ENDBRANCH   5  24
TORSDOF 3
