REMARK  Name = ZINC10272031
REMARK  10 active torsions:
REMARK  status: ('A' for Active; 'I' for Inactive)
REMARK    1  A    between atoms: C_1  and  C_2
REMARK    2  A    between atoms: N_8  and  C_9
REMARK    3  A    between atoms: C_9  and  C_10
REMARK    4  A    between atoms: C_15  and  C_23
REMARK    5  A    between atoms: C_17  and  C_21
REMARK    6  A    between atoms: C_18  and  N_20
REMARK    7  A    between atoms: C_26  and  O_31
REMARK    8  A    between atoms: C_27  and  O_29
REMARK    9  A    between atoms: O_29  and  C_30
REMARK   10  A    between atoms: O_31  and  C_32
REMARK                            x       y       z     vdW  Elec       q    Type
REMARK                         _______ _______ _______ _____ _____    ______ ____
ROOT
ATOM      1  C   UNL     1       1.580  -5.713   6.545  0.00  0.00    +0.064 C 
ATOM      2  C   UNL     1       1.556  -4.210   6.439  0.00  0.00    +0.023 A 
ATOM      3  C   UNL     1       2.701  -3.543   6.181  0.00  0.00    +0.068 A 
ATOM      4  C   UNL     1       2.685  -2.136   6.080  0.00  0.00    +0.141 A 
ATOM      5  C   UNL     1       1.490  -1.468   6.248  0.00  0.00    +0.072 A 
ATOM      6  C   UNL     1       0.327  -2.203   6.514  0.00  0.00    +0.259 A 
ATOM      7  O   UNL     1      -0.738  -1.625   6.665  0.00  0.00    -0.267 OA
ATOM      8  N   UNL     1       0.383  -3.545   6.603  0.00  0.00    -0.307 N 
ATOM      9  C   UNL     1       1.427   0.031   6.148  0.00  0.00    +0.103 C 
ATOM     10  C   UNL     1       2.808   0.613   6.258  0.00  0.00    +0.098 C 
ATOM     11  C   UNL     1       3.910  -0.152   6.093  0.00  0.00    +0.199 C 
ATOM     12  O   UNL     1       3.828  -1.466   5.822  0.00  0.00    -0.441 OA
ENDROOT
BRANCH   9  13
ATOM     13  C   UNL     1       0.825   0.418   4.822  0.00  0.00    -0.031 A 
ATOM     14  C   UNL     1       1.443   0.033   3.646  0.00  0.00    +0.008 A 
ATOM     15  C   UNL     1       0.892   0.381   2.426  0.00  0.00    +0.050 A 
ATOM     16  C   UNL     1      -0.275   1.127   2.381  0.00  0.00    +0.162 A 
ATOM     17  C   UNL     1      -0.896   1.515   3.564  0.00  0.00    +0.162 A 
ATOM     18  C   UNL     1      -0.342   1.158   4.783  0.00  0.00    +0.054 A 
BRANCH  17  19
ATOM     19  O   UNL     1      -2.044   2.242   3.524  0.00  0.00    -0.491 OA
ATOM     20  C   UNL     1      -2.626   2.605   4.778  0.00  0.00    +0.277 C 
ENDBRANCH  17  19
BRANCH  16  21
ATOM     21  O   UNL     1      -0.814   1.475   1.182  0.00  0.00    -0.491 OA
ATOM     22  C   UNL     1      -0.122   1.042   0.009  0.00  0.00    +0.277 C 
ENDBRANCH  16  21
ENDBRANCH   9  13
BRANCH  11  23
ATOM     23  N   UNL     1       5.149   0.429   6.202  0.00  0.00    -0.328 N 
ATOM     24  H   UNL     1       5.949  -0.107   6.085  0.00  0.00    +0.145 HD
ATOM     25  H   UNL     1       5.225   1.377   6.397  0.00  0.00    +0.145 HD
ENDBRANCH  11  23
BRANCH  10  26
ATOM     26  C   UNL     1       2.962   2.008   6.543  0.00  0.00    +0.101 C 
ATOM     27  N   UNL     1       3.085   3.114   6.770  0.00  0.00    -0.191 NA
ENDBRANCH  10  26
BRANCH   8  28
ATOM     28  C   UNL     1      -0.841  -4.300   6.882  0.00  0.00    +0.167 C 
BRANCH  28  29
ATOM     29  C   UNL     1      -1.584  -4.547   5.594  0.00  0.00    +0.010 A 
ATOM     30  C   UNL     1      -1.473  -5.587   4.731  0.00  0.00    +0.013 A 
ATOM     31  C   UNL     1      -2.268  -5.606   3.600  0.00  0.00    +0.008 A 
ATOM     32  C   UNL     1      -3.126  -4.580   3.382  0.00  0.00    +0.045 A 
ATOM     33  S   UNL     1      -2.831  -3.543   4.805  0.00  0.00    -0.100 S 
ENDBRANCH  28  29
ENDBRANCH   8  28
TORSDOF 7
