REMARK  Name = ZINC14197167
REMARK  10 active torsions:
REMARK  status: ('A' for Active; 'I' for Inactive)
REMARK    1  A    between atoms: C_1  and  N_47
REMARK    2  A    between atoms: C_2  and  C_3
REMARK    3  A    between atoms: C_2  and  N_47
REMARK    4  A    between atoms: C_3  and  C_4
REMARK    5  A    between atoms: C_7  and  O_12
REMARK    6  A    between atoms: C_8  and  O_10
REMARK    7  A    between atoms: O_10  and  C_11
REMARK    8  A    between atoms: O_12  and  C_13
REMARK    9  A    between atoms: C_14  and  N_15
REMARK   10  A    between atoms: C_14  and  N_47
REMARK                            x       y       z     vdW  Elec       q    Type
REMARK                         _______ _______ _______ _____ _____    ______ ____
ROOT
ATOM      1  C   UNL     1      -2.079   6.427  -1.897  0.00  0.00    -0.094 C 
ATOM      2  N   UNL     1      -1.049   7.335  -1.349  0.00  0.00    +0.390 N 
ATOM      3  H   UNL     1      -0.196   7.253  -1.915  0.00  0.00    -0.080 HD
ENDROOT
BRANCH   2   4
ATOM      4  C   UNL     1      -1.528   8.732  -1.402  0.00  0.00    -0.072 C 
BRANCH   4   5
ATOM      5  C   UNL     1      -1.629   9.163  -2.867  0.00  0.00    +0.017 C 
BRANCH   5   6
ATOM      6  C   UNL     1      -2.096  10.594  -2.938  0.00  0.00    -0.045 A 
ATOM      7  C   UNL     1      -3.448  10.876  -3.007  0.00  0.00    +0.007 A 
ATOM      8  C   UNL     1      -3.881  12.187  -3.067  0.00  0.00    +0.049 A 
ATOM      9  C   UNL     1      -2.960  13.222  -3.069  0.00  0.00    +0.161 A 
ATOM     10  C   UNL     1      -1.599  12.938  -3.005  0.00  0.00    +0.162 A 
ATOM     11  C   UNL     1      -1.172  11.622  -2.939  0.00  0.00    +0.053 A 
BRANCH  10  12
ATOM     12  O   UNL     1      -0.691  13.951  -3.006  0.00  0.00    -0.491 OA
ATOM     13  C   UNL     1       0.688  13.585  -2.938  0.00  0.00    +0.277 C 
ENDBRANCH  10  12
BRANCH   9  14
ATOM     14  O   UNL     1      -3.385  14.513  -3.133  0.00  0.00    -0.491 OA
ATOM     15  C   UNL     1      -4.796  14.729  -3.196  0.00  0.00    +0.277 C 
ENDBRANCH   9  14
ENDBRANCH   5   6
ENDBRANCH   4   5
ENDBRANCH   2   4
BRANCH   2  16
ATOM     16  C   UNL     1      -0.737   6.961   0.047  0.00  0.00    +0.053 C 
BRANCH  16  17
ATOM     17  N   UNL     1       0.231   5.861   0.031  0.00  0.00    -0.291 N 
ATOM     18  C   UNL     1      -0.069   4.498   0.027  0.00  0.00    +0.088 A 
ATOM     19  C   UNL     1      -1.258   3.786   0.034  0.00  0.00    +0.031 A 
ATOM     20  C   UNL     1      -1.232   2.405   0.021  0.00  0.00    +0.022 A 
ATOM     21  C   UNL     1      -0.021   1.732   0.012  0.00  0.00    +0.045 A 
ATOM     22  C   UNL     1       1.168   2.436   0.004  0.00  0.00    +0.068 A 
ATOM     23  C   UNL     1       1.150   3.822   0.012  0.00  0.00    +0.158 A 
ATOM     24  O   UNL     1       2.130   4.759   0.007  0.00  0.00    -0.407 OA
ATOM     25  C   UNL     1       1.573   5.980   0.019  0.00  0.00    +0.420 A 
ATOM     26  O   UNL     1       2.185   7.031   0.020  0.00  0.00    -0.223 OA
ATOM     27 CL   UNL     1       0.002  -0.004   0.002  0.00  0.00    -0.083 Cl
ENDBRANCH  16  17
ENDBRANCH   2  16
TORSDOF 7
