REMARK  Name = ZINC29586545
REMARK  7 active torsions:
REMARK  status: ('A' for Active; 'I' for Inactive)
REMARK    1  A    between atoms: C_1  and  C_2
REMARK    2  A    between atoms: C_2  and  C_3
REMARK    3  A    between atoms: C_2  and  N_4
REMARK    4  A    between atoms: N_4  and  C_5
REMARK    5  A    between atoms: C_6  and  C_8
REMARK    6  A    between atoms: N_11  and  C_14
REMARK    7  A    between atoms: C_14  and  N_15
REMARK                            x       y       z     vdW  Elec       q    Type
REMARK                         _______ _______ _______ _____ _____    ______ ____
ROOT
ATOM      1  C   UNL     1      -1.727   9.270  -3.514  0.00  0.00    +0.072 C 
ATOM      2  C   UNL     1      -2.777   8.363  -2.865  0.00  0.00    -0.006 C 
ATOM      3  C   UNL     1      -2.400   8.120  -1.402  0.00  0.00    -0.076 C 
ATOM      4  N   UNL     1      -1.074   7.490  -1.335  0.00  0.00    +0.392 N 
ATOM      5  C   UNL     1      -0.043   8.363  -1.909  0.00  0.00    -0.076 C 
ATOM      6  C   UNL     1      -0.349   8.614  -3.387  0.00  0.00    -0.006 C 
ATOM      7  H   UNL     1      -1.109   6.571  -1.938  0.00  0.00    -0.079 HD
ENDROOT
BRANCH   1  10
ATOM      8  N   UNL     1      -1.269  10.232  -5.746  0.00  0.00    -0.302 N 
ATOM      9  C   UNL     1      -0.085  10.876  -5.173  0.00  0.00    +0.132 C 
ATOM     10  C   UNL     1      -2.060   9.465  -4.970  0.00  0.00    +0.219 C 
ATOM     11  O   UNL     1      -3.041   8.931  -5.444  0.00  0.00    -0.275 OA
BRANCH   8  13
ATOM     12  C   UNL     1      -1.811  11.910  -7.441  0.00  0.00    +0.028 C 
ATOM     13  C   UNL     1      -1.593  10.421  -7.162  0.00  0.00    +0.070 C 
ATOM     14  C   UNL     1      -0.438   9.905  -8.023  0.00  0.00    +0.028 C 
ENDBRANCH   8  13
ENDBRANCH   1  10
BRANCH   4  15
ATOM     15  C   UNL     1      -0.739   7.116   0.045  0.00  0.00    +0.054 C 
BRANCH  15  16
ATOM     16  N   UNL     1       0.229   6.016   0.031  0.00  0.00    -0.291 N 
ATOM     17  C   UNL     1      -0.071   4.653   0.027  0.00  0.00    +0.088 A 
ATOM     18  C   UNL     1      -1.260   3.941   0.034  0.00  0.00    +0.031 A 
ATOM     19  C   UNL     1      -1.234   2.560   0.022  0.00  0.00    +0.017 A 
ATOM     20  C   UNL     1      -0.024   1.887   0.012  0.00  0.00    +0.021 A 
ATOM     21  C   UNL     1       1.165   2.591   0.005  0.00  0.00    +0.063 A 
ATOM     22  C   UNL     1       1.148   3.977   0.012  0.00  0.00    +0.158 A 
ATOM     23  O   UNL     1       2.128   4.914   0.008  0.00  0.00    -0.407 OA
ATOM     24  C   UNL     1       1.571   6.135   0.020  0.00  0.00    +0.420 A 
ATOM     25  O   UNL     1       2.183   7.186   0.020  0.00  0.00    -0.223 OA
ATOM     26 BR   UNL     1       0.002  -0.004   0.002  0.00  0.00    -0.050 Br
ENDBRANCH  15  16
ENDBRANCH   4  15
TORSDOF 4
