REMARK  Name = ZINC62817868
REMARK  3 active torsions:
REMARK  status: ('A' for Active; 'I' for Inactive)
REMARK    1  A    between atoms: C_1  and  C_2
REMARK    2  A    between atoms: C_9  and  C_11
REMARK    3  A    between atoms: C_13  and  N_19
REMARK                            x       y       z     vdW  Elec       q    Type
REMARK                         _______ _______ _______ _____ _____    ______ ____
ROOT
ATOM      1  C   UNL     1       4.579  -1.165   0.883  0.00  0.00    +0.041 A 
ATOM      2  C   UNL     1       5.682  -1.425   1.699  0.00  0.00    +0.047 A 
ATOM      3  C   UNL     1       6.910  -1.692   1.131  0.00  0.00    +0.147 A 
ATOM      4  C   UNL     1       7.051  -1.702  -0.247  0.00  0.00    +0.089 A 
ATOM      5  C   UNL     1       5.960  -1.445  -1.063  0.00  0.00    +0.062 A 
ATOM      6  C   UNL     1       4.725  -1.182  -0.505  0.00  0.00    +0.034 A 
ATOM      7 CL   UNL     1       6.146  -1.459  -2.789  0.00  0.00    -0.082 Cl
ATOM      8 CL   UNL     1       8.600  -2.039  -0.955  0.00  0.00    -0.080 Cl
ENDROOT
BRANCH   1  16
ATOM      9  C   UNL     1       0.678  -3.838  -0.327  0.00  0.00    +0.009 C 
ATOM     10  C   UNL     1       0.687  -2.355  -0.701  0.00  0.00    +0.012 C 
ATOM     11  C   UNL     1      -0.132  -1.523   0.313  0.00  0.00    +0.101 C 
ATOM     12  C   UNL     1       0.893  -1.056   1.323  0.00  0.00    +0.222 C 
ATOM     13  O   UNL     1       0.634  -0.615   2.422  0.00  0.00    -0.275 OA
ATOM     14  N   UNL     1       2.133  -1.200   0.824  0.00  0.00    -0.238 N 
ATOM     15  C   UNL     1       2.100  -1.752  -0.537  0.00  0.00    +0.120 C 
ATOM     16  C   UNL     1       3.262  -0.879   1.486  0.00  0.00    +0.253 C 
ATOM     17  O   UNL     1       3.196  -0.354   2.580  0.00  0.00    -0.270 OA
ENDBRANCH   1  16
BRANCH   3  18
ATOM     18  N   UNL     1       8.080  -1.967   1.995  0.00  0.00    +0.058 N 
ATOM     19  O   UNL     1       7.958  -1.958   3.198  0.00  0.00    -0.126 OA
ATOM     20  O   UNL     1       9.156  -2.201   1.498  0.00  0.00    -0.126 OA
ENDBRANCH   3  18
TORSDOF 2
