REMARK  Name = ZINC39950466
REMARK  8 active torsions:
REMARK  status: ('A' for Active; 'I' for Inactive)
REMARK    1  A    between atoms: C_1  and  O_2
REMARK    2  A    between atoms: O_2  and  C_3
REMARK    3  A    between atoms: C_9  and  C_27
REMARK    4  A    between atoms: C_11  and  N_13
REMARK    5  A    between atoms: C_14  and  C_16
REMARK    6  A    between atoms: C_16  and  N_17
REMARK    7  A    between atoms: C_27  and  O_29
REMARK    8  A    between atoms: O_29  and  C_30
REMARK                            x       y       z     vdW  Elec       q    Type
REMARK                         _______ _______ _______ _____ _____    ______ ____
ROOT
ATOM      1  C   UNL     1      -0.350  -5.641  -0.191  0.00  0.00    +0.131 A 
ATOM      2  C   UNL     1      -1.245  -6.670  -0.134  0.00  0.00    +0.046 A 
ATOM      3  C   UNL     1      -2.614  -6.438  -0.030  0.00  0.00    +0.006 A 
ATOM      4  C   UNL     1      -3.142  -5.190   0.021  0.00  0.00    +0.026 A 
ATOM      5  C   UNL     1      -2.303  -4.051  -0.031  0.00  0.00    +0.048 A 
ATOM      6  N   UNL     1      -2.575  -2.761   0.001  0.00  0.00    -0.367 N 
ATOM      7  C   UNL     1      -1.321  -2.006  -0.085  0.00  0.00    +0.234 C 
ATOM      8  C   UNL     1      -0.218  -3.038  -0.177  0.00  0.00    +0.056 C 
ATOM      9  C   UNL     1      -0.848  -4.265  -0.135  0.00  0.00    +0.059 A 
ATOM     10  H   UNL     1      -3.462  -2.374   0.071  0.00  0.00    +0.161 HD
ENDROOT
BRANCH   8  11
ATOM     11  N   UNL     1       1.121  -2.805  -0.275  0.00  0.00    -0.285 N 
ATOM     12  C   UNL     1       1.599  -1.553  -0.131  0.00  0.00    +0.234 C 
ATOM     13  O   UNL     1       0.853  -0.652   0.189  0.00  0.00    -0.274 OA
ATOM     14  H   UNL     1       1.730  -3.539  -0.448  0.00  0.00    +0.155 HD
BRANCH  12  15
ATOM     15  C   UNL     1       3.060  -1.272  -0.368  0.00  0.00    +0.201 C 
BRANCH  15  16
ATOM     16  N   UNL     1       3.326   0.152  -0.149  0.00  0.00    -0.321 N 
ATOM     17  C   UNL     1       3.213   1.111  -1.256  0.00  0.00    +0.106 C 
ATOM     18  C   UNL     1       4.432   2.041  -1.198  0.00  0.00    +0.024 C 
ATOM     19  C   UNL     1       4.390   2.828   0.112  0.00  0.00    +0.038 C 
ATOM     20  C   UNL     1       4.208   1.897   1.281  0.00  0.00    -0.026 A 
ATOM     21  C   UNL     1       3.686   0.621   1.118  0.00  0.00    +0.033 A 
ATOM     22  C   UNL     1       3.521  -0.210   2.220  0.00  0.00    +0.023 A 
ATOM     23  C   UNL     1       3.873   0.233   3.480  0.00  0.00    +0.002 A 
ATOM     24  C   UNL     1       4.391   1.505   3.643  0.00  0.00    +0.000 A 
ATOM     25  C   UNL     1       4.566   2.332   2.546  0.00  0.00    +0.005 A 
ENDBRANCH  15  16
ENDBRANCH  12  15
ENDBRANCH   8  11
BRANCH   1  27
ATOM     26  C   UNL     1       1.382  -7.258  -0.341  0.00  0.00    +0.277 C 
ATOM     27  O   UNL     1       0.979  -5.888  -0.293  0.00  0.00    -0.494 OA
ENDBRANCH   1  27
BRANCH   7  28
ATOM     28  C   UNL     1      -1.322  -1.136  -1.316  0.00  0.00    +0.335 C 
ATOM     29  O   UNL     1      -2.008  -1.434  -2.265  0.00  0.00    -0.248 OA
BRANCH  28  30
ATOM     30  O   UNL     1      -0.562  -0.030  -1.357  0.00  0.00    -0.466 OA
ATOM     31  C   UNL     1      -0.613   0.747  -2.554  0.00  0.00    +0.280 C 
ENDBRANCH  28  30
ENDBRANCH   7  28
TORSDOF 6
