REMARK  Name = ZINC09948956
REMARK  6 active torsions:
REMARK  status: ('A' for Active; 'I' for Inactive)
REMARK    1  A    between atoms: C_6  and  O_7
REMARK    2  A    between atoms: O_7  and  C_8
REMARK    3  A    between atoms: C_8  and  C_9
REMARK    4  A    between atoms: N_11  and  N_12
REMARK    5  A    between atoms: C_13  and  C_14
REMARK    6  A    between atoms: C_18  and  N_20
REMARK                            x       y       z     vdW  Elec       q    Type
REMARK                         _______ _______ _______ _____ _____    ______ ____
ROOT
ATOM      1  C   UNL     1       2.210   5.600   0.010  0.00  0.00    +0.270 C 
ATOM      2  O   UNL     1       1.084   6.051   0.023  0.00  0.00    -0.270 OA
ATOM      3  N   UNL     1       3.269   6.434   0.004  0.00  0.00    -0.204 N 
ATOM      4  H   UNL     1       4.170   6.074  -0.006  0.00  0.00    +0.177 HD
ENDROOT
BRANCH   3   5
ATOM      5  N   UNL     1       3.069   7.821   0.013  0.00  0.00    -0.188 NA
ATOM      6  C   UNL     1       4.089   8.623   0.008  0.00  0.00    +0.138 C 
BRANCH   6   7
ATOM      7  C   UNL     1       3.878  10.083   0.017  0.00  0.00    -0.003 A 
ATOM      8  C   UNL     1       2.582  10.605   0.026  0.00  0.00    +0.011 A 
ATOM      9  C   UNL     1       2.392  11.970   0.039  0.00  0.00    +0.023 A 
ATOM     10  C   UNL     1       3.483  12.824   0.034  0.00  0.00    +0.071 A 
ATOM     11  C   UNL     1       4.770  12.314   0.019  0.00  0.00    +0.145 A 
ATOM     12  C   UNL     1       4.973  10.950   0.011  0.00  0.00    +0.043 A 
ATOM     13 CL   UNL     1       3.235  14.543   0.044  0.00  0.00    -0.081 Cl
BRANCH  11  14
ATOM     14  N   UNL     1       5.929  13.234   0.014  0.00  0.00    +0.058 N 
ATOM     15  O   UNL     1       7.062  12.786   0.002  0.00  0.00    -0.126 OA
ATOM     16  O   UNL     1       5.751  14.438   0.021  0.00  0.00    -0.126 OA
ENDBRANCH  11  14
ENDBRANCH   6   7
ENDBRANCH   3   5
BRANCH   1  17
ATOM     17  C   UNL     1       2.425   4.109   0.001  0.00  0.00    +0.326 C 
BRANCH  17  18
ATOM     18  O   UNL     1       1.160   3.445   0.009  0.00  0.00    -0.483 OA
BRANCH  18  24
ATOM     19  C   UNL     1      -0.017   1.377   0.010  0.00  0.00    +0.046 A 
ATOM     20  C   UNL     1       0.002  -0.004   0.002  0.00  0.00    +0.018 A 
ATOM     21  C   UNL     1       1.209  -0.680  -0.013  0.00  0.00    +0.014 A 
ATOM     22  C   UNL     1       2.399   0.024  -0.020  0.00  0.00    +0.018 A 
ATOM     23  C   UNL     1       2.385   1.406  -0.012  0.00  0.00    +0.046 A 
ATOM     24  C   UNL     1       1.176   2.086   0.002  0.00  0.00    +0.121 A 
ATOM     25  I   UNL     1       1.233  -2.775  -0.025  0.00  0.00    -0.044 I 
ENDBRANCH  18  24
ENDBRANCH  17  18
ENDBRANCH   1  17
TORSDOF 6
