REMARK  Name = ZINC54896980
REMARK  7 active torsions:
REMARK  status: ('A' for Active; 'I' for Inactive)
REMARK    1  A    between atoms: C_1  and  C_2
REMARK    2  A    between atoms: C_7  and  N_28
REMARK    3  A    between atoms: C_12  and  C_14
REMARK    4  A    between atoms: N_16  and  C_17
REMARK    5  A    between atoms: C_17  and  C_19
REMARK    6  A    between atoms: C_17  and  C_20
REMARK    7  A    between atoms: C_20  and  C_21
REMARK                            x       y       z     vdW  Elec       q    Type
REMARK                         _______ _______ _______ _____ _____    ______ ____
ROOT
ATOM      1  C   UNL     1       0.737  -3.053   1.653  0.00  0.00    +0.029 C 
ATOM      2  C   UNL     1      -0.046  -1.738   1.658  0.00  0.00    +0.083 C 
ATOM      3  C   UNL     1      -1.210  -1.807   0.657  0.00  0.00    +0.059 C 
ATOM      4  C   UNL     1      -0.921  -0.705  -0.338  0.00  0.00    -0.022 A 
ATOM      5  C   UNL     1      -1.615  -0.290  -1.458  0.00  0.00    +0.038 A 
ATOM      6  C   UNL     1      -1.139   0.760  -2.220  0.00  0.00    +0.127 A 
ATOM      7  C   UNL     1       0.035   1.396  -1.859  0.00  0.00    +0.034 A 
ATOM      8  C   UNL     1       0.731   0.985  -0.743  0.00  0.00    +0.026 A 
ATOM      9  C   UNL     1       0.257  -0.075   0.033  0.00  0.00    +0.040 A 
ATOM     10  N   UNL     1       0.803  -0.640   1.189  0.00  0.00    -0.260 N 
ATOM     11  C   UNL     1       1.943  -0.236   1.785  0.00  0.00    +0.306 C 
ATOM     12  O   UNL     1       2.572   0.694   1.323  0.00  0.00    -0.265 OA
ENDROOT
BRANCH  11  13
ATOM     13  C   UNL     1       2.430  -0.932   3.013  0.00  0.00    +0.300 C 
ATOM     14  O   UNL     1       1.746  -1.784   3.540  0.00  0.00    -0.265 OA
ATOM     15  N   UNL     1       3.631  -0.612   3.537  0.00  0.00    -0.305 N 
ATOM     16  H   UNL     1       4.178   0.069   3.116  0.00  0.00    +0.149 HD
BRANCH  15  17
ATOM     17  C   UNL     1       4.109  -1.295   4.742  0.00  0.00    +0.075 C 
ATOM     18  C   UNL     1       4.794  -2.605   4.348  0.00  0.00    +0.028 C 
BRANCH  17  19
ATOM     19  C   UNL     1       5.109  -0.397   5.473  0.00  0.00    +0.060 C 
BRANCH  19  20
ATOM     20  C   UNL     1       4.405   0.840   5.968  0.00  0.00    -0.010 A 
ATOM     21  C   UNL     1       4.418   1.995   5.209  0.00  0.00    +0.006 A 
ATOM     22  C   UNL     1       3.772   3.129   5.663  0.00  0.00    +0.000 A 
ATOM     23  C   UNL     1       3.112   3.110   6.878  0.00  0.00    +0.003 A 
ATOM     24  C   UNL     1       3.096   1.957   7.638  0.00  0.00    +0.038 A 
ATOM     25  C   UNL     1       3.739   0.818   7.182  0.00  0.00    +0.127 A 
ATOM     26  F   UNL     1       3.720  -0.311   7.923  0.00  0.00    -0.205 F 
ENDBRANCH  19  20
ENDBRANCH  17  19
ENDBRANCH  15  17
ENDBRANCH  11  13
BRANCH   6  27
ATOM     27  N   UNL     1      -1.885   1.204  -3.420  0.00  0.00    +0.056 N 
ATOM     28  O   UNL     1      -2.911   0.648  -3.733  0.00  0.00    -0.126 OA
ATOM     29  O   UNL     1      -1.467   2.123  -4.085  0.00  0.00    -0.126 OA
ENDBRANCH   6  27
TORSDOF 5
