REMARK  Name = ZINC00455186
REMARK  1 active torsions:
REMARK  status: ('A' for Active; 'I' for Inactive)
REMARK    1  A    between atoms: C_4  and  N_7
REMARK                            x       y       z     vdW  Elec       q    Type
REMARK                         _______ _______ _______ _____ _____    ______ ____
ROOT
ATOM      1  N   UNL     1       3.623  -0.651  -0.037  0.00  0.00    -0.255 N 
ATOM      2  C   UNL     1       3.635  -2.002   0.052  0.00  0.00    +0.267 A 
ATOM      3  O   UNL     1       2.488  -2.697   0.157  0.00  0.00    -0.267 OA
ATOM      4  C   UNL     1       4.879  -2.660   0.034  0.00  0.00    +0.067 A 
ATOM      5  C   UNL     1       4.979  -4.056   0.121  0.00  0.00    +0.015 A 
ATOM      6  C   UNL     1       6.208  -4.645   0.098  0.00  0.00    +0.002 A 
ATOM      7  C   UNL     1       7.367  -3.880  -0.011  0.00  0.00    +0.022 A 
ATOM      8  C   UNL     1       7.306  -2.519  -0.098  0.00  0.00    +0.067 A 
ATOM      9  C   UNL     1       6.060  -1.877  -0.078  0.00  0.00    +0.097 A 
ATOM     10  N   UNL     1       5.954  -0.543  -0.162  0.00  0.00    -0.221 NA
ATOM     11  C   UNL     1       4.767   0.043  -0.147  0.00  0.00    +0.188 A 
ATOM     12  S   UNL     1       4.689   1.749  -0.264  0.00  0.00    -0.011 S 
ATOM     13 CL   UNL     1       8.765  -1.588  -0.233  0.00  0.00    -0.081 Cl
ENDROOT
BRANCH   1  17
ATOM     14  C   UNL     1      -0.017   1.377   0.011  0.00  0.00    +0.000 A 
ATOM     15  C   UNL     1       0.523   0.959  -1.191  0.00  0.00    +0.002 A 
ATOM     16  C   UNL     1       1.729   0.286  -1.210  0.00  0.00    +0.026 A 
ATOM     17  C   UNL     1       2.400   0.031  -0.021  0.00  0.00    +0.052 A 
ATOM     18  C   UNL     1       1.854   0.453   1.184  0.00  0.00    +0.026 A 
ATOM     19  C   UNL     1       0.647   1.125   1.197  0.00  0.00    +0.002 A 
ENDBRANCH   1  17
TORSDOF 1
