REMARK  Name = ZINC08710702
REMARK  2 active torsions:
REMARK  status: ('A' for Active; 'I' for Inactive)
REMARK    1  A    between atoms: C_1  and  N_2
REMARK    2  A    between atoms: C_12  and  C_14
REMARK                            x       y       z     vdW  Elec       q    Type
REMARK                         _______ _______ _______ _____ _____    ______ ____
ROOT
ATOM      1  C   UNL     1      -1.404  -0.708   1.413  0.00  0.00    +0.131 C 
ATOM      2  N   UNL     1      -2.189  -0.443   0.200  0.00  0.00    -0.310 N 
ATOM      3  C   UNL     1      -1.451  -0.716  -0.940  0.00  0.00    +0.043 A 
ATOM      4  C   UNL     1      -0.325  -1.527  -0.887  0.00  0.00    +0.024 A 
ATOM      5  C   UNL     1       0.391  -1.785  -2.038  0.00  0.00    +0.002 A 
ATOM      6  C   UNL     1      -0.003  -1.244  -3.252  0.00  0.00    +0.001 A 
ATOM      7  C   UNL     1      -1.119  -0.435  -3.325  0.00  0.00    +0.015 A 
ATOM      8  C   UNL     1      -1.847  -0.165  -2.170  0.00  0.00    +0.058 A 
ATOM      9  C   UNL     1      -3.043   0.701  -2.197  0.00  0.00    +0.247 C 
ATOM     10  O   UNL     1      -3.617   0.955  -3.239  0.00  0.00    -0.270 OA
ATOM     11  N   UNL     1      -3.474   1.203  -1.015  0.00  0.00    -0.289 N 
ATOM     12  C   UNL     1      -2.722   0.921   0.207  0.00  0.00    +0.191 C 
ATOM     13  H   UNL     1      -4.277   1.746  -0.980  0.00  0.00    +0.151 HD
ENDROOT
BRANCH  12  14
ATOM     14  C   UNL     1      -1.579   1.897   0.320  0.00  0.00    +0.006 C 
ATOM     15  C   UNL     1      -1.039   2.414  -0.779  0.00  0.00    +0.017 C 
ATOM     16  C   UNL     1       0.100   3.344  -0.629  0.00  0.00    +0.017 A 
ATOM     17  C   UNL     1       0.528   4.142  -1.685  0.00  0.00    +0.011 A 
ATOM     18  C   UNL     1       1.589   5.007  -1.498  0.00  0.00    +0.001 A 
ATOM     19  C   UNL     1       2.221   5.082  -0.269  0.00  0.00    +0.004 A 
ATOM     20  C   UNL     1       1.806   4.288   0.785  0.00  0.00    +0.046 A 
ATOM     21  C   UNL     1       0.750   3.412   0.610  0.00  0.00    +0.128 A 
ATOM     22  O   UNL     1       0.341   2.592   1.612  0.00  0.00    -0.487 OA
ATOM     23  C   UNL     1      -1.049   2.277   1.677  0.00  0.00    +0.263 C 
ENDBRANCH  12  14
TORSDOF 1
