REMARK  Name = ZINC24123024
REMARK  3 active torsions:
REMARK  status: ('A' for Active; 'I' for Inactive)
REMARK    1  A    between atoms: C_7  and  C_15
REMARK    2  A    between atoms: N_17  and  N_18
REMARK    3  A    between atoms: C_19  and  C_21
REMARK                            x       y       z     vdW  Elec       q    Type
REMARK                         _______ _______ _______ _____ _____    ______ ____
ROOT
ATOM      1  C   UNL     1       4.956  -3.560  -0.065  0.00  0.00    +0.241 C 
ATOM      2  O   UNL     1       5.737  -2.632  -0.067  0.00  0.00    -0.273 OA
ATOM      3  N   UNL     1       3.629  -3.324  -0.051  0.00  0.00    -0.233 N 
ATOM      4  H   UNL     1       2.921  -4.165  -0.049  0.00  0.00    +0.173 HD
ENDROOT
BRANCH   1  11
ATOM      5  C   UNL     1       9.009  -4.674  -1.339  0.00  0.00    +0.001 A 
ATOM      6  C   UNL     1       9.742  -4.920  -0.192  0.00  0.00    +0.004 A 
ATOM      7  C   UNL     1       9.094  -5.186   0.997  0.00  0.00    +0.046 A 
ATOM      8  C   UNL     1       7.705  -5.206   1.046  0.00  0.00    +0.133 A 
ATOM      9  C   UNL     1       6.973  -4.960  -0.104  0.00  0.00    +0.011 A 
ATOM     10  C   UNL     1       7.628  -4.694  -1.294  0.00  0.00    +0.008 A 
ATOM     11  C   UNL     1       5.469  -4.976  -0.078  0.00  0.00    +0.143 C 
ATOM     12  C   UNL     1       4.972  -5.696   1.146  0.00  0.00    +0.011 A 
ATOM     13  C   UNL     1       3.665  -6.152   1.182  0.00  0.00    +0.008 A 
ATOM     14  C   UNL     1       3.190  -6.815   2.296  0.00  0.00    +0.001 A 
ATOM     15  C   UNL     1       4.019  -7.027   3.382  0.00  0.00    +0.004 A 
ATOM     16  C   UNL     1       5.323  -6.574   3.353  0.00  0.00    +0.046 A 
ATOM     17  C   UNL     1       5.804  -5.905   2.232  0.00  0.00    +0.133 A 
ATOM     18  O   UNL     1       7.087  -5.469   2.222  0.00  0.00    -0.455 OA
ENDBRANCH   1  11
BRANCH   3  19
ATOM     19  N   UNL     1       3.152  -2.006  -0.039  0.00  0.00    -0.229 N 
ATOM     20  C   UNL     1       1.825  -1.770  -0.025  0.00  0.00    +0.276 C 
ATOM     21  O   UNL     1       1.041  -2.701  -0.023  0.00  0.00    -0.267 OA
ATOM     22  H   UNL     1       3.860  -1.165  -0.041  0.00  0.00    +0.173 HD
BRANCH  20  23
ATOM     23  C   UNL     1       1.325  -0.391  -0.013  0.00  0.00    +0.104 A 
ATOM     24  C   UNL     1       0.002  -0.004   0.002  0.00  0.00    +0.047 A 
ATOM     25  C   UNL     1      -0.017   1.395   0.010  0.00  0.00    +0.036 A 
ATOM     26  C   UNL     1       1.267   1.827  -0.000  0.00  0.00    +0.098 A 
ATOM     27  N   UNL     1       2.092   0.752  -0.014  0.00  0.00    -0.356 N 
ATOM     28  H   UNL     1       3.190   0.677  -0.025  0.00  0.00    +0.166 HD
ATOM     29 BR   UNL     1      -1.560   2.487   0.023  0.00  0.00    -0.049 Br
ENDBRANCH  20  23
ENDBRANCH   3  19
TORSDOF 3
