REMARK  Name = ZINC09134704
REMARK  6 active torsions:
REMARK  status: ('A' for Active; 'I' for Inactive)
REMARK    1  A    between atoms: C_1  and  C_2
REMARK    2  A    between atoms: C_2  and  C_4
REMARK    3  A    between atoms: C_2  and  N_13
REMARK    4  A    between atoms: C_14  and  C_16
REMARK    5  A    between atoms: N_19  and  S_22
REMARK    6  A    between atoms: S_22  and  C_25
REMARK                            x       y       z     vdW  Elec       q    Type
REMARK                         _______ _______ _______ _____ _____    ______ ____
ROOT
ATOM      1  C   UNL     1       1.843   6.083   4.370  0.00  0.00    +0.077 C 
ATOM      2  C   UNL     1       3.091   6.056   3.485  0.00  0.00    +0.030 C 
ATOM      3  C   UNL     1       3.446   4.603   3.154  0.00  0.00    +0.110 C 
ATOM      4  N   UNL     1       2.270   3.953   2.560  0.00  0.00    -0.177 NA
ATOM      5  C   UNL     1       0.993   4.003   3.285  0.00  0.00    +0.110 C 
ATOM      6  C   UNL     1       0.667   5.458   3.617  0.00  0.00    +0.030 C 
ENDROOT
BRANCH   1   8
ATOM      7  N   UNL     1       0.443   7.779   5.504  0.00  0.00    -0.304 N 
ATOM      8  C   UNL     1       1.510   7.509   4.726  0.00  0.00    +0.217 C 
ATOM      9  O   UNL     1       2.203   8.415   4.312  0.00  0.00    -0.275 OA
ATOM     10  H   UNL     1      -0.111   7.054   5.835  0.00  0.00    +0.149 HD
BRANCH   7  12
ATOM     11  C   UNL     1      -0.722   9.786   4.733  0.00  0.00    +0.038 C 
ATOM     12  C   UNL     1       0.120   9.165   5.850  0.00  0.00    +0.156 C 
BRANCH  12  13
ATOM     13  C   UNL     1      -0.658   9.193   7.140  0.00  0.00    +0.236 C 
ATOM     14  O   UNL     1      -1.123   8.167   7.590  0.00  0.00    -0.274 OA
ATOM     15  N   UNL     1      -0.838  10.357   7.794  0.00  0.00    -0.300 N 
ATOM     16  C   UNL     1      -1.492  10.335   9.083  0.00  0.00    +0.108 C 
ATOM     17  C   UNL     1      -3.018  10.472   8.901  0.00  0.00    +0.019 C 
ATOM     18  C   UNL     1      -3.360  11.839   8.478  0.00  0.00    +0.002 C 
ATOM     19  C   UNL     1      -2.779  12.243   7.126  0.00  0.00    +0.002 C 
ATOM     20  C   UNL     1      -1.373  12.755   7.320  0.00  0.00    +0.019 C 
ATOM     21  C   UNL     1      -0.363  11.604   7.162  0.00  0.00    +0.108 C 
ENDBRANCH  12  13
ENDBRANCH   7  12
ENDBRANCH   1   8
BRANCH   4  22
ATOM     22  S   UNL     1       2.381   3.183   1.098  0.00  0.00    +0.061 S 
ATOM     23  O   UNL     1       3.485   3.761   0.417  0.00  0.00    -0.153 OA
ATOM     24  O   UNL     1       1.071   3.165   0.548  0.00  0.00    -0.153 OA
BRANCH  22  25
ATOM     25  C   UNL     1       2.813   1.506   1.424  0.00  0.00    +0.106 A 
ATOM     26  C   UNL     1       1.821   0.562   1.615  0.00  0.00    +0.031 A 
ATOM     27  C   UNL     1       2.159  -0.754   1.870  0.00  0.00    +0.040 A 
ATOM     28  C   UNL     1       3.491  -1.126   1.935  0.00  0.00    +0.124 A 
ATOM     29  C   UNL     1       4.483  -0.180   1.744  0.00  0.00    +0.040 A 
ATOM     30  C   UNL     1       4.143   1.135   1.488  0.00  0.00    +0.031 A 
ATOM     31  F   UNL     1       3.822  -2.412   2.185  0.00  0.00    -0.205 F 
ENDBRANCH  22  25
ENDBRANCH   4  22
TORSDOF 5
