REMARK  Name = ZINC11381051
REMARK  5 active torsions:
REMARK  status: ('A' for Active; 'I' for Inactive)
REMARK    1  A    between atoms: C_1  and  C_2
REMARK    2  A    between atoms: N_11  and  C_15
REMARK    3  A    between atoms: C_15  and  C_16
REMARK    4  A    between atoms: C_16  and  C_18
REMARK    5  A    between atoms: C_16  and  O_24
REMARK                            x       y       z     vdW  Elec       q    Type
REMARK                         _______ _______ _______ _____ _____    ______ ____
ROOT
ATOM      1  C   UNL     1      -1.173   1.820  -2.477  0.00  0.00    +0.010 C 
ATOM      2  C   UNL     1      -2.038   1.597  -1.235  0.00  0.00    +0.018 C 
ATOM      3  C   UNL     1      -2.569   0.161  -1.235  0.00  0.00    +0.006 C 
ATOM      4  C   UNL     1      -3.417  -0.067   0.017  0.00  0.00    +0.000 C 
ATOM      5  C   UNL     1      -2.558   0.149   1.265  0.00  0.00    +0.003 C 
ATOM      6  C   UNL     1      -2.026   1.585   1.274  0.00  0.00    +0.035 C 
ATOM      7  C   UNL     1      -1.199   1.829   0.017  0.00  0.00    +0.115 C 
ATOM      8  C   UNL     1      -0.634   3.231   0.024  0.00  0.00    +0.247 C 
ATOM      9  O   UNL     1      -1.255   4.272   0.035  0.00  0.00    -0.273 OA
ATOM     10  N   UNL     1       0.707   3.079   0.011  0.00  0.00    -0.221 N 
ATOM     11  C   UNL     1       1.056   1.787   0.002  0.00  0.00    +0.309 C 
ATOM     12  O   UNL     1       2.208   1.399  -0.011  0.00  0.00    -0.252 OA
ATOM     13  N   UNL     1      -0.011   0.966   0.007  0.00  0.00    -0.285 N 
ATOM     14  H   UNL     1       0.002  -0.004   0.002  0.00  0.00    +0.151 HD
ENDROOT
BRANCH  10  15
ATOM     15  C   UNL     1       1.661   4.191   0.008  0.00  0.00    +0.154 C 
BRANCH  15  16
ATOM     16  C   UNL     1       1.980   4.585  -1.435  0.00  0.00    +0.162 C 
BRANCH  16  17
ATOM     17  C   UNL     1       2.962   5.728  -1.438  0.00  0.00    -0.018 A 
ATOM     18  C   UNL     1       4.318   5.475  -1.342  0.00  0.00    +0.006 A 
ATOM     19  C   UNL     1       5.218   6.524  -1.349  0.00  0.00    +0.000 A 
ATOM     20  C   UNL     1       4.763   7.826  -1.443  0.00  0.00    +0.000 A 
ATOM     21  C   UNL     1       3.407   8.079  -1.534  0.00  0.00    +0.000 A 
ATOM     22  C   UNL     1       2.507   7.030  -1.532  0.00  0.00    +0.006 A 
ENDBRANCH  16  17
BRANCH  16  23
ATOM     23  O   UNL     1       2.549   3.467  -2.120  0.00  0.00    -0.386 OA
ATOM     24  H   UNL     1       3.369   3.140  -1.726  0.00  0.00    +0.210 HD
ENDBRANCH  16  23
ENDBRANCH  15  16
ENDBRANCH  10  15
TORSDOF 4
