REMARK  Name = ZINC08755173
REMARK  8 active torsions:
REMARK  status: ('A' for Active; 'I' for Inactive)
REMARK    1  A    between atoms: C_1  and  C_2
REMARK    2  A    between atoms: C_3  and  S_18
REMARK    3  A    between atoms: C_4  and  C_17
REMARK    4  A    between atoms: N_5  and  S_7
REMARK    5  A    between atoms: S_7  and  C_10
REMARK    6  A    between atoms: S_18  and  N_21
REMARK    7  A    between atoms: N_21  and  C_22
REMARK    8  A    between atoms: N_21  and  C_23
REMARK                            x       y       z     vdW  Elec       q    Type
REMARK                         _______ _______ _______ _____ _____    ______ ____
ROOT
ATOM      1  C   UNL     1       7.424  -1.108   1.438  0.00  0.00    +0.069 C 
ATOM      2  C   UNL     1       6.780   0.236   1.663  0.00  0.00    +0.089 A 
ATOM      3  C   UNL     1       5.810   0.828   0.849  0.00  0.00    +0.154 A 
ATOM      4  C   UNL     1       5.493   2.030   1.385  0.00  0.00    +0.088 A 
ATOM      5  N   UNL     1       6.230   2.188   2.504  0.00  0.00    -0.131 N 
ATOM      6  N   UNL     1       7.033   1.050   2.656  0.00  0.00    -0.153 NA
ATOM      7  C   UNL     1       4.493   3.013   0.833  0.00  0.00    +0.069 C 
ENDROOT
BRANCH   5   8
ATOM      8  S   UNL     1       6.196   3.499   3.515  0.00  0.00    +0.099 S 
ATOM      9  O   UNL     1       4.927   4.113   3.341  0.00  0.00    -0.146 OA
ATOM     10  O   UNL     1       6.656   3.047   4.782  0.00  0.00    -0.146 OA
BRANCH   8  11
ATOM     11  C   UNL     1       7.396   4.645   2.924  0.00  0.00    +0.113 A 
ATOM     12  C   UNL     1       8.697   4.585   3.388  0.00  0.00    +0.032 A 
ATOM     13  C   UNL     1       9.640   5.480   2.921  0.00  0.00    +0.040 A 
ATOM     14  C   UNL     1       9.280   6.444   1.995  0.00  0.00    +0.124 A 
ATOM     15  C   UNL     1       7.976   6.507   1.534  0.00  0.00    +0.040 A 
ATOM     16  C   UNL     1       7.035   5.607   1.999  0.00  0.00    +0.032 A 
ATOM     17  F   UNL     1      10.200   7.323   1.541  0.00  0.00    -0.205 F 
ENDBRANCH   8  11
ENDBRANCH   5   8
BRANCH   3  18
ATOM     18  S   UNL     1       5.127   0.136  -0.621  0.00  0.00    +0.078 S 
ATOM     19  O   UNL     1       6.074  -0.808  -1.103  0.00  0.00    -0.150 OA
ATOM     20  O   UNL     1       4.668   1.226  -1.408  0.00  0.00    -0.150 OA
BRANCH  18  21
ATOM     21  N   UNL     1       3.784  -0.726  -0.177  0.00  0.00    -0.206 N 
ATOM     22  C   UNL     1       2.461  -0.100  -0.232  0.00  0.00    +0.157 C 
BRANCH  21  23
ATOM     23  C   UNL     1       3.913  -2.050   0.249  0.00  0.00    +0.051 A 
ATOM     24  C   UNL     1       3.490  -2.417   1.520  0.00  0.00    +0.025 A 
ATOM     25  C   UNL     1       3.619  -3.726   1.939  0.00  0.00    +0.002 A 
ATOM     26  C   UNL     1       4.170  -4.673   1.093  0.00  0.00    +0.000 A 
ATOM     27  C   UNL     1       4.592  -4.311  -0.173  0.00  0.00    +0.002 A 
ATOM     28  C   UNL     1       4.466  -3.003  -0.597  0.00  0.00    +0.025 A 
ENDBRANCH  21  23
ENDBRANCH  18  21
ENDBRANCH   3  18
TORSDOF 5
