REMARK  Name = ZINC56381164
REMARK  5 active torsions:
REMARK  status: ('A' for Active; 'I' for Inactive)
REMARK    1  A    between atoms: C_4  and  C_7
REMARK    2  A    between atoms: C_7  and  C_9
REMARK    3  A    between atoms: C_7  and  N_12
REMARK    4  A    between atoms: C_13  and  C_15
REMARK    5  A    between atoms: N_24  and  C_25
REMARK                            x       y       z     vdW  Elec       q    Type
REMARK                         _______ _______ _______ _____ _____    ______ ____
ROOT
ATOM      1  C   UNL     1       4.580  -3.784  -1.784  0.00  0.00    +0.092 C 
ATOM      2  C   UNL     1       5.914  -3.950  -2.516  0.00  0.00    +0.016 C 
ATOM      3  C   UNL     1       5.738  -4.921  -3.686  0.00  0.00    +0.020 C 
ATOM      4  C   UNL     1       5.307  -6.290  -3.148  0.00  0.00    +0.109 C 
ATOM      5  N   UNL     1       4.104  -6.116  -2.322  0.00  0.00    -0.285 N 
ATOM      6  C   UNL     1       4.135  -5.139  -1.225  0.00  0.00    +0.122 C 
ATOM      7  C   UNL     1       2.993  -6.838  -2.567  0.00  0.00    +0.307 C 
ATOM      8  O   UNL     1       2.031  -6.741  -1.830  0.00  0.00    -0.252 OA
ATOM      9  N   UNL     1       2.949  -7.668  -3.627  0.00  0.00    -0.267 N 
ATOM     10  H   UNL     1       3.740  -7.800  -4.174  0.00  0.00    +0.156 HD
ENDROOT
BRANCH   9  11
ATOM     11  C   UNL     1       1.761  -8.341  -3.941  0.00  0.00    +0.070 A 
ATOM     12  C   UNL     1       0.551  -7.888  -3.435  0.00  0.00    +0.026 A 
ATOM     13  C   UNL     1      -0.619  -8.554  -3.746  0.00  0.00    +0.002 A 
ATOM     14  C   UNL     1      -0.587  -9.671  -4.560  0.00  0.00    +0.003 A 
ATOM     15  C   UNL     1       0.617 -10.127  -5.066  0.00  0.00    +0.040 A 
ATOM     16  C   UNL     1       1.791  -9.462  -4.764  0.00  0.00    +0.145 A 
ATOM     17  F   UNL     1       2.966  -9.903  -5.263  0.00  0.00    -0.204 F 
ENDBRANCH   9  11
BRANCH   1  19
ATOM     18  N   UNL     1       3.697  -2.499   0.136  0.00  0.00    -0.300 N 
ATOM     19  C   UNL     1       4.747  -2.803  -0.653  0.00  0.00    +0.218 C 
ATOM     20  O   UNL     1       5.826  -2.287  -0.451  0.00  0.00    -0.275 OA
ATOM     21  H   UNL     1       2.834  -2.912  -0.025  0.00  0.00    +0.150 HD
BRANCH  18  22
ATOM     22  C   UNL     1       3.859  -1.545   1.236  0.00  0.00    +0.189 C 
BRANCH  22  26
ATOM     23  C   UNL     1       0.084   0.237   2.140  0.00  0.00    +0.000 A 
ATOM     24  C   UNL     1       1.232   1.007   2.150  0.00  0.00    +0.000 A 
ATOM     25  C   UNL     1       2.453   0.431   1.857  0.00  0.00    +0.006 A 
ATOM     26  C   UNL     1       2.527  -0.916   1.556  0.00  0.00    -0.018 A 
ATOM     27  C   UNL     1       1.379  -1.687   1.548  0.00  0.00    +0.006 A 
ATOM     28  C   UNL     1       0.157  -1.110   1.839  0.00  0.00    +0.000 A 
ENDBRANCH  22  26
BRANCH  22  29
ATOM     29  C   UNL     1       4.379  -2.266   2.453  0.00  0.00    +0.235 C 
ATOM     30  O   UNL     1       4.594  -3.459   2.406  0.00  0.00    -0.274 OA
ATOM     31  N   UNL     1       4.606  -1.585   3.594  0.00  0.00    -0.328 N 
ATOM     32  H   UNL     1       4.435  -0.631   3.631  0.00  0.00    +0.145 HD
ATOM     33  H   UNL     1       4.941  -2.049   4.377  0.00  0.00    +0.145 HD
ENDBRANCH  22  29
ENDBRANCH  18  22
ENDBRANCH   1  19
TORSDOF 5
