REMARK  Name = ZINC13378605
REMARK  6 active torsions:
REMARK  status: ('A' for Active; 'I' for Inactive)
REMARK    1  A    between atoms: C_1  and  O_2
REMARK    2  A    between atoms: O_2  and  C_3
REMARK    3  A    between atoms: C_8  and  O_9
REMARK    4  A    between atoms: C_15  and  O_22
REMARK    5  A    between atoms: C_16  and  O_21
REMARK    6  A    between atoms: O_22  and  C_23
REMARK                            x       y       z     vdW  Elec       q    Type
REMARK                         _______ _______ _______ _____ _____    ______ ____
ROOT
ATOM      1  C   UNL     1       4.027   2.482  -4.851  0.00  0.00    +0.162 A 
ATOM      2  C   UNL     1       3.368   2.175  -3.673  0.00  0.00    +0.058 A 
ATOM      3  C   UNL     1       3.788   2.749  -2.477  0.00  0.00    -0.007 A 
ATOM      4  C   UNL     1       4.860   3.640  -2.467  0.00  0.00    -0.037 A 
ATOM      5  C   UNL     1       5.519   3.938  -3.642  0.00  0.00    +0.053 A 
ATOM      6  C   UNL     1       5.107   3.362  -4.834  0.00  0.00    +0.159 A 
ATOM      7  C   UNL     1       5.287   4.274  -1.171  0.00  0.00    +0.025 C 
ATOM      8  C   UNL     1       5.137   3.289  -0.014  0.00  0.00    -0.036 C 
ATOM      9  C   UNL     1       3.755   2.692   0.008  0.00  0.00    -0.047 A 
ATOM     10  C   UNL     1       3.108   2.421  -1.202  0.00  0.00    +0.030 A 
ATOM     11  C   UNL     1       1.846   1.832  -1.208  0.00  0.00    +0.169 A 
ATOM     12  C   UNL     1       1.224   1.533  -0.001  0.00  0.00    +0.159 A 
ATOM     13  C   UNL     1       1.863   1.823   1.190  0.00  0.00    +0.053 A 
ATOM     14  C   UNL     1       3.132   2.390   1.200  0.00  0.00    -0.043 A 
ATOM     15  C   UNL     1       3.783   2.640   2.531  0.00  0.00    +0.016 C 
ATOM     16  C   UNL     1       5.225   3.098   2.392  0.00  0.00    -0.077 C 
ATOM     17  N   UNL     1       5.379   4.010   1.250  0.00  0.00    +0.384 N 
ATOM     18  H   UNL     1       4.704   4.779   1.337  0.00  0.00    -0.085 HD
ATOM     19  H   UNL     1       6.333   4.390   1.247  0.00  0.00    -0.085 HD
ENDROOT
BRANCH   1  21
ATOM     20  C   UNL     1       2.508   1.032  -5.966  0.00  0.00    +0.277 C 
ATOM     21  O   UNL     1       3.622   1.925  -6.023  0.00  0.00    -0.491 OA
ENDBRANCH   1  21
BRANCH   6  22
ATOM     22  O   UNL     1       5.759   3.657  -5.990  0.00  0.00    -0.503 OA
ATOM     23  H   UNL     1       6.497   3.065  -6.188  0.00  0.00    +0.292 HD
ENDBRANCH   6  22
BRANCH  12  24
ATOM     24  O   UNL     1      -0.011   0.963   0.007  0.00  0.00    -0.503 OA
ATOM     25  H   UNL     1       0.002  -0.004   0.002  0.00  0.00    +0.292 HD
ENDBRANCH  12  24
BRANCH  11  26
ATOM     26  O   UNL     1       1.227   1.551  -2.385  0.00  0.00    -0.491 OA
ATOM     27  C   UNL     1       0.393   2.570  -2.939  0.00  0.00    +0.277 C 
ENDBRANCH  11  26
TORSDOF 4
