REMARK  Name = ZINC40984068
REMARK  8 active torsions:
REMARK  status: ('A' for Active; 'I' for Inactive)
REMARK    1  A    between atoms: C_1  and  C_2
REMARK    2  A    between atoms: C_3  and  C_16
REMARK    3  A    between atoms: C_5  and  C_7
REMARK    4  A    between atoms: C_12  and  O_13
REMARK    5  A    between atoms: O_13  and  C_14
REMARK    6  A    between atoms: C_16  and  N_17
REMARK    7  A    between atoms: C_20  and  C_23
REMARK    8  A    between atoms: C_27  and  C_29
REMARK                            x       y       z     vdW  Elec       q    Type
REMARK                         _______ _______ _______ _____ _____    ______ ____
ROOT
ATOM      1  C   UNL     1      -0.018   1.503   0.010  0.00  0.00    +0.088 C 
ATOM      2  C   UNL     1       0.002  -0.004   0.002  0.00  0.00    +0.124 A 
ATOM      3  C   UNL     1      -1.070  -0.816   0.003  0.00  0.00    +0.066 A 
ATOM      4  N   UNL     1      -0.627  -2.083  -0.007  0.00  0.00    -0.216 NA
ATOM      5  C   UNL     1       0.686  -2.068  -0.014  0.00  0.00    +0.231 A 
ATOM      6  O   UNL     1       1.099  -0.788  -0.013  0.00  0.00    -0.440 OA
ENDROOT
BRANCH   5   7
ATOM      7  C   UNL     1       1.562  -3.257  -0.025  0.00  0.00    +0.079 A 
ATOM      8  C   UNL     1       1.006  -4.537  -0.036  0.00  0.00    +0.032 A 
ATOM      9  C   UNL     1       1.830  -5.644  -0.046  0.00  0.00    +0.019 A 
ATOM     10  C   UNL     1       3.207  -5.490  -0.046  0.00  0.00    +0.019 A 
ATOM     11  C   UNL     1       3.768  -4.227  -0.035  0.00  0.00    +0.047 A 
ATOM     12  C   UNL     1       2.954  -3.106  -0.031  0.00  0.00    +0.132 A 
ATOM     13 BR   UNL     1       1.077  -7.379  -0.061  0.00  0.00    -0.050 Br
BRANCH  12  14
ATOM     14  O   UNL     1       3.505  -1.864  -0.026  0.00  0.00    -0.494 OA
ATOM     15  C   UNL     1       4.931  -1.787  -0.033  0.00  0.00    +0.277 C 
ENDBRANCH  12  14
ENDBRANCH   5   7
BRANCH   3  16
ATOM     16  C   UNL     1      -2.513  -0.381   0.012  0.00  0.00    -0.019 C 
BRANCH  16  17
ATOM     17  N   UNL     1      -2.989  -0.231  -1.370  0.00  0.00    +0.383 N 
ATOM     18  C   UNL     1      -2.973  -1.539  -2.035  0.00  0.00    -0.078 C 
ATOM     19  C   UNL     1      -3.390  -1.376  -3.498  0.00  0.00    -0.006 C 
ATOM     20  C   UNL     1      -4.803  -0.788  -3.558  0.00  0.00    +0.072 C 
ATOM     21  C   UNL     1      -4.824   0.541  -2.797  0.00  0.00    -0.006 C 
ATOM     22  C   UNL     1      -4.354   0.307  -1.360  0.00  0.00    -0.078 C 
ATOM     23  H   UNL     1      -2.381   0.404  -1.866  0.00  0.00    -0.081 HD
BRANCH  20  24
ATOM     24  C   UNL     1      -5.190  -0.551  -4.995  0.00  0.00    +0.219 C 
ATOM     25  O   UNL     1      -4.414  -0.826  -5.886  0.00  0.00    -0.275 OA
ATOM     26  N   UNL     1      -6.399  -0.035  -5.292  0.00  0.00    -0.295 N 
ATOM     27  C   UNL     1      -7.687   0.481  -4.820  0.00  0.00    +0.130 C 
ATOM     28  C   UNL     1      -7.351   0.413  -6.311  0.00  0.00    +0.090 C 
ATOM     29  C   UNL     1      -7.054   1.732  -7.028  0.00  0.00    +0.029 C 
ENDBRANCH  20  24
ENDBRANCH  16  17
ENDBRANCH   3  16
TORSDOF 5
