REMARK  Name = ZINC31773685
REMARK  8 active torsions:
REMARK  status: ('A' for Active; 'I' for Inactive)
REMARK    1  A    between atoms: C_1  and  C_2
REMARK    2  A    between atoms: C_2  and  C_3
REMARK    3  A    between atoms: C_6  and  N_9
REMARK    4  A    between atoms: N_19  and  C_23
REMARK    5  A    between atoms: C_23  and  C_24
REMARK    6  A    between atoms: C_24  and  C_25
REMARK    7  A    between atoms: C_30  and  O_31
REMARK    8  A    between atoms: O_31  and  C_32
REMARK                            x       y       z     vdW  Elec       q    Type
REMARK                         _______ _______ _______ _____ _____    ______ ____
ROOT
ATOM      1  N   UNL     1       1.148   1.867   0.001  0.00  0.00    -0.270 N 
ATOM      2  C   UNL     1       1.249   3.322   0.039  0.00  0.00    +0.090 C 
ATOM      3  C   UNL     1       2.294   3.722   1.108  0.00  0.00    +0.187 C 
ATOM      4  S   UNL     1       1.259   4.011   2.600  0.00  0.00    -0.031 S 
ATOM      5  O   UNL     1       1.368   5.375   2.982  0.00  0.00    -0.174 OA
ATOM      6  O   UNL     1       1.529   2.994   3.555  0.00  0.00    -0.174 OA
ATOM      7  C   UNL     1      -0.410   3.724   1.874  0.00  0.00    +0.152 C 
ATOM      8  C   UNL     1      -0.109   3.953   0.368  0.00  0.00    -0.024 C 
ATOM      9  N   UNL     1      -1.162   3.314  -0.430  0.00  0.00    +0.390 N 
ATOM     10  C   UNL     1      -1.341   1.914  -0.035  0.00  0.00    +0.020 C 
ATOM     11  C   UNL     1      -0.014   1.209  -0.040  0.00  0.00    +0.203 C 
ATOM     12  O   UNL     1       0.003  -0.003  -0.089  0.00  0.00    -0.277 OA
ATOM     13  H   UNL     1      -0.845   3.329  -1.483  0.00  0.00    -0.081 HD
ENDROOT
BRANCH   1  17
ATOM     14  C   UNL     1       4.673  -0.354   0.021  0.00  0.00    -0.048 A 
ATOM     15  C   UNL     1       3.820  -0.403   1.108  0.00  0.00    +0.005 A 
ATOM     16  C   UNL     1       2.651   0.332   1.105  0.00  0.00    +0.024 A 
ATOM     17  C   UNL     1       2.332   1.121   0.008  0.00  0.00    +0.036 A 
ATOM     18  C   UNL     1       3.188   1.165  -1.085  0.00  0.00    +0.024 A 
ATOM     19  C   UNL     1       4.358   0.432  -1.073  0.00  0.00    +0.005 A 
BRANCH  14  21
ATOM     20  C   UNL     1       5.680  -2.542  -0.569  0.00  0.00    +0.009 C 
ATOM     21  C   UNL     1       5.947  -1.158   0.027  0.00  0.00    +0.032 C 
ENDBRANCH  14  21
ENDBRANCH   1  17
BRANCH   9  22
ATOM     22  C   UNL     1      -2.425   4.058  -0.327  0.00  0.00    -0.073 C 
BRANCH  22  23
ATOM     23  C   UNL     1      -3.552   3.239  -0.958  0.00  0.00    +0.020 C 
BRANCH  23  24
ATOM     24  C   UNL     1      -4.847   4.001  -0.852  0.00  0.00    -0.007 A 
ATOM     25  C   UNL     1      -5.711   3.755   0.198  0.00  0.00    +0.007 A 
ATOM     26  C   UNL     1      -6.897   4.458   0.298  0.00  0.00    +0.000 A 
ATOM     27  C   UNL     1      -7.228   5.401  -0.657  0.00  0.00    +0.004 A 
ATOM     28  C   UNL     1      -6.370   5.647  -1.712  0.00  0.00    +0.046 A 
ATOM     29  C   UNL     1      -5.177   4.947  -1.812  0.00  0.00    +0.123 A 
BRANCH  29  30
ATOM     30  O   UNL     1      -4.332   5.187  -2.849  0.00  0.00    -0.495 OA
ATOM     31  C   UNL     1      -4.736   6.174  -3.800  0.00  0.00    +0.277 C 
ENDBRANCH  29  30
ENDBRANCH  23  24
ENDBRANCH  22  23
ENDBRANCH   9  22
TORSDOF 6
