REMARK  Name = ZINC20503433
REMARK  5 active torsions:
REMARK  status: ('A' for Active; 'I' for Inactive)
REMARK    1  A    between atoms: C_1  and  N_2
REMARK    2  A    between atoms: C_5  and  N_8
REMARK    3  A    between atoms: C_17  and  C_24
REMARK    4  A    between atoms: C_27  and  O_30
REMARK    5  A    between atoms: O_30  and  C_31
REMARK                            x       y       z     vdW  Elec       q    Type
REMARK                         _______ _______ _______ _____ _____    ______ ____
ROOT
ATOM      1  N   UNL     1      -1.454   4.540   2.531  0.00  0.00    -0.299 NA
ATOM      2  C   UNL     1      -1.336   5.915   2.035  0.00  0.00    +0.090 C 
ATOM      3  C   UNL     1      -1.304   5.946   0.514  0.00  0.00    +0.024 C 
ATOM      4  C   UNL     1      -2.538   5.236  -0.080  0.00  0.00    +0.017 C 
ATOM      5  C   UNL     1      -2.551   3.810   0.483  0.00  0.00    +0.051 C 
ATOM      6  C   UNL     1      -2.668   3.890   2.014  0.00  0.00    +0.094 C 
ATOM      7  C   UNL     1      -1.235   3.139   0.161  0.00  0.00    +0.034 A 
ATOM      8  C   UNL     1      -1.235   1.777   0.018  0.00  0.00    +0.002 A 
ATOM      9  C   UNL     1      -0.021   1.083  -0.159  0.00  0.00    +0.015 A 
ATOM     10  C   UNL     1       1.143   1.789  -0.163  0.00  0.00    +0.071 A 
ATOM     11  C   UNL     1       1.101   3.183  -0.017  0.00  0.00    +0.252 A 
ATOM     12  O   UNL     1       2.144   3.814   0.043  0.00  0.00    -0.268 OA
ATOM     13  N   UNL     1      -0.083   3.839   0.058  0.00  0.00    -0.311 N 
ATOM     14  C   UNL     1      -0.042   5.299  -0.035  0.00  0.00    +0.130 C 
ENDROOT
BRANCH   1  19
ATOM     15  C   UNL     1      -2.817   3.639   7.947  0.00  0.00    -0.096 C 
ATOM     16  N   UNL     1      -2.681   3.761   6.490  0.00  0.00    +0.378 N 
ATOM     17  C   UNL     1      -2.627   5.171   6.082  0.00  0.00    -0.078 C 
ATOM     18  C   UNL     1      -2.632   5.262   4.555  0.00  0.00    +0.000 C 
ATOM     19  C   UNL     1      -1.423   4.505   3.999  0.00  0.00    +0.053 C 
ATOM     20  C   UNL     1      -1.477   3.051   4.478  0.00  0.00    +0.000 C 
ATOM     21  C   UNL     1      -1.505   3.024   6.008  0.00  0.00    -0.078 C 
ATOM     22  H   UNL     1      -3.571   3.312   6.027  0.00  0.00    -0.082 HD
ENDBRANCH   1  19
BRANCH   8  23
ATOM     23  C   UNL     1      -2.517   1.029   0.054  0.00  0.00    -0.016 A 
ATOM     24  C   UNL     1      -2.792   0.167   1.114  0.00  0.00    +0.012 A 
ATOM     25  C   UNL     1      -3.986  -0.522   1.148  0.00  0.00    +0.046 A 
ATOM     26  C   UNL     1      -4.909  -0.367   0.122  0.00  0.00    +0.130 A 
ATOM     27  C   UNL     1      -4.635   0.487  -0.937  0.00  0.00    +0.046 A 
ATOM     28  C   UNL     1      -3.445   1.184  -0.974  0.00  0.00    +0.012 A 
BRANCH  26  29
ATOM     29  O   UNL     1      -6.082  -1.052   0.156  0.00  0.00    -0.406 OA
BRANCH  29  30
ATOM     30  C   UNL     1      -6.298  -1.913   1.275  0.00  0.00    +0.575 C 
ATOM     31  F   UNL     1      -6.268  -1.161   2.455  0.00  0.00    -0.133 F 
ATOM     32  F   UNL     1      -7.545  -2.535   1.151  0.00  0.00    -0.133 F 
ATOM     33  F   UNL     1      -5.294  -2.886   1.316  0.00  0.00    -0.133 F 
ENDBRANCH  29  30
ENDBRANCH  26  29
ENDBRANCH   8  23
TORSDOF 4
