REMARK  Name = ZINC63750993
REMARK  6 active torsions:
REMARK  status: ('A' for Active; 'I' for Inactive)
REMARK    1  A    between atoms: C_6  and  S_11
REMARK    2  A    between atoms: S_11  and  N_14
REMARK    3  A    between atoms: C_20  and  C_22
REMARK    4  A    between atoms: C_22  and  C_23
REMARK    5  A    between atoms: C_23  and  C_24
REMARK    6  A    between atoms: C_24  and  C_25
REMARK                            x       y       z     vdW  Elec       q    Type
REMARK                         _______ _______ _______ _____ _____    ______ ____
ROOT
ATOM      1  N   UNL     1       5.677  -3.066   1.513  0.00  0.00    -0.174 NA
ATOM      2  C   UNL     1       6.481  -2.064   2.227  0.00  0.00    +0.128 C 
ATOM      3  C   UNL     1       5.740  -1.664   3.509  0.00  0.00    +0.125 C 
ATOM      4  N   UNL     1       5.338  -2.886   4.220  0.00  0.00    -0.299 N 
ATOM      5  C   UNL     1       4.534  -3.888   3.506  0.00  0.00    +0.125 C 
ATOM      6  C   UNL     1       5.270  -4.285   2.226  0.00  0.00    +0.128 C 
ATOM      7  C   UNL     1       5.700  -3.083   5.503  0.00  0.00    +0.216 C 
ATOM      8  O   UNL     1       6.364  -2.249   6.081  0.00  0.00    -0.276 OA
ENDROOT
BRANCH   1   9
ATOM      9  S   UNL     1       5.231  -2.823  -0.063  0.00  0.00    +0.061 S 
ATOM     10  O   UNL     1       4.984  -4.107  -0.618  0.00  0.00    -0.153 OA
ATOM     11  O   UNL     1       6.181  -1.923  -0.619  0.00  0.00    -0.153 OA
BRANCH   9  17
ATOM     12  C   UNL     1      -0.016   1.357   0.009  0.00  0.00    +0.001 A 
ATOM     13  C   UNL     1       1.169   2.091   0.002  0.00  0.00    +0.001 A 
ATOM     14  C   UNL     1       2.378   1.468  -0.013  0.00  0.00    +0.008 A 
ATOM     15  C   UNL     1       2.438   0.063  -0.021  0.00  0.00    -0.016 A 
ATOM     16  C   UNL     1       3.668  -0.615  -0.036  0.00  0.00    +0.037 A 
ATOM     17  C   UNL     1       3.687  -1.976  -0.043  0.00  0.00    +0.106 A 
ATOM     18  C   UNL     1       2.502  -2.710  -0.036  0.00  0.00    +0.029 A 
ATOM     19  C   UNL     1       1.292  -2.087  -0.021  0.00  0.00    +0.010 A 
ATOM     20  C   UNL     1       1.233  -0.683  -0.013  0.00  0.00    -0.018 A 
ATOM     21  C   UNL     1       0.002  -0.004   0.002  0.00  0.00    +0.008 A 
ENDBRANCH   9  17
ENDBRANCH   1   9
BRANCH   7  22
ATOM     22  C   UNL     1       5.280  -4.341   6.219  0.00  0.00    +0.096 C 
BRANCH  22  23
ATOM     23  C   UNL     1       5.818  -4.316   7.651  0.00  0.00    +0.014 C 
BRANCH  23  24
ATOM     24  C   UNL     1       5.391  -5.593   8.378  0.00  0.00    +0.033 C 
BRANCH  24  25
ATOM     25  C   UNL     1       5.921  -5.569   9.788  0.00  0.00    -0.042 C 
ATOM     26  C   UNL     1       5.264  -5.156  10.896  0.00  0.00    -0.001 A 
ATOM     27  C   UNL     1       3.913  -4.626  11.112  0.00  0.00    +0.010 A 
ATOM     28  C   UNL     1       3.531  -4.291  12.365  0.00  0.00    +0.001 A 
ATOM     29  C   UNL     1       4.392  -4.437  13.461  0.00  0.00    +0.002 A 
ATOM     30  C   UNL     1       5.648  -4.917  13.343  0.00  0.00    +0.026 A 
ATOM     31  C   UNL     1       6.154  -5.301  12.071  0.00  0.00    +0.043 A 
ATOM     32  N   UNL     1       7.316  -5.785  11.703  0.00  0.00    -0.380 N 
ATOM     33  C   UNL     1       7.292  -6.007  10.253  0.00  0.00    +0.144 C 
ATOM     34  H   UNL     1       8.065  -5.969  12.291  0.00  0.00    +0.160 HD
ENDBRANCH  24  25
ENDBRANCH  23  24
ENDBRANCH  22  23
ENDBRANCH   7  22
TORSDOF 6
