REMARK  Name = ZINC12099131
REMARK  11 active torsions:
REMARK  status: ('A' for Active; 'I' for Inactive)
REMARK    1  A    between atoms: C_1  and  C_2
REMARK    2  A    between atoms: C_4  and  C_10
REMARK    3  A    between atoms: C_7  and  O_8
REMARK    4  A    between atoms: O_8  and  C_9
REMARK    5  A    between atoms: C_10  and  N_61
REMARK    6  A    between atoms: C_12  and  S_27
REMARK    7  A    between atoms: C_15  and  C_17
REMARK    8  A    between atoms: N_19  and  C_20
REMARK    9  A    between atoms: N_19  and  C_21
REMARK   10  A    between atoms: C_21  and  C_22
REMARK   11  A    between atoms: S_27  and  C_28
REMARK                            x       y       z     vdW  Elec       q    Type
REMARK                         _______ _______ _______ _____ _____    ______ ____
ROOT
ATOM      1  C   UNL     1      -0.044   7.266   4.037  0.00  0.00    -0.063 C 
ATOM      2  C   UNL     1       0.896   8.265   4.743  0.00  0.00    +0.034 C 
ATOM      3  C   UNL     1       0.985   9.475   3.789  0.00  0.00    +0.006 C 
ATOM      4  C   UNL     1       0.091   9.104   2.587  0.00  0.00    +0.021 C 
ATOM      5  N   UNL     1       0.055   7.637   2.627  0.00  0.00    +0.391 N 
ATOM      6  H   UNL     1       0.917   7.253   2.223  0.00  0.00    -0.080 HD
ENDROOT
BRANCH   4   7
ATOM      7  C   UNL     1       0.702   9.603   1.303  0.00  0.00    +0.202 C 
ATOM      8  O   UNL     1       1.074   8.814   0.461  0.00  0.00    -0.277 OA
ATOM      9  N   UNL     1       0.836  10.928   1.091  0.00  0.00    -0.300 N 
ATOM     10  C   UNL     1       0.387  11.881   2.108  0.00  0.00    +0.132 C 
BRANCH   9  11
ATOM     11  C   UNL     1       1.431  11.413  -0.157  0.00  0.00    +0.166 C 
BRANCH  11  12
ATOM     12  C   UNL     1       0.347  11.614  -1.185  0.00  0.00    +0.101 A 
ATOM     13  C   UNL     1      -0.330  12.820  -1.478  0.00  0.00    +0.069 A 
ATOM     14  C   UNL     1      -1.196  12.478  -2.462  0.00  0.00    +0.230 A 
ATOM     15  O   UNL     1      -1.010  11.171  -2.695  0.00  0.00    -0.363 OA
ATOM     16  N   UNL     1      -0.148  10.711  -1.982  0.00  0.00    -0.082 NA
ENDBRANCH  11  12
ENDBRANCH   9  11
ENDBRANCH   4   7
BRANCH   5  17
ATOM     17  C   UNL     1      -1.120   7.122   1.857  0.00  0.00    -0.042 C 
BRANCH  17  21
ATOM     18  C   UNL     1      -2.001   2.479   3.501  0.00  0.00    +0.047 C 
ATOM     19  C   UNL     1      -1.425   3.409   2.465  0.00  0.00    -0.009 A 
ATOM     20  C   UNL     1      -1.531   4.776   2.627  0.00  0.00    +0.008 A 
ATOM     21  C   UNL     1      -1.003   5.630   1.677  0.00  0.00    -0.063 A 
ATOM     22  C   UNL     1      -0.368   5.117   0.561  0.00  0.00    +0.005 A 
ATOM     23  C   UNL     1      -0.253   3.751   0.396  0.00  0.00    +0.046 A 
ATOM     24  C   UNL     1      -0.787   2.892   1.346  0.00  0.00    +0.123 A 
BRANCH  24  25
ATOM     25  O   UNL     1      -0.682   1.547   1.184  0.00  0.00    -0.495 OA
ATOM     26  C   UNL     1      -0.013   1.086   0.008  0.00  0.00    +0.277 C 
ENDBRANCH  24  25
ENDBRANCH  17  21
ENDBRANCH   5  17
BRANCH   2  27
ATOM     27  S   UNL     1       0.195   8.771   6.338  0.00  0.00    -0.124 S 
BRANCH  27  28
ATOM     28  C   UNL     1       0.306   7.320   7.332  0.00  0.00    +0.008 A 
ATOM     29  C   UNL     1       0.843   6.153   6.802  0.00  0.00    +0.017 A 
ATOM     30  C   UNL     1       0.934   5.019   7.585  0.00  0.00    +0.039 A 
ATOM     31  C   UNL     1       0.481   5.041   8.893  0.00  0.00    +0.123 A 
ATOM     32  C   UNL     1      -0.060   6.202   9.421  0.00  0.00    +0.039 A 
ATOM     33  C   UNL     1      -0.148   7.340   8.645  0.00  0.00    +0.017 A 
ATOM     34  F   UNL     1       0.565   3.929   9.655  0.00  0.00    -0.205 F 
ENDBRANCH  27  28
ENDBRANCH   2  27
TORSDOF 8
