REMARK  Name = ZINC49371875
REMARK  2 active torsions:
REMARK  status: ('A' for Active; 'I' for Inactive)
REMARK    1  A    between atoms: C_10  and  C_11
REMARK    2  A    between atoms: C_14  and  O_18
REMARK                            x       y       z     vdW  Elec       q    Type
REMARK                         _______ _______ _______ _____ _____    ______ ____
ROOT
ATOM      1  C   UNL     1      -0.352   1.069   0.533  0.00  0.00    +0.001 A 
ATOM      2  C   UNL     1       0.737   1.897   0.310  0.00  0.00    +0.004 A 
ATOM      3  C   UNL     1       1.986   1.366   0.065  0.00  0.00    +0.046 A 
ATOM      4  C   UNL     1       2.169  -0.012   0.041  0.00  0.00    +0.132 A 
ATOM      5  C   UNL     1       1.067  -0.845   0.277  0.00  0.00    +0.064 A 
ATOM      6  C   UNL     1      -0.192  -0.300   0.517  0.00  0.00    +0.015 A 
ATOM      7  C   UNL     1       1.263  -2.317   0.285  0.00  0.00    +0.196 C 
ATOM      8  O   UNL     1       0.386  -3.094   0.617  0.00  0.00    -0.287 OA
ATOM      9  C   UNL     1       2.607  -2.766  -0.143  0.00  0.00    +0.038 C 
ATOM     10  C   UNL     1       2.811  -3.923  -0.812  0.00  0.00    +0.018 C 
ATOM     11  C   UNL     1       3.740  -1.824   0.228  0.00  0.00    +0.268 C 
ATOM     12  O   UNL     1       3.399  -0.512  -0.219  0.00  0.00    -0.487 OA
ENDROOT
BRANCH  10  13
ATOM     13  C   UNL     1       4.179  -4.399  -1.057  0.00  0.00    -0.023 A 
ATOM     14  C   UNL     1       5.187  -4.154  -0.116  0.00  0.00    +0.011 A 
ATOM     15  C   UNL     1       6.467  -4.603  -0.349  0.00  0.00    +0.047 A 
ATOM     16  C   UNL     1       6.761  -5.297  -1.517  0.00  0.00    +0.135 A 
ATOM     17  C   UNL     1       5.764  -5.543  -2.456  0.00  0.00    +0.083 A 
ATOM     18  C   UNL     1       4.478  -5.104  -2.229  0.00  0.00    +0.031 A 
ATOM     19 CL   UNL     1       6.139  -6.410  -3.912  0.00  0.00    -0.080 Cl
BRANCH  16  20
ATOM     20  O   UNL     1       8.026  -5.736  -1.743  0.00  0.00    -0.505 OA
ATOM     21  H   UNL     1       8.199  -6.625  -1.404  0.00  0.00    +0.292 HD
ENDBRANCH  16  20
ENDBRANCH  10  13
TORSDOF 2
