REMARK  Name = ZINC09642784
REMARK  3 active torsions:
REMARK  status: ('A' for Active; 'I' for Inactive)
REMARK    1  A    between atoms: C_1  and  C_2
REMARK    2  A    between atoms: C_4  and  C_7
REMARK    3  A    between atoms: N_9  and  C_10
REMARK                            x       y       z     vdW  Elec       q    Type
REMARK                         _______ _______ _______ _____ _____    ______ ____
ROOT
ATOM      1  C   UNL     1      -2.112   5.752  -0.958  0.00  0.00    +0.283 C 
ATOM      2  O   UNL     1      -2.639   5.142  -1.868  0.00  0.00    -0.267 OA
ATOM      3  N   UNL     1      -1.510   5.081   0.044  0.00  0.00    -0.303 N 
ATOM      4  H   UNL     1      -1.089   5.567   0.770  0.00  0.00    +0.150 HD
ENDROOT
BRANCH   3   5
ATOM      5  C   UNL     1      -1.490   3.616   0.036  0.00  0.00    +0.036 C 
ATOM      6  C   UNL     1      -0.773   3.123  -1.223  0.00  0.00    +0.029 C 
ATOM      7  C   UNL     1      -0.753   1.593  -1.232  0.00  0.00    -0.008 C 
ATOM      8  C   UNL     1      -0.013   1.086   0.008  0.00  0.00    +0.007 C 
ATOM      9  C   UNL     1      -0.729   1.579   1.267  0.00  0.00    -0.008 C 
ATOM     10  C   UNL     1      -0.750   3.109   1.275  0.00  0.00    +0.029 C 
ATOM     11  C   UNL     1      -2.164   1.050   1.278  0.00  0.00    +0.007 C 
ATOM     12  C   UNL     1      -2.904   1.556   0.038  0.00  0.00    -0.008 C 
ATOM     13  C   UNL     1      -2.188   1.063  -1.221  0.00  0.00    +0.007 C 
ATOM     14  C   UNL     1      -2.925   3.086   0.047  0.00  0.00    +0.029 C 
ENDBRANCH   3   5
BRANCH   1  18
ATOM     15  C   UNL     1      -2.839  10.648  -2.047  0.00  0.00    +0.069 C 
ATOM     16  C   UNL     1      -2.435   9.347  -1.402  0.00  0.00    +0.081 A 
ATOM     17  C   UNL     1      -2.699   8.047  -1.887  0.00  0.00    +0.080 A 
ATOM     18  C   UNL     1      -2.132   7.227  -0.950  0.00  0.00    +0.222 A 
ATOM     19  O   UNL     1      -1.601   8.038  -0.015  0.00  0.00    -0.350 OA
ATOM     20  N   UNL     1      -1.776   9.203  -0.289  0.00  0.00    -0.083 NA
ENDBRANCH   1  18
TORSDOF 2
