REMARK  Name = ZINC04915773
REMARK  9 active torsions:
REMARK  status: ('A' for Active; 'I' for Inactive)
REMARK    1  A    between atoms: C_1  and  O_2
REMARK    2  A    between atoms: O_2  and  C_3
REMARK    3  A    between atoms: C_6  and  C_11
REMARK    4  A    between atoms: C_8  and  O_9
REMARK    5  A    between atoms: O_9  and  C_10
REMARK    6  A    between atoms: C_16  and  C_22
REMARK    7  A    between atoms: C_25  and  O_30
REMARK    8  A    between atoms: C_26  and  O_28
REMARK    9  A    between atoms: O_28  and  C_29
REMARK                            x       y       z     vdW  Elec       q    Type
REMARK                         _______ _______ _______ _____ _____    ______ ____
ROOT
ATOM      1  C   UNL     1      -4.987  -2.627   0.035  0.00  0.00    +0.032 C 
ATOM      2  C   UNL     1      -5.773  -2.216   1.282  0.00  0.00    +0.059 C 
ATOM      3  C   UNL     1      -7.129  -2.877   1.266  0.00  0.00    +0.018 C 
ATOM      4  C   UNL     1      -7.749  -3.156   0.100  0.00  0.00    +0.020 C 
ATOM      5  C   UNL     1      -9.113  -3.804   0.108  0.00  0.00    +0.063 C 
ATOM      6  C   UNL     1      -9.204  -4.781   1.282  0.00  0.00    +0.109 C 
ATOM      7  C   UNL     1      -8.712  -4.098   2.532  0.00  0.00    +0.218 C 
ATOM      8  O   UNL     1      -9.208  -4.370   3.604  0.00  0.00    -0.275 OA
ATOM      9  N   UNL     1      -7.726  -3.187   2.461  0.00  0.00    -0.289 N 
ATOM     10  C   UNL     1      -7.152  -2.854  -1.136  0.00  0.00    +0.162 C 
ATOM     11  O   UNL     1      -7.745  -3.110  -2.165  0.00  0.00    -0.292 OA
ATOM     12  C   UNL     1      -5.789  -2.219  -1.205  0.00  0.00    +0.088 C 
ATOM     13  H   UNL     1      -7.431  -2.742   3.271  0.00  0.00    +0.155 HD
ENDROOT
BRANCH   1  17
ATOM     14  C   UNL     1      -1.201  -0.638   0.010  0.00  0.00    +0.161 A 
ATOM     15  C   UNL     1      -2.374   0.099   0.031  0.00  0.00    +0.049 A 
ATOM     16  C   UNL     1      -3.596  -0.546   0.034  0.00  0.00    +0.008 A 
ATOM     17  C   UNL     1      -3.652  -1.928   0.026  0.00  0.00    -0.040 A 
ATOM     18  C   UNL     1      -2.485  -2.669   0.011  0.00  0.00    +0.053 A 
ATOM     19  C   UNL     1      -1.257  -2.028   0.003  0.00  0.00    +0.162 A 
BRANCH  14  21
ATOM     20  C   UNL     1      -0.017   1.425   0.010  0.00  0.00    +0.277 C 
ATOM     21  O   UNL     1       0.002  -0.004   0.002  0.00  0.00    -0.491 OA
ENDBRANCH  14  21
BRANCH  19  22
ATOM     22  O   UNL     1      -0.108  -2.756  -0.012  0.00  0.00    -0.491 OA
ATOM     23  C   UNL     1      -0.242  -4.179  -0.018  0.00  0.00    +0.277 C 
ENDBRANCH  19  22
ENDBRANCH   1  17
BRANCH   5  24
ATOM     24  C   UNL     1     -10.173  -2.742   0.255  0.00  0.00    -0.036 A 
ATOM     25  C   UNL     1     -10.183  -1.927   1.372  0.00  0.00    +0.008 A 
ATOM     26  C   UNL     1     -11.152  -0.952   1.511  0.00  0.00    +0.049 A 
ATOM     27  C   UNL     1     -12.118  -0.789   0.530  0.00  0.00    +0.158 A 
ATOM     28  C   UNL     1     -12.108  -1.610  -0.594  0.00  0.00    +0.162 A 
ATOM     29  C   UNL     1     -11.130  -2.582  -0.730  0.00  0.00    +0.053 A 
BRANCH  28  30
ATOM     30  O   UNL     1     -13.053  -1.454  -1.559  0.00  0.00    -0.491 OA
ATOM     31  C   UNL     1     -12.981  -2.332  -2.685  0.00  0.00    +0.277 C 
ENDBRANCH  28  30
BRANCH  27  32
ATOM     32  O   UNL     1     -13.072   0.170   0.666  0.00  0.00    -0.503 OA
ATOM     33  H   UNL     1     -12.827   1.025   0.287  0.00  0.00    +0.292 HD
ENDBRANCH  27  32
ENDBRANCH   5  24
TORSDOF 6
