REMARK  Name = ZINC09225349
REMARK  1 active torsions:
REMARK  status: ('A' for Active; 'I' for Inactive)
REMARK    1  A    between atoms: C_11  and  C_19
REMARK                            x       y       z     vdW  Elec       q    Type
REMARK                         _______ _______ _______ _____ _____    ______ ____
ROOT
ATOM      1  C   UNL     1      -0.898   3.118  -1.144  0.00  0.00    +0.003 C 
ATOM      2  C   UNL     1      -0.759   1.596  -1.228  0.00  0.00    +0.019 C 
ATOM      3  C   UNL     1      -0.013   1.086   0.008  0.00  0.00    +0.107 C 
ATOM      4  N   UNL     1      -0.706   1.562   1.213  0.00  0.00    -0.305 N 
ATOM      5  C   UNL     1      -0.975   3.001   1.350  0.00  0.00    +0.107 C 
ATOM      6  C   UNL     1      -1.711   3.490   0.099  0.00  0.00    +0.019 C 
ATOM      7  C   UNL     1      -1.095   0.687   2.182  0.00  0.00    +0.175 C 
ATOM      8  N   UNL     1      -0.849  -0.605   2.041  0.00  0.00    -0.150 NA
ATOM      9  C   UNL     1      -1.186  -1.503   2.956  0.00  0.00    +0.258 C 
ATOM     10  O   UNL     1      -0.955  -2.678   2.751  0.00  0.00    -0.272 OA
ATOM     11  C   UNL     1      -1.852  -1.095   4.246  0.00  0.00    +0.202 C 
ATOM     12  C   UNL     1      -2.611   0.213   4.018  0.00  0.00    +0.058 C 
ATOM     13  N   UNL     1      -1.734   1.147   3.300  0.00  0.00    -0.312 N 
ATOM     14  C   UNL     1      -3.034   0.821   5.365  0.00  0.00    +0.027 C 
ATOM     15  C   UNL     1      -4.427   1.438   5.079  0.00  0.00    +0.002 C 
ATOM     16  C   UNL     1      -5.065   0.412   4.109  0.00  0.00    +0.002 C 
ATOM     17  C   UNL     1      -3.892  -0.046   3.216  0.00  0.00    +0.027 C 
ATOM     18  H   UNL     1      -1.615   2.060   3.605  0.00  0.00    +0.149 HD
ENDROOT
BRANCH  11  19
ATOM     19  C   UNL     1      -0.831  -0.898   5.287  0.00  0.00    +0.077 C 
ATOM     20  N   UNL     1      -0.043  -0.746   6.091  0.00  0.00    -0.196 NA
ENDBRANCH  11  19
TORSDOF 1
