REMARK  Name = ZINC05128507
REMARK  4 active torsions:
REMARK  status: ('A' for Active; 'I' for Inactive)
REMARK    1  A    between atoms: C_3  and  N_19
REMARK    2  A    between atoms: C_6  and  C_7
REMARK    3  A    between atoms: C_7  and  C_17
REMARK    4  A    between atoms: C_8  and  C_9
REMARK                            x       y       z     vdW  Elec       q    Type
REMARK                         _______ _______ _______ _____ _____    ______ ____
ROOT
ATOM      1  C   UNL     1      -1.263  -0.772   0.014  0.00  0.00    +0.059 C 
ATOM      2  C   UNL     1      -1.607  -1.536  -1.058  0.00  0.00    +0.027 C 
ENDROOT
BRANCH   2   3
ATOM      3  C   UNL     1      -2.811  -2.376  -1.006  0.00  0.00    -0.023 A 
ATOM      4  C   UNL     1      -3.950  -1.930  -0.325  0.00  0.00    +0.011 A 
ATOM      5  C   UNL     1      -5.076  -2.723  -0.279  0.00  0.00    +0.040 A 
ATOM      6  C   UNL     1      -5.083  -3.960  -0.907  0.00  0.00    +0.137 A 
ATOM      7  C   UNL     1      -3.958  -4.408  -1.584  0.00  0.00    +0.054 A 
ATOM      8  C   UNL     1      -2.826  -3.622  -1.642  0.00  0.00    +0.026 A 
ATOM      9 BR   UNL     1      -3.980  -6.096  -2.436  0.00  0.00    -0.047 Br
ATOM     10  F   UNL     1      -6.191  -4.732  -0.858  0.00  0.00    -0.204 F 
ENDBRANCH   2   3
BRANCH   1  16
ATOM     11  C   UNL     1      -0.399   1.565   0.016  0.00  0.00    +0.011 A 
ATOM     12  C   UNL     1       0.643   2.464  -0.085  0.00  0.00    +0.033 A 
ATOM     13  C   UNL     1       1.934   2.011  -0.295  0.00  0.00    +0.126 A 
ATOM     14  C   UNL     1       2.187   0.655  -0.406  0.00  0.00    +0.033 A 
ATOM     15  C   UNL     1       1.154  -0.253  -0.307  0.00  0.00    +0.011 A 
ATOM     16  C   UNL     1      -0.149   0.198  -0.094  0.00  0.00    -0.008 A 
BRANCH  13  17
ATOM     17  N   UNL     1       3.047   2.980  -0.404  0.00  0.00    +0.056 N 
ATOM     18  O   UNL     1       2.828   4.165  -0.308  0.00  0.00    -0.126 OA
ATOM     19  O   UNL     1       4.175   2.587  -0.588  0.00  0.00    -0.126 OA
ENDBRANCH  13  17
ENDBRANCH   1  16
BRANCH   1  20
ATOM     20  C   UNL     1      -1.978  -0.907   1.248  0.00  0.00    +0.100 C 
ATOM     21  N   UNL     1      -2.546  -1.013   2.226  0.00  0.00    -0.191 NA
ENDBRANCH   1  20
TORSDOF 4
