REMARK  Name = ZINC00552813
REMARK  8 active torsions:
REMARK  status: ('A' for Active; 'I' for Inactive)
REMARK    1  A    between atoms: C_1  and  C_2
REMARK    2  A    between atoms: C_4  and  C_25
REMARK    3  A    between atoms: C_5  and  N_9
REMARK    4  A    between atoms: C_6  and  C_8
REMARK    5  A    between atoms: C_13  and  C_17
REMARK    6  A    between atoms: C_17  and  N_18
REMARK    7  A    between atoms: C_19  and  C_24
REMARK    8  A    between atoms: C_21  and  C_23
REMARK                            x       y       z     vdW  Elec       q    Type
REMARK                         _______ _______ _______ _____ _____    ______ ____
ROOT
ATOM      1  N   UNL     1       0.059  -4.172  -0.021  0.00  0.00    -0.210 N 
ATOM      2  C   UNL     1      -1.058  -4.912  -0.025  0.00  0.00    +0.227 C 
ATOM      3  O   UNL     1      -2.189  -4.476  -0.022  0.00  0.00    -0.275 OA
ATOM      4  C   UNL     1      -0.683  -6.378  -0.033  0.00  0.00    +0.111 C 
ATOM      5  C   UNL     1       0.859  -6.357  -0.033  0.00  0.00    +0.106 C 
ATOM      6  C   UNL     1       1.194  -4.882  -0.031  0.00  0.00    +0.232 C 
ATOM      7  O   UNL     1       2.313  -4.416  -0.035  0.00  0.00    -0.274 OA
ENDROOT
BRANCH   1  12
ATOM      8  C   UNL     1      -0.018   1.503   0.010  0.00  0.00    +0.044 C 
ATOM      9  C   UNL     1       0.002  -0.004   0.002  0.00  0.00    -0.050 A 
ATOM     10  C   UNL     1       0.006  -0.688  -1.200  0.00  0.00    +0.008 A 
ATOM     11  C   UNL     1       0.025  -2.068  -1.211  0.00  0.00    -0.028 A 
ATOM     12  C   UNL     1       0.040  -2.771  -0.013  0.00  0.00    +0.050 A 
ATOM     13  C   UNL     1       0.037  -2.082   1.192  0.00  0.00    -0.028 A 
ATOM     14  C   UNL     1       0.023  -0.700   1.196  0.00  0.00    +0.008 A 
ATOM     15  C   UNL     1       0.053  -2.840   2.494  0.00  0.00    +0.046 C 
ATOM     16  C   UNL     1       0.028  -2.813  -2.521  0.00  0.00    +0.046 C 
ENDBRANCH   1  12
BRANCH   5  17
ATOM     17  C   UNL     1       1.407  -7.044   1.220  0.00  0.00    +0.157 C 
BRANCH  17  18
ATOM     18  N   UNL     1       2.867  -7.117   1.137  0.00  0.00    -0.268 N 
ATOM     19  C   UNL     1       3.583  -8.122   0.590  0.00  0.00    +0.036 A 
ATOM     20  C   UNL     1       4.894  -7.810   0.714  0.00  0.00    +0.047 A 
ATOM     21  C   UNL     1       4.982  -6.572   1.358  0.00  0.00    +0.060 A 
ATOM     22  N   UNL     1       3.768  -6.153   1.607  0.00  0.00    -0.176 NA
ATOM     23  C   UNL     1       6.257  -5.843   1.700  0.00  0.00    +0.067 C 
ATOM     24  C   UNL     1       3.022  -9.369  -0.044  0.00  0.00    +0.065 C 
ENDBRANCH  17  18
ENDBRANCH   5  17
TORSDOF 3
