REMARK  Name = ZINC66513113
REMARK  6 active torsions:
REMARK  status: ('A' for Active; 'I' for Inactive)
REMARK    1  A    between atoms: C_1  and  C_2
REMARK    2  A    between atoms: C_2  and  C_31
REMARK    3  A    between atoms: C_5  and  C_25
REMARK    4  A    between atoms: C_9  and  C_11
REMARK    5  A    between atoms: C_11  and  C_12
REMARK    6  A    between atoms: C_12  and  C_13
REMARK                            x       y       z     vdW  Elec       q    Type
REMARK                         _______ _______ _______ _____ _____    ______ ____
ROOT
ATOM      1  C   UNL     1      -0.027   1.526   0.018  0.00  0.00    +0.034 C 
ATOM      2  C   UNL     1      -0.002  -0.003   0.006  0.00  0.00    +0.055 C 
ATOM      3  C   UNL     1      -1.427  -0.544   0.172  0.00  0.00    +0.186 C 
ATOM      4  O   UNL     1      -1.375  -1.962   0.345  0.00  0.00    -0.368 OA
ATOM      5  C   UNL     1      -0.676  -2.383   1.519  0.00  0.00    +0.166 C 
ATOM      6  C   UNL     1       0.787  -1.936   1.422  0.00  0.00    +0.144 C 
ATOM      7  N   UNL     1       0.814  -0.495   1.127  0.00  0.00    -0.291 N 
ATOM      8  C   UNL     1       1.565   0.350   1.861  0.00  0.00    +0.217 C 
ATOM      9  O   UNL     1       1.508   1.544   1.658  0.00  0.00    -0.276 OA
ATOM     10  C   UNL     1       0.587  -0.498  -1.317  0.00  0.00    +0.034 C 
ENDROOT
BRANCH   5  11
ATOM     11  C   UNL     1      -0.739  -3.884   1.631  0.00  0.00    -0.017 A 
ATOM     12  C   UNL     1      -0.602  -4.668   0.501  0.00  0.00    +0.006 A 
ATOM     13  C   UNL     1      -0.659  -6.045   0.604  0.00  0.00    +0.000 A 
ATOM     14  C   UNL     1      -0.854  -6.639   1.838  0.00  0.00    +0.000 A 
ATOM     15  C   UNL     1      -0.990  -5.855   2.968  0.00  0.00    +0.000 A 
ATOM     16  C   UNL     1      -0.928  -4.478   2.866  0.00  0.00    +0.006 A 
ENDBRANCH   5  11
BRANCH   8  17
ATOM     17  C   UNL     1       2.474  -0.189   2.935  0.00  0.00    +0.103 C 
BRANCH  17  18
ATOM     18  C   UNL     1       3.207   0.970   3.613  0.00  0.00    +0.083 C 
BRANCH  18  19
ATOM     19  C   UNL     1       4.116   0.431   4.686  0.00  0.00    +0.111 A 
ATOM     20  N   UNL     1       4.853   1.313   5.410  0.00  0.00    -0.310 N 
ATOM     21  H   UNL     1       4.783   2.263   5.226  0.00  0.00    +0.170 HD
ATOM     22  C   UNL     1       5.685   0.880   6.386  0.00  0.00    +0.259 A 
ATOM     23  O   UNL     1       6.350   1.659   7.042  0.00  0.00    -0.267 OA
ATOM     24  C   UNL     1       5.753  -0.570   6.622  0.00  0.00    +0.065 A 
ATOM     25  C   UNL     1       6.577  -1.119   7.602  0.00  0.00    +0.015 A 
ATOM     26  C   UNL     1       6.602  -2.485   7.781  0.00  0.00    +0.001 A 
ATOM     27  C   UNL     1       5.814  -3.315   6.994  0.00  0.00    +0.002 A 
ATOM     28  C   UNL     1       4.993  -2.792   6.020  0.00  0.00    +0.028 A 
ATOM     29  C   UNL     1       4.950  -1.411   5.820  0.00  0.00    +0.078 A 
ATOM     30  N   UNL     1       4.152  -0.853   4.876  0.00  0.00    -0.234 NA
ENDBRANCH  18  19
ENDBRANCH  17  18
ENDBRANCH   8  17
TORSDOF 4
