REMARK  Name = ZINC67437386
REMARK  7 active torsions:
REMARK  status: ('A' for Active; 'I' for Inactive)
REMARK    1  A    between atoms: C_1  and  C_2
REMARK    2  A    between atoms: C_5  and  C_23
REMARK    3  A    between atoms: C_10  and  C_12
REMARK    4  A    between atoms: C_15  and  O_19
REMARK    5  A    between atoms: O_19  and  C_20
REMARK    6  A    between atoms: C_23  and  O_25
REMARK    7  A    between atoms: O_25  and  C_26
REMARK                            x       y       z     vdW  Elec       q    Type
REMARK                         _______ _______ _______ _____ _____    ______ ____
ROOT
ATOM      1  C   UNL     1      -1.036   1.902  -0.317  0.00  0.00    +0.091 C 
ATOM      2  C   UNL     1      -0.881   0.431  -0.028  0.00  0.00    +0.160 C 
ATOM      3  O   UNL     1      -1.022  -0.026   1.231  0.00  0.00    -0.293 OA
ATOM      4  C   UNL     1      -0.600  -0.430  -1.033  0.00  0.00    +0.049 C 
ATOM      5  C   UNL     1      -0.590  -1.831  -0.826  0.00  0.00    +0.148 C 
ATOM      6  N   UNL     1      -0.315  -2.652  -1.816  0.00  0.00    -0.186 NA
ATOM      7  C   UNL     1      -0.030  -2.268  -3.059  0.00  0.00    +0.155 C 
ATOM      8  S   UNL     1       0.305  -3.473  -4.228  0.00  0.00    -0.017 S 
ATOM      9  N   UNL     1       0.005  -0.977  -3.439  0.00  0.00    -0.314 N 
ATOM     10  C   UNL     1      -0.288   0.061  -2.435  0.00  0.00    +0.138 C 
ATOM     11  H   UNL     1       0.216  -0.735  -4.354  0.00  0.00    +0.149 HD
ENDROOT
BRANCH  10  12
ATOM     12  C   UNL     1       0.903   0.980  -2.355  0.00  0.00    -0.021 A 
ATOM     13  C   UNL     1       2.159   0.462  -2.098  0.00  0.00    +0.009 A 
ATOM     14  C   UNL     1       3.253   1.303  -2.024  0.00  0.00    +0.048 A 
ATOM     15  C   UNL     1       3.091   2.668  -2.208  0.00  0.00    +0.145 A 
ATOM     16  C   UNL     1       1.829   3.186  -2.466  0.00  0.00    +0.083 A 
ATOM     17  C   UNL     1       0.739   2.340  -2.544  0.00  0.00    +0.029 A 
ATOM     18 CL   UNL     1       1.622   4.894  -2.697  0.00  0.00    -0.080 Cl
BRANCH  15  19
ATOM     19  O   UNL     1       4.166   3.497  -2.135  0.00  0.00    -0.433 OA
BRANCH  19  20
ATOM     20  C   UNL     1       5.433   2.894  -1.866  0.00  0.00    +0.541 C 
ATOM     21  F   UNL     1       5.383   2.234  -0.633  0.00  0.00    -0.166 F 
ATOM     22  F   UNL     1       5.736   1.974  -2.876  0.00  0.00    -0.166 F 
ENDBRANCH  19  20
ENDBRANCH  15  19
ENDBRANCH  10  12
BRANCH   5  23
ATOM     23  C   UNL     1      -0.893  -2.379   0.523  0.00  0.00    +0.356 C 
ATOM     24  O   UNL     1      -0.004  -2.510   1.338  0.00  0.00    -0.243 OA
BRANCH  23  25
ATOM     25  O   UNL     1      -2.153  -2.730   0.839  0.00  0.00    -0.464 OA
ATOM     26  C   UNL     1      -2.372  -3.249   2.152  0.00  0.00    +0.280 C 
ENDBRANCH  23  25
ENDBRANCH   5  23
TORSDOF 5
