REMARK  Name = ZINC64891082
REMARK  6 active torsions:
REMARK  status: ('A' for Active; 'I' for Inactive)
REMARK    1  A    between atoms: C_1  and  C_2
REMARK    2  A    between atoms: C_2  and  N_3
REMARK    3  A    between atoms: C_7  and  C_14
REMARK    4  A    between atoms: C_16  and  C_19
REMARK    5  A    between atoms: C_19  and  C_20
REMARK    6  A    between atoms: C_23  and  C_26
REMARK                            x       y       z     vdW  Elec       q    Type
REMARK                         _______ _______ _______ _____ _____    ______ ____
ROOT
ATOM      1  N   UNL     1       0.688  -0.476  -1.203  0.00  0.00    -0.292 N 
ATOM      2  C   UNL     1       0.087  -0.744  -2.429  0.00  0.00    +0.070 A 
ATOM      3  C   UNL     1      -1.223  -0.665  -2.882  0.00  0.00    +0.029 A 
ATOM      4  C   UNL     1      -1.524  -1.004  -4.184  0.00  0.00    +0.014 A 
ATOM      5  C   UNL     1      -0.515  -1.428  -5.050  0.00  0.00    +0.025 A 
ATOM      6  C   UNL     1       0.800  -1.509  -4.599  0.00  0.00    +0.039 A 
ATOM      7  C   UNL     1       1.101  -1.167  -3.292  0.00  0.00    +0.068 A 
ATOM      8  N   UNL     1       2.287  -1.143  -2.561  0.00  0.00    -0.306 N 
ATOM      9  H   UNL     1       3.165  -1.386  -2.895  0.00  0.00    +0.170 HD
ATOM     10  C   UNL     1       2.007  -0.720  -1.314  0.00  0.00    +0.328 A 
ATOM     11  O   UNL     1       2.822  -0.582  -0.422  0.00  0.00    -0.247 OA
ENDROOT
BRANCH   5  12
ATOM     12  C   UNL     1      -0.844  -1.792  -6.449  0.00  0.00    +0.202 A 
ATOM     13  N   UNL     1      -2.069  -1.752  -7.004  0.00  0.00    -0.191 NA
ATOM     14  C   UNL     1      -2.008  -2.134  -8.248  0.00  0.00    +0.232 A 
ATOM     15  O   UNL     1      -0.736  -2.435  -8.538  0.00  0.00    -0.337 OA
ATOM     16  N   UNL     1       0.012  -2.201  -7.354  0.00  0.00    -0.056 NA
BRANCH  14  17
ATOM     17  C   UNL     1      -3.173  -2.224  -9.199  0.00  0.00    +0.134 C 
BRANCH  17  18
ATOM     18  C   UNL     1      -3.336  -0.909  -9.919  0.00  0.00    -0.038 A 
ATOM     19  C   UNL     1      -4.141   0.078  -9.382  0.00  0.00    +0.004 A 
ATOM     20  C   UNL     1      -4.290   1.283 -10.042  0.00  0.00    +0.003 A 
ATOM     21  C   UNL     1      -3.634   1.502 -11.239  0.00  0.00    -0.050 A 
ATOM     22  C   UNL     1      -2.828   0.515 -11.775  0.00  0.00    +0.003 A 
ATOM     23  C   UNL     1      -2.675  -0.689 -11.113  0.00  0.00    +0.004 A 
ATOM     24  C   UNL     1      -3.797   2.815 -11.959  0.00  0.00    +0.044 C 
ENDBRANCH  17  18
ENDBRANCH  14  17
ENDBRANCH   5  12
BRANCH   1  26
ATOM     25  C   UNL     1      -0.019   1.526   0.010  0.00  0.00    +0.027 C 
ATOM     26  C   UNL     1       0.002  -0.004   0.002  0.00  0.00    +0.123 C 
ENDBRANCH   1  26
TORSDOF 4
