REMARK  Name = ZINC11898477
REMARK  9 active torsions:
REMARK  status: ('A' for Active; 'I' for Inactive)
REMARK    1  A    between atoms: C_1  and  C_2
REMARK    2  A    between atoms: C_6  and  N_9
REMARK    3  A    between atoms: C_7  and  C_8
REMARK    4  A    between atoms: C_10  and  C_12
REMARK    5  A    between atoms: N_14  and  C_15
REMARK    6  A    between atoms: C_15  and  C_16
REMARK    7  A    between atoms: C_16  and  C_18
REMARK    8  A    between atoms: C_16  and  N_62
REMARK    9  A    between atoms: N_22  and  C_23
REMARK                            x       y       z     vdW  Elec       q    Type
REMARK                         _______ _______ _______ _____ _____    ______ ____
ROOT
ATOM      1  C   UNL     1      -2.761   7.930   0.218  0.00  0.00    -0.003 C 
ENDROOT
BRANCH   1  11
ATOM      2  C   UNL     1      -3.019   6.171   1.865  0.00  0.00    -0.073 C 
ATOM      3  C   UNL     1      -3.694   5.881   3.206  0.00  0.00    +0.017 C 
ATOM      4  C   UNL     1      -5.192   5.942   3.051  0.00  0.00    -0.048 A 
ATOM      5  C   UNL     1      -5.982   5.373   4.038  0.00  0.00    +0.004 A 
ATOM      6  C   UNL     1      -7.359   5.415   3.940  0.00  0.00    +0.000 A 
ATOM      7  C   UNL     1      -7.952   6.027   2.852  0.00  0.00    +0.000 A 
ATOM      8  C   UNL     1      -7.166   6.593   1.868  0.00  0.00    +0.002 A 
ATOM      9  C   UNL     1      -5.782   6.550   1.964  0.00  0.00    -0.061 A 
ATOM     10  C   UNL     1      -4.967   7.177   0.864  0.00  0.00    -0.042 C 
ATOM     11  N   UNL     1      -3.593   7.423   1.333  0.00  0.00    +0.389 N 
ATOM     12  H   UNL     1      -3.615   8.127   2.080  0.00  0.00    -0.080 HD
ENDBRANCH   1  11
BRANCH   1  13
ATOM     13  C   UNL     1      -3.228   9.314  -0.152  0.00  0.00    +0.006 A 
ATOM     14  C   UNL     1      -4.187  10.020   0.481  0.00  0.00    +0.021 A 
ATOM     15  C   UNL     1      -4.310  11.256  -0.184  0.00  0.00    +0.019 A 
ATOM     16  C   UNL     1      -3.421  11.258  -1.198  0.00  0.00    +0.085 A 
ATOM     17  N   UNL     1      -2.750  10.071  -1.180  0.00  0.00    -0.355 N 
ATOM     18  C   UNL     1      -1.693   9.674  -2.113  0.00  0.00    +0.148 C 
ENDBRANCH   1  13
BRANCH   1  19
ATOM     19  C   UNL     1      -1.300   7.988   0.669  0.00  0.00    +0.095 C 
BRANCH  19  22
ATOM     20  C   UNL     1       0.002   9.008   2.458  0.00  0.00    +0.299 C 
ATOM     21  O   UNL     1       1.011   8.626   1.902  0.00  0.00    -0.265 OA
ATOM     22  N   UNL     1      -1.205   8.741   1.922  0.00  0.00    -0.309 N 
ATOM     23  H   UNL     1      -2.011   9.047   2.366  0.00  0.00    +0.149 HD
BRANCH  20  25
ATOM     24  N   UNL     1       1.306  10.044   4.271  0.00  0.00    -0.278 N 
ATOM     25  C   UNL     1       0.099   9.776   3.735  0.00  0.00    +0.303 C 
ATOM     26  O   UNL     1      -0.910  10.159   4.291  0.00  0.00    -0.265 OA
ATOM     27  H   UNL     1       2.114   9.805   3.789  0.00  0.00    +0.155 HD
BRANCH  24  33
ATOM     28  C   UNL     1       3.877  12.725   7.490  0.00  0.00    +0.044 C 
ATOM     29  C   UNL     1       2.629  11.971   7.107  0.00  0.00    -0.046 A 
ATOM     30  C   UNL     1       1.569  11.894   7.992  0.00  0.00    +0.004 A 
ATOM     31  C   UNL     1       0.423  11.203   7.645  0.00  0.00    +0.002 A 
ATOM     32  C   UNL     1       0.333  10.588   6.411  0.00  0.00    +0.023 A 
ATOM     33  C   UNL     1       1.395  10.664   5.519  0.00  0.00    +0.037 A 
ATOM     34  C   UNL     1       2.545  11.359   5.872  0.00  0.00    -0.026 A 
ATOM     35  C   UNL     1       3.700  11.445   4.907  0.00  0.00    +0.046 C 
ENDBRANCH  24  33
ENDBRANCH  20  25
ENDBRANCH  19  22
ENDBRANCH   1  19
TORSDOF 6
