REMARK  Name = ZINC48915317
REMARK  4 active torsions:
REMARK  status: ('A' for Active; 'I' for Inactive)
REMARK    1  A    between atoms: C_1  and  C_2
REMARK    2  A    between atoms: C_2  and  C_3
REMARK    3  A    between atoms: C_7  and  C_22
REMARK    4  A    between atoms: N_10  and  C_11
REMARK                            x       y       z     vdW  Elec       q    Type
REMARK                         _______ _______ _______ _____ _____    ______ ____
ROOT
ATOM      1  C   UNL     1       2.639   0.858  -2.074  0.00  0.00    +0.032 A 
ATOM      2  C   UNL     1       3.960   1.284  -1.941  0.00  0.00    +0.024 A 
ATOM      3  C   UNL     1       4.464   2.229  -2.789  0.00  0.00    +0.015 A 
ATOM      4  C   UNL     1       3.654   2.769  -3.792  0.00  0.00    +0.048 A 
ATOM      5  C   UNL     1       2.320   2.346  -3.936  0.00  0.00    +0.047 A 
ATOM      6  C   UNL     1       1.823   1.383  -3.073  0.00  0.00    +0.047 A 
ATOM      7  N   UNL     1       1.726   3.025  -4.998  0.00  0.00    -0.278 N 
ATOM      8  C   UNL     1       2.589   3.881  -5.574  0.00  0.00    +0.289 C 
ATOM      9  O   UNL     1       2.356   4.606  -6.518  0.00  0.00    -0.266 OA
ATOM     10  C   UNL     1       3.890   3.776  -4.837  0.00  0.00    +0.249 C 
ATOM     11  O   UNL     1       4.916   4.388  -5.057  0.00  0.00    -0.282 OA
ATOM     12  H   UNL     1       0.809   2.897  -5.285  0.00  0.00    +0.155 HD
ENDROOT
BRANCH   1  18
ATOM     13  C   UNL     1       0.715  -0.485  -1.246  0.00  0.00    +0.099 C 
ATOM     14  C   UNL     1       0.627  -2.014  -1.322  0.00  0.00    +0.182 C 
ATOM     15  O   UNL     1       1.410  -2.584  -0.271  0.00  0.00    -0.373 OA
ATOM     16  C   UNL     1       2.806  -2.284  -0.351  0.00  0.00    +0.132 C 
ATOM     17  C   UNL     1       3.005  -0.769  -0.225  0.00  0.00    +0.136 C 
ATOM     18  N   UNL     1       2.135  -0.102  -1.208  0.00  0.00    -0.322 N 
ATOM     19  C   UNL     1       3.547  -2.994   0.782  0.00  0.00    +0.039 C 
BRANCH  13  21
ATOM     20  C   UNL     1       0.006   1.538   0.038  0.00  0.00    +0.006 C 
ATOM     21  C   UNL     1       0.014   0.008   0.022  0.00  0.00    +0.021 C 
ENDBRANCH  13  21
ENDBRANCH   1  18
TORSDOF 2
