REMARK  Name = ZINC32635372
REMARK  6 active torsions:
REMARK  status: ('A' for Active; 'I' for Inactive)
REMARK    1  A    between atoms: C_1  and  C_2
REMARK    2  A    between atoms: C_2  and  C_3
REMARK    3  A    between atoms: C_2  and  C_4
REMARK    4  A    between atoms: C_4  and  C_5
REMARK    5  A    between atoms: C_5  and  N_7
REMARK    6  A    between atoms: N_9  and  C_20
REMARK                            x       y       z     vdW  Elec       q    Type
REMARK                         _______ _______ _______ _____ _____    ______ ____
ROOT
ATOM      1  N   UNL     1      -3.088  -1.282  -1.830  0.00  0.00    -0.159 NA
ATOM      2  C   UNL     1      -3.904  -0.811  -2.766  0.00  0.00    +0.154 C 
ATOM      3  N   UNL     1      -3.596   0.077  -3.795  0.00  0.00    -0.276 N 
ATOM      4  C   UNL     1      -4.606   0.213  -4.792  0.00  0.00    +0.116 C 
ATOM      5  C   UNL     1      -4.647   1.315  -5.843  0.00  0.00    +0.190 C 
ATOM      6  S   UNL     1      -6.268   0.858  -6.623  0.00  0.00    -0.028 S 
ATOM      7  O   UNL     1      -7.020   2.041  -6.857  0.00  0.00    -0.174 OA
ATOM      8  O   UNL     1      -6.030  -0.043  -7.695  0.00  0.00    -0.174 OA
ATOM      9  C   UNL     1      -7.025  -0.069  -5.211  0.00  0.00    +0.182 C 
ATOM     10  C   UNL     1      -6.017   0.242  -4.092  0.00  0.00    +0.097 C 
ATOM     11  S   UNL     1      -5.649  -1.185  -2.994  0.00  0.00    -0.086 S 
ENDROOT
BRANCH   3  12
ATOM     12  C   UNL     1      -2.389   0.782  -3.845  0.00  0.00    +0.037 A 
ATOM     13  C   UNL     1      -2.138   1.798  -2.932  0.00  0.00    +0.025 A 
ATOM     14  C   UNL     1      -0.946   2.493  -2.983  0.00  0.00    +0.023 A 
ATOM     15  C   UNL     1      -0.001   2.178  -3.944  0.00  0.00    +0.059 A 
ATOM     16  C   UNL     1      -0.248   1.166  -4.856  0.00  0.00    +0.061 A 
ATOM     17  C   UNL     1      -1.437   0.463  -4.805  0.00  0.00    +0.045 A 
ATOM     18 CL   UNL     1       0.939   0.775  -6.061  0.00  0.00    -0.082 Cl
ATOM     19 CL   UNL     1       1.497   3.054  -4.006  0.00  0.00    -0.082 Cl
ENDBRANCH   3  12
BRANCH   1  20
ATOM     20  C   UNL     1      -1.787  -1.008  -1.881  0.00  0.00    +0.238 C 
ATOM     21  O   UNL     1      -1.351  -0.021  -1.322  0.00  0.00    -0.274 OA
BRANCH  20  22
ATOM     22  C   UNL     1      -0.854  -1.922  -2.633  0.00  0.00    +0.101 C 
BRANCH  22  24
ATOM     23  C   UNL     1       0.973  -1.704  -0.942  0.00  0.00    +0.008 C 
ATOM     24  C   UNL     1       0.592  -1.474  -2.406  0.00  0.00    -0.008 C 
ATOM     25  C   UNL     1       1.524  -2.283  -3.309  0.00  0.00    +0.008 C 
ENDBRANCH  22  24
ENDBRANCH  20  22
ENDBRANCH   1  20
TORSDOF 4
