REMARK  Name = ZINC25244692
REMARK  9 active torsions:
REMARK  status: ('A' for Active; 'I' for Inactive)
REMARK    1  A    between atoms: C_1  and  C_2
REMARK    2  A    between atoms: C_2  and  C_3
REMARK    3  A    between atoms: C_2  and  C_4
REMARK    4  A    between atoms: C_2  and  O_5
REMARK    5  A    between atoms: O_5  and  C_6
REMARK    6  A    between atoms: C_12  and  C_15
REMARK    7  A    between atoms: N_17  and  C_18
REMARK    8  A    between atoms: C_18  and  C_19
REMARK    9  A    between atoms: C_19  and  C_20
REMARK                            x       y       z     vdW  Elec       q    Type
REMARK                         _______ _______ _______ _____ _____    ______ ____
ROOT
ATOM      1  C   UNL     1       7.628   4.676  -2.547  0.00  0.00    +0.218 C 
ATOM      2  O   UNL     1       7.231   4.121  -3.550  0.00  0.00    -0.275 OA
ATOM      3  N   UNL     1       6.883   4.653  -1.424  0.00  0.00    -0.315 N 
ATOM      4  H   UNL     1       7.244   5.156  -0.515  0.00  0.00    +0.149 HD
ENDROOT
BRANCH   1  11
ATOM      5  C   UNL     1      11.805   5.930  -0.545  0.00  0.00    +0.403 C 
ATOM      6  O   UNL     1      11.243   5.914   0.533  0.00  0.00    -0.226 OA
ATOM      7  N   UNL     1      11.209   5.383  -1.623  0.00  0.00    -0.267 N 
ATOM      8  C   UNL     1      11.875   5.396  -2.933  0.00  0.00    +0.111 C 
ATOM      9  C   UNL     1      10.926   6.016  -3.962  0.00  0.00    +0.020 C 
ATOM     10  C   UNL     1       9.594   5.263  -3.942  0.00  0.00    +0.016 C 
ATOM     11  C   UNL     1       8.955   5.391  -2.557  0.00  0.00    +0.092 C 
ATOM     12  C   UNL     1       9.882   4.763  -1.511  0.00  0.00    +0.123 C 
BRANCH   5  13
ATOM     13  O   UNL     1      13.021   6.495  -0.662  0.00  0.00    -0.445 OA
BRANCH  13  15
ATOM     14  C   UNL     1      13.756   5.971   1.600  0.00  0.00    +0.055 C 
ATOM     15  C   UNL     1      13.602   7.065   0.541  0.00  0.00    +0.107 C 
ATOM     16  C   UNL     1      14.975   7.656   0.214  0.00  0.00    +0.055 C 
ATOM     17  C   UNL     1      12.686   8.168   1.077  0.00  0.00    +0.055 C 
ENDBRANCH  13  15
ENDBRANCH   5  13
ENDBRANCH   1  11
BRANCH   3  18
ATOM     18  C   UNL     1       5.594   3.958  -1.414  0.00  0.00    +0.109 C 
BRANCH  18  19
ATOM     19  C   UNL     1       4.958   4.083  -0.029  0.00  0.00    +0.054 C 
BRANCH  19  20
ATOM     20  C   UNL     1       3.631   3.368  -0.019  0.00  0.00    -0.041 A 
ATOM     21  C   UNL     1       3.570   2.031   0.328  0.00  0.00    +0.053 A 
ATOM     22  C   UNL     1       2.351   1.370   0.338  0.00  0.00    +0.164 A 
ATOM     23  C   UNL     1       1.190   2.056   0.002  0.00  0.00    +0.180 A 
ATOM     24  C   UNL     1       1.258   3.397  -0.347  0.00  0.00    +0.086 A 
ATOM     25  C   UNL     1       2.477   4.050  -0.356  0.00  0.00    +0.027 A 
ATOM     26 CL   UNL     1      -0.189   4.257  -0.772  0.00  0.00    -0.080 Cl
ATOM     27  O   UNL     1      -0.017   1.427   0.010  0.00  0.00    -0.483 OA
ATOM     28  C   UNL     1       0.002  -0.004   0.002  0.00  0.00    +0.270 C 
ATOM     29  C   UNL     1       1.028  -0.476   1.041  0.00  0.00    +0.270 C 
ATOM     30  O   UNL     1       2.308   0.053   0.679  0.00  0.00    -0.485 OA
ENDBRANCH  19  20
ENDBRANCH  18  19
ENDBRANCH   3  18
TORSDOF 6
