REMARK  Name = ZINC06220025
REMARK  3 active torsions:
REMARK  status: ('A' for Active; 'I' for Inactive)
REMARK    1  A    between atoms: C_4  and  N_17
REMARK    2  A    between atoms: C_6  and  C_7
REMARK    3  A    between atoms: C_7  and  C_8
REMARK                            x       y       z     vdW  Elec       q    Type
REMARK                         _______ _______ _______ _____ _____    ______ ____
ROOT
ATOM      1  C   UNL     1       2.490   1.047  -0.016  0.00  0.00    +0.057 C 
ENDROOT
BRANCH   1   2
ATOM      2  C   UNL     1       2.921   0.805  -1.463  0.00  0.00    +0.166 C 
ATOM      3  C   UNL     1       1.871  -0.063  -2.130  0.00  0.00    +0.233 C 
ATOM      4  O   UNL     1       0.713   0.288  -2.193  0.00  0.00    -0.275 OA
ATOM      5  N   UNL     1       2.269  -1.238  -2.653  0.00  0.00    -0.239 N 
ATOM      6  C   UNL     1       3.542  -1.644  -2.592  0.00  0.00    +0.312 C 
ATOM      7  O   UNL     1       3.814  -2.720  -3.087  0.00  0.00    -0.252 OA
ATOM      8  N   UNL     1       4.537  -0.953  -2.025  0.00  0.00    -0.239 N 
ATOM      9  C   UNL     1       4.333   0.251  -1.449  0.00  0.00    +0.233 C 
ATOM     10  O   UNL     1       5.245   0.866  -0.939  0.00  0.00    -0.275 OA
ATOM     11  H   UNL     1       1.613  -1.808  -3.085  0.00  0.00    +0.159 HD
ATOM     12  H   UNL     1       5.432  -1.328  -2.028  0.00  0.00    +0.159 HD
ENDBRANCH   1   2
BRANCH   1  18
ATOM     13  C   UNL     1      -0.013   1.076   0.008  0.00  0.00    +0.005 A 
ATOM     14  C   UNL     1      -1.219   1.751   0.017  0.00  0.00    +0.018 A 
ATOM     15  C   UNL     1      -1.238   3.133   0.030  0.00  0.00    +0.048 A 
ATOM     16  C   UNL     1      -0.049   3.841   0.023  0.00  0.00    +0.140 A 
ATOM     17  C   UNL     1       1.157   3.166   0.008  0.00  0.00    +0.037 A 
ATOM     18  C   UNL     1       1.175   1.783   0.000  0.00  0.00    -0.044 A 
ATOM     19 BR   UNL     1      -2.888   4.057   0.051  0.00  0.00    -0.048 Br
BRANCH  16  20
ATOM     20  N   UNL     1      -0.068   5.321   0.032  0.00  0.00    +0.058 N 
ATOM     21  O   UNL     1       0.979   5.944   0.026  0.00  0.00    -0.126 OA
ATOM     22  O   UNL     1      -1.131   5.916   0.046  0.00  0.00    -0.126 OA
ENDBRANCH  16  20
ENDBRANCH   1  18
TORSDOF 3
