REMARK  Name = ZINC15223099
REMARK  6 active torsions:
REMARK  status: ('A' for Active; 'I' for Inactive)
REMARK    1  A    between atoms: C_1  and  C_2
REMARK    2  A    between atoms: C_5  and  N_9
REMARK    3  A    between atoms: C_6  and  C_8
REMARK    4  A    between atoms: C_10  and  C_12
REMARK    5  A    between atoms: C_12  and  C_21
REMARK    6  A    between atoms: C_13  and  C_14
REMARK                            x       y       z     vdW  Elec       q    Type
REMARK                         _______ _______ _______ _____ _____    ______ ____
ROOT
ATOM      1  N   UNL     1      -0.875   1.377  -0.896  0.00  0.00    -0.281 N 
ATOM      2  C   UNL     1       0.307   0.759  -0.704  0.00  0.00    +0.259 C 
ATOM      3  O   UNL     1       0.430  -0.419  -0.981  0.00  0.00    -0.269 OA
ATOM      4  H   UNL     1      -0.956   2.330  -0.735  0.00  0.00    +0.155 HD
ENDROOT
BRANCH   1   9
ATOM      5  C   UNL     1      -5.378  -1.597  -2.644  0.00  0.00    +0.044 C 
ATOM      6  C   UNL     1      -4.181  -0.807  -2.180  0.00  0.00    -0.050 A 
ATOM      7  C   UNL     1      -2.905  -1.241  -2.490  0.00  0.00    +0.005 A 
ATOM      8  C   UNL     1      -1.807  -0.519  -2.066  0.00  0.00    +0.024 A 
ATOM      9  C   UNL     1      -1.985   0.643  -1.327  0.00  0.00    +0.037 A 
ATOM     10  C   UNL     1      -3.268   1.073  -1.012  0.00  0.00    -0.029 A 
ATOM     11  C   UNL     1      -4.362   0.350  -1.444  0.00  0.00    +0.008 A 
ATOM     12  C   UNL     1      -3.465   2.330  -0.204  0.00  0.00    +0.045 C 
ENDBRANCH   1   9
BRANCH   2  13
ATOM     13  C   UNL     1       1.452   1.511  -0.163  0.00  0.00    +0.114 C 
ATOM     14  C   UNL     1       2.613   0.852   0.169  0.00  0.00    +0.032 C 
BRANCH  14  15
ATOM     15  C   UNL     1       2.639  -0.614   0.208  0.00  0.00    -0.024 A 
ATOM     16  C   UNL     1       1.615  -1.320   0.853  0.00  0.00    +0.009 A 
ATOM     17  C   UNL     1       1.645  -2.697   0.881  0.00  0.00    +0.016 A 
ATOM     18  C   UNL     1       2.689  -3.384   0.282  0.00  0.00    +0.018 A 
ATOM     19  C   UNL     1       3.708  -2.693  -0.354  0.00  0.00    +0.016 A 
ATOM     20  C   UNL     1       3.691  -1.316  -0.395  0.00  0.00    +0.009 A 
ATOM     21 BR   UNL     1       2.723  -5.274   0.332  0.00  0.00    -0.050 Br
ENDBRANCH  14  15
BRANCH  13  22
ATOM     22  C   UNL     1       1.356   2.928   0.017  0.00  0.00    +0.104 C 
ATOM     23  N   UNL     1       1.280   4.053   0.159  0.00  0.00    -0.191 NA
ENDBRANCH  13  22
ENDBRANCH   2  13
TORSDOF 4
