REMARK  Name = ZINC36266192
REMARK  3 active torsions:
REMARK  status: ('A' for Active; 'I' for Inactive)
REMARK    1  A    between atoms: C_1  and  C_2
REMARK    2  A    between atoms: N_12  and  S_13
REMARK    3  A    between atoms: S_13  and  C_16
REMARK                            x       y       z     vdW  Elec       q    Type
REMARK                         _______ _______ _______ _____ _____    ______ ____
ROOT
ATOM      1  S   UNL     1       2.179  -0.027   1.790  0.00  0.00    +0.061 S 
ATOM      2  O   UNL     1       2.686  -1.103   2.568  0.00  0.00    -0.153 OA
ATOM      3  O   UNL     1       2.889   0.514   0.684  0.00  0.00    -0.153 OA
ENDROOT
BRANCH   1  12
ATOM      4  C   UNL     1      -0.019   1.526   0.010  0.00  0.00    +0.026 C 
ATOM      5  C   UNL     1       0.002  -0.004   0.002  0.00  0.00    +0.077 C 
ATOM      6  C   UNL     1      -1.459  -0.561   0.068  0.00  0.00    +0.023 C 
ATOM      7  C   UNL     1      -1.575  -0.830   1.533  0.00  0.00    -0.010 C 
ATOM      8  C   UNL     1      -2.453  -1.776   2.279  0.00  0.00    -0.078 C 
ATOM      9  N   UNL     1      -1.708  -1.946   3.572  0.00  0.00    +0.380 N 
ATOM     10  C   UNL     1      -0.269  -1.639   3.313  0.00  0.00    -0.062 C 
ATOM     11  C   UNL     1      -0.175  -1.526   1.789  0.00  0.00    +0.065 C 
ATOM     12  N   UNL     1       0.705  -0.512   1.214  0.00  0.00    -0.172 NA
ATOM     13  H   UNL     1      -2.074  -1.309   4.263  0.00  0.00    -0.086 HD
ATOM     14  H   UNL     1      -1.801  -2.896   3.897  0.00  0.00    -0.086 HD
ENDBRANCH   1  12
BRANCH   1  15
ATOM     15  C   UNL     1       1.890   1.308   2.904  0.00  0.00    +0.106 A 
ATOM     16  C   UNL     1       1.868   2.608   2.435  0.00  0.00    +0.029 A 
ATOM     17  C   UNL     1       1.641   3.652   3.310  0.00  0.00    +0.006 A 
ATOM     18  C   UNL     1       1.435   3.401   4.657  0.00  0.00    -0.044 A 
ATOM     19  C   UNL     1       1.457   2.101   5.125  0.00  0.00    -0.042 A 
ATOM     20  C   UNL     1       1.679   1.055   4.245  0.00  0.00    +0.032 A 
ATOM     21  C   UNL     1       1.208   2.091   6.618  0.00  0.00    +0.036 C 
ATOM     22  C   UNL     1       1.467   3.540   7.081  0.00  0.00    +0.009 C 
ATOM     23  C   UNL     1       1.170   4.354   5.803  0.00  0.00    +0.036 C 
ENDBRANCH   1  15
TORSDOF 2
