REMARK  Name = ZINC03521483
REMARK  5 active torsions:
REMARK  status: ('A' for Active; 'I' for Inactive)
REMARK    1  A    between atoms: C_1  and  C_2
REMARK    2  A    between atoms: C_2  and  C_4
REMARK    3  A    between atoms: C_2  and  S_10
REMARK    4  A    between atoms: S_10  and  C_11
REMARK    5  A    between atoms: N_21  and  C_22
REMARK                            x       y       z     vdW  Elec       q    Type
REMARK                         _______ _______ _______ _____ _____    ______ ____
ROOT
ATOM      1  C   UNL     1       2.932   4.242  -1.190  0.00  0.00    +0.177 A 
ATOM      2  N   UNL     1       4.055   4.913  -1.271  0.00  0.00    -0.223 NA
ATOM      3  C   UNL     1       4.726   5.303  -0.169  0.00  0.00    +0.079 A 
ATOM      4  C   UNL     1       5.925   6.018  -0.256  0.00  0.00    +0.028 A 
ATOM      5  C   UNL     1       6.573   6.393   0.887  0.00  0.00    +0.002 A 
ATOM      6  C   UNL     1       6.059   6.073   2.138  0.00  0.00    +0.001 A 
ATOM      7  C   UNL     1       4.890   5.375   2.255  0.00  0.00    +0.015 A 
ATOM      8  C   UNL     1       4.207   4.980   1.106  0.00  0.00    +0.065 A 
ATOM      9  C   UNL     1       2.945   4.232   1.172  0.00  0.00    +0.267 A 
ATOM     10  O   UNL     1       2.445   3.929   2.240  0.00  0.00    -0.267 OA
ATOM     11  N   UNL     1       2.360   3.888   0.000  0.00  0.00    -0.253 N 
ENDROOT
BRANCH  11  12
ATOM     12  C   UNL     1       1.156   3.169   0.008  0.00  0.00    +0.087 A 
ATOM     13  C   UNL     1       1.175   1.782   0.000  0.00  0.00    +0.029 A 
ATOM     14  C   UNL     1      -0.013   1.076   0.008  0.00  0.00    +0.002 A 
ATOM     15  C   UNL     1      -1.220   1.750   0.017  0.00  0.00    +0.003 A 
ATOM     16  C   UNL     1      -1.244   3.132   0.030  0.00  0.00    +0.040 A 
ATOM     17  C   UNL     1      -0.059   3.845   0.022  0.00  0.00    +0.147 A 
ATOM     18  F   UNL     1      -0.082   5.196   0.029  0.00  0.00    -0.203 F 
ENDBRANCH  11  12
BRANCH   1  19
ATOM     19  S   UNL     1       2.123   3.775  -2.684  0.00  0.00    -0.075 S 
BRANCH  19  21
ATOM     20  C   UNL     1       3.278   5.998  -3.772  0.00  0.00    +0.029 C 
ATOM     21  C   UNL     1       3.272   4.473  -3.895  0.00  0.00    +0.137 C 
BRANCH  21  22
ATOM     22  C   UNL     1       2.836   4.083  -5.284  0.00  0.00    +0.233 C 
ATOM     23  O   UNL     1       1.674   3.816  -5.502  0.00  0.00    -0.274 OA
ATOM     24  N   UNL     1       3.738   4.031  -6.284  0.00  0.00    -0.239 N 
ATOM     25  C   UNL     1       3.348   3.682  -7.526  0.00  0.00    +0.303 C 
ATOM     26  O   UNL     1       2.183   3.414  -7.744  0.00  0.00    -0.253 OA
ATOM     27  N   UNL     1       4.250   3.630  -8.526  0.00  0.00    -0.313 N 
ATOM     28  H   UNL     1       4.668   4.245  -6.110  0.00  0.00    +0.159 HD
ATOM     29  H   UNL     1       5.180   3.844  -8.352  0.00  0.00    +0.146 HD
ATOM     30  H   UNL     1       3.970   3.379  -9.420  0.00  0.00    +0.146 HD
ENDBRANCH  21  22
ENDBRANCH  19  21
ENDBRANCH   1  19
TORSDOF 4
