REMARK  Name = ZINC67293071
REMARK  6 active torsions:
REMARK  status: ('A' for Active; 'I' for Inactive)
REMARK    1  A    between atoms: C_1  and  O_2
REMARK    2  A    between atoms: O_2  and  C_3
REMARK    3  A    between atoms: C_6  and  N_10
REMARK    4  A    between atoms: C_12  and  C_22
REMARK    5  A    between atoms: N_24  and  C_25
REMARK    6  A    between atoms: C_25  and  C_26
REMARK                            x       y       z     vdW  Elec       q    Type
REMARK                         _______ _______ _______ _____ _____    ______ ____
ROOT
ATOM      1  N   UNL     1       2.450  -2.438  -4.284  0.00  0.00    -0.325 N 
ATOM      2  C   UNL     1       3.268  -3.447  -4.085  0.00  0.00    +0.212 A 
ATOM      3  C   UNL     1       3.852  -4.188  -5.221  0.00  0.00    +0.097 A 
ATOM      4  C   UNL     1       5.073  -4.813  -5.007  0.00  0.00    +0.030 A 
ATOM      5  C   UNL     1       5.673  -4.682  -3.677  0.00  0.00    +0.020 A 
ATOM      6  C   UNL     1       7.006  -5.045  -3.453  0.00  0.00    +0.031 A 
ATOM      7  C   UNL     1       7.546  -4.910  -2.193  0.00  0.00    +0.042 A 
ATOM      8  C   UNL     1       6.776  -4.416  -1.149  0.00  0.00    +0.023 A 
ATOM      9  C   UNL     1       5.460  -4.055  -1.355  0.00  0.00    +0.048 A 
ATOM     10  C   UNL     1       4.895  -4.185  -2.614  0.00  0.00    +0.138 A 
ATOM     11  O   UNL     1       3.605  -3.838  -2.829  0.00  0.00    -0.439 OA
ATOM     12 CL   UNL     1       9.199  -5.360  -1.909  0.00  0.00    -0.084 Cl
ATOM     13  H   UNL     1       2.287  -2.115  -5.184  0.00  0.00    +0.169 HD
ENDROOT
BRANCH   1  17
ATOM     14  C   UNL     1       0.567  -0.632  -1.068  0.00  0.00    +0.138 A 
ATOM     15  C   UNL     1       1.145   0.149  -2.059  0.00  0.00    +0.049 A 
ATOM     16  C   UNL     1       1.774  -0.448  -3.132  0.00  0.00    +0.029 A 
ATOM     17  C   UNL     1       1.828  -1.841  -3.220  0.00  0.00    +0.043 A 
ATOM     18  C   UNL     1       1.245  -2.624  -2.221  0.00  0.00    +0.049 A 
ATOM     19  C   UNL     1       0.623  -2.018  -1.148  0.00  0.00    +0.084 A 
ATOM     20 CL   UNL     1      -0.096  -2.988   0.099  0.00  0.00    -0.080 Cl
BRANCH  14  22
ATOM     21  C   UNL     1      -0.073   1.390   0.009  0.00  0.00    +0.277 C 
ATOM     22  O   UNL     1      -0.051  -0.039  -0.012  0.00  0.00    -0.494 OA
ENDBRANCH  14  22
ENDBRANCH   1  17
BRANCH   3  23
ATOM     23  C   UNL     1       3.170  -4.261  -6.524  0.00  0.00    +0.249 C 
ATOM     24  O   UNL     1       2.145  -3.632  -6.710  0.00  0.00    -0.270 OA
ATOM     25  N   UNL     1       3.680  -5.024  -7.511  0.00  0.00    -0.309 N 
ATOM     26  H   UNL     1       4.454  -5.583  -7.340  0.00  0.00    +0.149 HD
BRANCH  25  27
ATOM     27  C   UNL     1       3.065  -5.010  -8.841  0.00  0.00    +0.136 C 
BRANCH  27  28
ATOM     28  C   UNL     1       3.832  -5.956  -9.767  0.00  0.00    +0.135 C 
ATOM     29  C   UNL     1       3.267  -5.857 -11.200  0.00  0.00    +0.035 C 
ATOM     30  C   UNL     1       3.304  -7.336 -11.672  0.00  0.00    +0.031 C 
ATOM     31  C   UNL     1       3.000  -8.076 -10.345  0.00  0.00    +0.160 C 
ATOM     32  O   UNL     1       3.664  -7.309  -9.326  0.00  0.00    -0.375 OA
ENDBRANCH  27  28
ENDBRANCH  25  27
ENDBRANCH   3  23
TORSDOF 5
