REMARK  Name = ZINC32983277
REMARK  5 active torsions:
REMARK  status: ('A' for Active; 'I' for Inactive)
REMARK    1  A    between atoms: C_4  and  C_7
REMARK    2  A    between atoms: C_10  and  C_12
REMARK    3  A    between atoms: C_12  and  C_13
REMARK    4  A    between atoms: C_13  and  C_14
REMARK    5  A    between atoms: C_22  and  C_24
REMARK                            x       y       z     vdW  Elec       q    Type
REMARK                         _______ _______ _______ _____ _____    ______ ____
ROOT
ATOM      1  C   UNL     1      10.564   1.170  -2.380  0.00  0.00    +0.216 C 
ATOM      2  O   UNL     1      11.543   1.819  -2.077  0.00  0.00    -0.276 OA
ATOM      3  N   UNL     1       9.335   1.604  -2.036  0.00  0.00    -0.298 N 
ATOM      4  C   UNL     1       9.166   2.862  -1.295  0.00  0.00    +0.126 C 
ATOM      5  C   UNL     1       8.366   2.575  -0.018  0.00  0.00    +0.127 C 
ATOM      6  N   UNL     1       7.171   1.799  -0.378  0.00  0.00    -0.295 N 
ATOM      7  C   UNL     1       7.340   0.538  -1.114  0.00  0.00    +0.127 C 
ATOM      8  C   UNL     1       8.140   0.828  -2.395  0.00  0.00    +0.126 C 
ATOM      9  C   UNL     1       5.943   2.232  -0.033  0.00  0.00    +0.260 C 
ATOM     10  O   UNL     1       5.816   3.272   0.579  0.00  0.00    -0.271 OA
ENDROOT
BRANCH   9  11
ATOM     11  C   UNL     1       4.726   1.426  -0.408  0.00  0.00    +0.296 C 
ATOM     12  C   UNL     1       4.752   0.078   0.325  0.00  0.00    +0.283 C 
ATOM     13  O   UNL     1       3.579  -0.656  -0.043  0.00  0.00    -0.484 OA
ATOM     14  C   UNL     1       2.401   0.025  -0.022  0.00  0.00    +0.162 A 
ATOM     15  C   UNL     1       1.207  -0.681  -0.015  0.00  0.00    +0.049 A 
ATOM     16  C   UNL     1       0.002  -0.004   0.002  0.00  0.00    +0.004 A 
ATOM     17  C   UNL     1      -0.017   1.378   0.010  0.00  0.00    +0.004 A 
ATOM     18  C   UNL     1       1.169   2.088   0.002  0.00  0.00    +0.049 A 
ATOM     19  C   UNL     1       2.382   1.415  -0.012  0.00  0.00    +0.163 A 
ATOM     20  O   UNL     1       3.542   2.127  -0.015  0.00  0.00    -0.473 OA
ENDBRANCH   9  11
BRANCH   1  21
ATOM     21  C   UNL     1      10.722  -0.122  -3.140  0.00  0.00    +0.103 C 
BRANCH  21  22
ATOM     22  C   UNL     1      12.207  -0.381  -3.401  0.00  0.00    +0.083 C 
BRANCH  22  26
ATOM     23  C   UNL     1      12.629  -3.810  -4.591  0.00  0.00    +0.135 A 
ATOM     24  C   UNL     1      12.545  -3.169  -5.787  0.00  0.00    +0.050 A 
ATOM     25  C   UNL     1      12.376  -1.799  -5.503  0.00  0.00    +0.045 A 
ATOM     26  C   UNL     1      12.364  -1.673  -4.161  0.00  0.00    +0.106 A 
ATOM     27  O   UNL     1      12.523  -2.889  -3.614  0.00  0.00    -0.460 OA
BRANCH  23  31
ATOM     28  C   UNL     1      13.151  -7.988  -4.034  0.00  0.00    +0.000 A 
ATOM     29  C   UNL     1      13.051  -7.154  -2.935  0.00  0.00    +0.001 A 
ATOM     30  C   UNL     1      12.881  -5.795  -3.109  0.00  0.00    +0.011 A 
ATOM     31  C   UNL     1      12.811  -5.263  -4.398  0.00  0.00    +0.017 A 
ATOM     32  C   UNL     1      12.907  -6.112  -5.502  0.00  0.00    +0.011 A 
ATOM     33  C   UNL     1      13.081  -7.467  -5.314  0.00  0.00    +0.001 A 
ENDBRANCH  23  31
ENDBRANCH  22  26
ENDBRANCH  21  22
ENDBRANCH   1  21
TORSDOF 5
