REMARK  Name = ZINC66149336
REMARK  5 active torsions:
REMARK  status: ('A' for Active; 'I' for Inactive)
REMARK    1  A    between atoms: C_1  and  C_2
REMARK    2  A    between atoms: C_2  and  C_4
REMARK    3  A    between atoms: C_2  and  N_10
REMARK    4  A    between atoms: C_4  and  N_5
REMARK    5  A    between atoms: C_19  and  C_21
REMARK                            x       y       z     vdW  Elec       q    Type
REMARK                         _______ _______ _______ _____ _____    ______ ____
ROOT
ATOM      1  N   UNL     1      -1.608   0.391  -0.087  0.00  0.00    -0.295 N 
ATOM      2  C   UNL     1      -2.310   0.230  -1.227  0.00  0.00    +0.303 C 
ATOM      3  O   UNL     1      -1.939   0.772  -2.250  0.00  0.00    -0.253 OA
ATOM      4  N   UNL     1      -3.423  -0.530  -1.231  0.00  0.00    -0.283 N 
ATOM      5  C   UNL     1      -3.956  -1.083   0.022  0.00  0.00    +0.128 C 
ATOM      6  C   UNL     1      -5.420  -0.648   0.166  0.00  0.00    +0.127 C 
ATOM      7  N   UNL     1      -6.122  -0.939  -1.092  0.00  0.00    -0.294 N 
ATOM      8  C   UNL     1      -5.589  -0.386  -2.345  0.00  0.00    +0.127 C 
ATOM      9  C   UNL     1      -4.128  -0.816  -2.489  0.00  0.00    +0.128 C 
ATOM     10  C   UNL     1      -7.235  -1.699  -1.097  0.00  0.00    +0.249 C 
ATOM     11  O   UNL     1      -7.705  -2.095  -0.048  0.00  0.00    -0.270 OA
ATOM     12  H   UNL     1      -1.942   0.018   0.744  0.00  0.00    +0.151 HD
ENDROOT
BRANCH  10  13
ATOM     13  C   UNL     1      -7.883  -2.051  -2.376  0.00  0.00    +0.072 A 
ATOM     14  C   UNL     1      -8.239  -1.048  -3.281  0.00  0.00    +0.017 A 
ATOM     15  C   UNL     1      -8.844  -1.383  -4.473  0.00  0.00    +0.021 A 
ATOM     16  C   UNL     1      -9.100  -2.711  -4.777  0.00  0.00    +0.044 A 
ATOM     17  C   UNL     1      -8.752  -3.710  -3.886  0.00  0.00    +0.059 A 
ATOM     18  C   UNL     1      -8.139  -3.390  -2.689  0.00  0.00    +0.137 A 
ATOM     19  F   UNL     1      -7.793  -4.366  -1.822  0.00  0.00    -0.205 F 
ATOM     20 CL   UNL     1      -9.863  -3.121  -6.281  0.00  0.00    -0.083 Cl
ENDBRANCH  10  13
BRANCH   1  22
ATOM     21  C   UNL     1      -0.621   2.625   0.029  0.00  0.00    +0.029 C 
ATOM     22  C   UNL     1      -0.342   1.127  -0.105  0.00  0.00    +0.091 C 
BRANCH  22  23
ATOM     23  C   UNL     1       0.533   0.665   1.063  0.00  0.00    +0.144 C 
BRANCH  23  24
ATOM     24  N   UNL     1       0.899  -0.741   0.872  0.00  0.00    -0.337 N 
ATOM     25  C   UNL     1       0.198  -1.830   1.313  0.00  0.00    +0.104 A 
ATOM     26  C   UNL     1       0.885  -2.921   0.923  0.00  0.00    +0.101 A 
ATOM     27  N   UNL     1       1.976  -2.509   0.261  0.00  0.00    -0.352 N 
ATOM     28  C   UNL     1       1.989  -1.204   0.222  0.00  0.00    +0.173 A 
ATOM     29  H   UNL     1       2.648  -3.088  -0.130  0.00  0.00    +0.166 HD
ENDBRANCH  23  24
ENDBRANCH  22  23
ENDBRANCH   1  22
TORSDOF 4
