REMARK  Name = ZINC30947391
REMARK  7 active torsions:
REMARK  status: ('A' for Active; 'I' for Inactive)
REMARK    1  A    between atoms: C_1  and  N_2
REMARK    2  A    between atoms: N_2  and  C_3
REMARK    3  A    between atoms: N_2  and  S_4
REMARK    4  A    between atoms: S_4  and  C_7
REMARK    5  A    between atoms: C_16  and  C_18
REMARK    6  A    between atoms: N_23  and  C_25
REMARK    7  A    between atoms: C_25  and  C_26
REMARK                            x       y       z     vdW  Elec       q    Type
REMARK                         _______ _______ _______ _____ _____    ______ ____
ROOT
ATOM      1  C   UNL     1     -11.374   6.305  -4.030  0.00  0.00    +0.106 A 
ATOM      2  C   UNL     1     -10.847   6.394  -2.755  0.00  0.00    +0.030 A 
ATOM      3  C   UNL     1      -9.545   6.012  -2.514  0.00  0.00    +0.026 A 
ATOM      4  C   UNL     1      -8.748   5.533  -3.556  0.00  0.00    +0.040 A 
ATOM      5  C   UNL     1      -9.285   5.448  -4.830  0.00  0.00    -0.023 A 
ATOM      6  C   UNL     1     -10.591   5.832  -5.067  0.00  0.00    +0.034 A 
ATOM      7  C   UNL     1      -8.227   4.905  -5.763  0.00  0.00    +0.056 C 
ATOM      8  C   UNL     1      -6.996   4.688  -4.869  0.00  0.00    +0.118 C 
ATOM      9  N   UNL     1      -7.419   5.099  -3.527  0.00  0.00    -0.271 N 
ATOM     10  C   UNL     1      -6.639   5.068  -2.428  0.00  0.00    +0.221 C 
ATOM     11  O   UNL     1      -7.049   5.525  -1.382  0.00  0.00    -0.275 OA
ENDROOT
BRANCH  10  12
ATOM     12  C   UNL     1      -5.259   4.467  -2.499  0.00  0.00    +0.059 C 
ATOM     13  C   UNL     1      -5.320   2.996  -2.078  0.00  0.00    +0.009 C 
ATOM     14  C   UNL     1      -3.906   2.409  -2.095  0.00  0.00    -0.018 C 
ATOM     15  C   UNL     1      -3.008   3.227  -1.164  0.00  0.00    -0.078 C 
ATOM     16  N   UNL     1      -2.983   4.626  -1.610  0.00  0.00    +0.383 N 
ATOM     17  C   UNL     1      -4.322   5.225  -1.556  0.00  0.00    -0.066 C 
ATOM     18  H   UNL     1      -2.652   4.637  -2.659  0.00  0.00    -0.081 HD
BRANCH  16  19
ATOM     19  C   UNL     1      -2.023   5.412  -0.823  0.00  0.00    -0.042 C 
BRANCH  19  20
ATOM     20  C   UNL     1      -1.846   6.768  -1.456  0.00  0.00    -0.046 A 
ATOM     21  C   UNL     1      -2.406   7.885  -0.865  0.00  0.00    +0.004 A 
ATOM     22  C   UNL     1      -2.244   9.129  -1.446  0.00  0.00    +0.020 A 
ATOM     23  C   UNL     1      -1.521   9.257  -2.619  0.00  0.00    +0.042 A 
ATOM     24  C   UNL     1      -0.960   8.139  -3.210  0.00  0.00    +0.040 A 
ATOM     25  C   UNL     1      -1.127   6.894  -2.631  0.00  0.00    +0.044 A 
ATOM     26 CL   UNL     1      -0.428   5.490  -3.377  0.00  0.00    -0.083 Cl
ATOM     27 CL   UNL     1      -1.319  10.819  -3.348  0.00  0.00    -0.083 Cl
ENDBRANCH  19  20
ENDBRANCH  16  19
ENDBRANCH  10  12
BRANCH   1  28
ATOM     28  S   UNL     1     -13.040   6.794  -4.334  0.00  0.00    +0.060 S 
ATOM     29  O   UNL     1     -13.387   7.712  -3.307  0.00  0.00    -0.153 OA
ATOM     30  O   UNL     1     -13.121   7.127  -5.713  0.00  0.00    -0.153 OA
BRANCH  28  32
ATOM     31  C   UNL     1     -14.547   5.162  -2.790  0.00  0.00    +0.131 C 
ATOM     32  N   UNL     1     -13.990   5.456  -4.114  0.00  0.00    -0.183 NA
ATOM     33  C   UNL     1     -14.275   4.566  -5.242  0.00  0.00    +0.131 C 
ENDBRANCH  28  32
ENDBRANCH   1  28
TORSDOF 5
