REMARK  Name = ZINC38508017
REMARK  9 active torsions:
REMARK  status: ('A' for Active; 'I' for Inactive)
REMARK    1  A    between atoms: C_1  and  C_2
REMARK    2  A    between atoms: C_4  and  C_10
REMARK    3  A    between atoms: N_6  and  C_7
REMARK    4  A    between atoms: C_7  and  C_8
REMARK    5  A    between atoms: C_7  and  C_9
REMARK    6  A    between atoms: N_12  and  C_13
REMARK    7  A    between atoms: C_14  and  C_20
REMARK    8  A    between atoms: C_15  and  C_19
REMARK    9  A    between atoms: C_16  and  C_18
REMARK                            x       y       z     vdW  Elec       q    Type
REMARK                         _______ _______ _______ _____ _____    ______ ____
ROOT
ATOM      1  C   UNL     1       0.042  -3.365  -1.397  0.00  0.00    +0.269 C 
ATOM      2  O   UNL     1       0.035  -3.304  -2.612  0.00  0.00    -0.268 OA
ATOM      3  N   UNL     1       0.061  -4.565  -0.784  0.00  0.00    -0.274 N 
ATOM      4  H   UNL     1       0.067  -4.614   0.185  0.00  0.00    +0.156 HD
ENDROOT
BRANCH   3   5
ATOM      5  C   UNL     1       0.074  -5.729  -1.537  0.00  0.00    +0.090 A 
ATOM      6  C   UNL     1       0.088  -7.039  -1.082  0.00  0.00    +0.083 A 
ATOM      7  C   UNL     1       0.098  -8.074  -2.090  0.00  0.00    -0.021 A 
ATOM      8  C   UNL     1       0.092  -7.648  -3.368  0.00  0.00    -0.007 A 
ATOM      9  S   UNL     1       0.067  -5.876  -3.209  0.00  0.00    -0.077 S 
ATOM     10  C   UNL     1       0.100  -8.474  -4.629  0.00  0.00    +0.052 C 
ATOM     11  C   UNL     1       0.115  -9.538  -1.734  0.00  0.00    +0.046 C 
BRANCH   6  12
ATOM     12  C   UNL     1       0.093  -7.350   0.316  0.00  0.00    +0.102 C 
ATOM     13  N   UNL     1       0.098  -7.597   1.424  0.00  0.00    -0.191 NA
ENDBRANCH   6  12
ENDBRANCH   3   5
BRANCH   1  17
ATOM     14  C   UNL     1      -0.018   1.503   0.010  0.00  0.00    +0.065 C 
ATOM     15  C   UNL     1       0.002  -0.004   0.002  0.00  0.00    +0.037 A 
ATOM     16  C   UNL     1       0.009  -0.801  -1.092  0.00  0.00    +0.057 A 
ATOM     17  C   UNL     1       0.029  -2.126  -0.595  0.00  0.00    +0.148 A 
ATOM     18  N   UNL     1       0.034  -2.043   0.721  0.00  0.00    -0.166 NA
ATOM     19  N   UNL     1       0.023  -0.811   1.085  0.00  0.00    -0.265 N 
BRANCH  19  20
ATOM     20  C   UNL     1       0.030  -0.348   2.475  0.00  0.00    +0.101 C 
ATOM     21  C   UNL     1      -1.205  -0.888   3.198  0.00  0.00    +0.032 C 
ATOM     22  C   UNL     1       1.293  -0.854   3.174  0.00  0.00    +0.032 C 
ENDBRANCH  19  20
ENDBRANCH   1  17
TORSDOF 4
