REMARK  Name = ZINC05675246
REMARK  3 active torsions:
REMARK  status: ('A' for Active; 'I' for Inactive)
REMARK    1  A    between atoms: C_6  and  S_7
REMARK    2  A    between atoms: S_7  and  N_10
REMARK    3  A    between atoms: N_10  and  N_11
REMARK                            x       y       z     vdW  Elec       q    Type
REMARK                         _______ _______ _______ _____ _____    ______ ____
ROOT
ATOM      1  S   UNL     1      -1.731   0.102  -4.276  0.00  0.00    +0.086 S 
ATOM      2  O   UNL     1      -1.016  -1.006  -4.804  0.00  0.00    -0.149 OA
ATOM      3  O   UNL     1      -3.144   0.097  -4.127  0.00  0.00    -0.149 OA
ENDROOT
BRANCH   1   9
ATOM      4  C   UNL     1      -2.210   2.556  -5.373  0.00  0.00    +0.030 A 
ATOM      5  C   UNL     1      -1.899   3.643  -6.168  0.00  0.00    +0.022 A 
ATOM      6  C   UNL     1      -0.722   3.656  -6.893  0.00  0.00    +0.041 A 
ATOM      7  C   UNL     1       0.148   2.582  -6.819  0.00  0.00    +0.022 A 
ATOM      8  C   UNL     1      -0.161   1.498  -6.020  0.00  0.00    +0.030 A 
ATOM      9  C   UNL     1      -1.338   1.486  -5.295  0.00  0.00    +0.110 A 
ATOM     10 CL   UNL     1      -0.335   5.019  -7.896  0.00  0.00    -0.084 Cl
ENDBRANCH   1   9
BRANCH   1  11
ATOM     11  N   UNL     1      -1.097   0.404  -2.776  0.00  0.00    -0.137 N 
ATOM     12  H   UNL     1      -0.438  -0.199  -2.398  0.00  0.00    +0.197 HD
BRANCH  11  13
ATOM     13  N   UNL     1      -1.514   1.529  -2.053  0.00  0.00    -0.175 NA
ATOM     14  C   UNL     1      -1.024   1.762  -0.893  0.00  0.00    +0.043 C 
ATOM     15  C   UNL     1      -1.206   2.831   0.185  0.00  0.00    +0.061 C 
ATOM     16  C   UNL     1      -0.703   1.795   1.204  0.00  0.00    +0.026 C 
ATOM     17  C   UNL     1      -0.013   1.086   0.008  0.00  0.00    +0.046 C 
ATOM     18  C   UNL     1       1.368   1.778  -0.002  0.00  0.00    +0.037 C 
ATOM     19  C   UNL     1       1.565   2.271   1.413  0.00  0.00    -0.030 C 
ATOM     20  C   UNL     1       0.437   2.280   2.069  0.00  0.00    -0.027 C 
ENDBRANCH  11  13
ENDBRANCH   1  11
TORSDOF 3
