REMARK  Name = ZINC39953577
REMARK  7 active torsions:
REMARK  status: ('A' for Active; 'I' for Inactive)
REMARK    1  A    between atoms: C_1  and  C_2
REMARK    2  A    between atoms: C_2  and  O_3
REMARK    3  A    between atoms: O_3  and  C_4
REMARK    4  A    between atoms: C_4  and  C_6
REMARK    5  A    between atoms: C_16  and  O_30
REMARK    6  A    between atoms: C_28  and  C_29
REMARK    7  A    between atoms: O_30  and  C_31
REMARK                            x       y       z     vdW  Elec       q    Type
REMARK                         _______ _______ _______ _____ _____    ______ ____
ROOT
ATOM      1  C   UNL     1       1.451  -2.345  -2.520  0.00  0.00    +0.086 C 
ATOM      2  C   UNL     1       1.719  -3.678  -2.785  0.00  0.00    +0.005 C 
ATOM      3  C   UNL     1       1.429  -4.906  -1.980  0.00  0.00    +0.101 C 
ATOM      4  C   UNL     1      -0.064  -5.007  -1.649  0.00  0.00    +0.104 C 
ATOM      5  N   UNL     1      -0.303  -6.311  -1.013  0.00  0.00    -0.263 NA
ATOM      6  C   UNL     1      -1.691  -6.450  -0.557  0.00  0.00    +0.093 C 
ATOM      7  C   UNL     1      -1.764  -7.621   0.424  0.00  0.00    +0.051 C 
ATOM      8  C   UNL     1      -1.085  -8.833  -0.160  0.00  0.00    -0.035 A 
ATOM      9  C   UNL     1      -1.333 -10.069   0.416  0.00  0.00    +0.049 A 
ATOM     10  C   UNL     1      -0.726 -11.209  -0.085  0.00  0.00    +0.120 A 
ATOM     11  C   UNL     1       0.135 -11.111  -1.168  0.00  0.00    +0.046 A 
ATOM     12  C   UNL     1       0.379  -9.880  -1.740  0.00  0.00    +0.012 A 
ATOM     13  C   UNL     1      -0.231  -8.739  -1.239  0.00  0.00    +0.011 A 
ATOM     14  C   UNL     1       0.059  -7.419  -1.902  0.00  0.00    +0.277 C 
ATOM     15  O   UNL     1       1.448  -7.335  -2.242  0.00  0.00    -0.473 OA
ATOM     16  C   UNL     1       1.813  -6.139  -2.764  0.00  0.00    +0.109 C 
ATOM     17  C   UNL     1       2.466  -6.101  -3.946  0.00  0.00    +0.044 C 
ATOM     18  C   UNL     1       2.784  -4.923  -4.615  0.00  0.00    +0.031 C 
ATOM     19  C   UNL     1       2.373  -3.708  -4.035  0.00  0.00    +0.069 C 
ATOM     20  N   UNL     1       2.490  -2.452  -4.481  0.00  0.00    -0.251 NA
ATOM     21  C   UNL     1       1.953  -1.615  -3.624  0.00  0.00    +0.053 C 
ATOM     22  C   UNL     1       1.886  -0.119  -3.788  0.00  0.00    +0.066 C 
ENDROOT
BRANCH   1  23
ATOM     23  C   UNL     1       0.776  -1.799  -1.335  0.00  0.00    +0.341 C 
ATOM     24  O   UNL     1       0.488  -2.531  -0.408  0.00  0.00    -0.245 OA
BRANCH  23  25
ATOM     25  O   UNL     1       0.476  -0.486  -1.275  0.00  0.00    -0.461 OA
BRANCH  25  27
ATOM     26  C   UNL     1      -0.438   1.480  -0.207  0.00  0.00    +0.048 C 
ATOM     27  C   UNL     1      -0.180  -0.024  -0.093  0.00  0.00    +0.229 C 
ENDBRANCH  25  27
ENDBRANCH  23  25
ENDBRANCH   1  23
BRANCH  10  28
ATOM     28  O   UNL     1      -0.973 -12.419   0.483  0.00  0.00    -0.495 OA
ATOM     29  C   UNL     1      -0.311 -13.550  -0.087  0.00  0.00    +0.277 C 
ENDBRANCH  10  28
TORSDOF 4
