REMARK  Name = ZINC67426686
REMARK  9 active torsions:
REMARK  status: ('A' for Active; 'I' for Inactive)
REMARK    1  A    between atoms: C_1  and  C_2
REMARK    2  A    between atoms: C_4  and  C_30
REMARK    3  A    between atoms: C_6  and  N_8
REMARK    4  A    between atoms: C_9  and  C_11
REMARK    5  A    between atoms: N_13  and  C_14
REMARK    6  A    between atoms: C_14  and  C_16
REMARK    7  A    between atoms: C_14  and  C_17
REMARK    8  A    between atoms: C_20  and  N_23
REMARK    9  A    between atoms: N_26  and  C_29
REMARK                            x       y       z     vdW  Elec       q    Type
REMARK                         _______ _______ _______ _____ _____    ______ ____
ROOT
ATOM      1  C   UNL     1       0.295  -2.905   4.838  0.00  0.00    +0.300 C 
ATOM      2  O   UNL     1       0.301  -4.119   4.832  0.00  0.00    -0.265 OA
ATOM      3  N   UNL     1       0.391  -2.237   6.005  0.00  0.00    -0.301 N 
ATOM      4  H   UNL     1       0.386  -1.267   6.010  0.00  0.00    +0.150 HD
ENDROOT
BRANCH   1   6
ATOM      5  N   UNL     1       0.087  -2.821   2.387  0.00  0.00    -0.278 N 
ATOM      6  C   UNL     1       0.182  -2.152   3.553  0.00  0.00    +0.303 C 
ATOM      7  O   UNL     1       0.177  -0.938   3.559  0.00  0.00    -0.265 OA
ATOM      8  H   UNL     1       0.014  -3.788   2.387  0.00  0.00    +0.155 HD
BRANCH   5  14
ATOM      9  C   UNL     1      -1.437  -2.402  -2.267  0.00  0.00    +0.044 C 
ATOM     10  C   UNL     1      -0.637  -1.895  -1.096  0.00  0.00    -0.048 A 
ATOM     11  C   UNL     1       0.105  -0.734  -1.217  0.00  0.00    +0.006 A 
ATOM     12  C   UNL     1       0.840  -0.264  -0.144  0.00  0.00    -0.048 A 
ATOM     13  C   UNL     1       0.837  -0.954   1.052  0.00  0.00    +0.026 A 
ATOM     14  C   UNL     1       0.092  -2.120   1.178  0.00  0.00    +0.034 A 
ATOM     15  C   UNL     1      -0.650  -2.586   0.100  0.00  0.00    +0.026 A 
ATOM     16  C   UNL     1       1.647   1.001  -0.281  0.00  0.00    +0.044 C 
ENDBRANCH   5  14
ENDBRANCH   1   6
BRANCH   3  17
ATOM     17  C   UNL     1       0.502  -2.975   7.265  0.00  0.00    +0.101 C 
ATOM     18  C   UNL     1      -0.896  -3.348   7.762  0.00  0.00    +0.033 C 
BRANCH  17  19
ATOM     19  C   UNL     1       1.187  -2.113   8.294  0.00  0.00    -0.027 A 
ATOM     20  C   UNL     1       0.887  -0.766   8.375  0.00  0.00    +0.007 A 
ATOM     21  C   UNL     1       1.514   0.027   9.316  0.00  0.00    +0.023 A 
ATOM     22  C   UNL     1       2.446  -0.530  10.182  0.00  0.00    +0.030 A 
ATOM     23  C   UNL     1       2.744  -1.884  10.098  0.00  0.00    +0.023 A 
ATOM     24  C   UNL     1       2.110  -2.673   9.158  0.00  0.00    +0.007 A 
BRANCH  22  25
ATOM     25  N   UNL     1       3.081   0.269  11.136  0.00  0.00    -0.333 N 
ATOM     26  C   UNL     1       4.164  -0.270  11.974  0.00  0.00    +0.086 C 
ATOM     27  C   UNL     1       5.356   0.690  11.903  0.00  0.00    -0.060 C 
ATOM     28  N   UNL     1       4.918   2.041  12.274  0.00  0.00    +0.380 N 
ATOM     29  C   UNL     1       3.950   2.541  11.289  0.00  0.00    -0.060 C 
ATOM     30  C   UNL     1       2.692   1.674  11.325  0.00  0.00    +0.086 C 
ATOM     31  C   UNL     1       6.081   2.938  12.313  0.00  0.00    -0.096 C 
ATOM     32  H   UNL     1       4.486   2.015  13.185  0.00  0.00    -0.082 HD
ENDBRANCH  22  25
ENDBRANCH  17  19
ENDBRANCH   3  17
TORSDOF 5
