REMARK  Name = ZINC51654579
REMARK  7 active torsions:
REMARK  status: ('A' for Active; 'I' for Inactive)
REMARK    1  A    between atoms: C_1  and  C_2
REMARK    2  A    between atoms: C_5  and  C_7
REMARK    3  A    between atoms: C_9  and  C_25
REMARK    4  A    between atoms: C_10  and  C_12
REMARK    5  A    between atoms: C_14  and  C_15
REMARK    6  A    between atoms: C_14  and  C_17
REMARK    7  A    between atoms: N_19  and  C_20
REMARK                            x       y       z     vdW  Elec       q    Type
REMARK                         _______ _______ _______ _____ _____    ______ ____
ROOT
ATOM      1  C   UNL     1       3.459  -6.880  -0.042  0.00  0.00    +0.217 C 
ATOM      2  O   UNL     1       4.786  -7.105  -0.158  0.00  0.00    -0.285 OA
ATOM      3  C   UNL     1       2.572  -7.957   0.041  0.00  0.00    +0.161 C 
ENDROOT
BRANCH   1   7
ATOM      4  C   UNL     1       2.047  -3.085   0.478  0.00  0.00    +0.144 A 
ATOM      5  N   UNL     1       2.214  -3.498  -0.779  0.00  0.00    -0.240 NA
ATOM      6  C   UNL     1       2.658  -4.690  -1.053  0.00  0.00    +0.057 A 
ATOM      7  C   UNL     1       2.968  -5.556  -0.004  0.00  0.00    +0.083 A 
ATOM      8  S   UNL     1       2.578  -4.521   1.402  0.00  0.00    -0.061 S 
ATOM      9  C   UNL     1       2.836  -5.129  -2.484  0.00  0.00    +0.067 C 
BRANCH   4  14
ATOM     10  C   UNL     1       0.300   1.609   0.538  0.00  0.00    +0.086 C 
ATOM     11  C   UNL     1       0.797   0.266   1.006  0.00  0.00    +0.103 A 
ATOM     12  C   UNL     1       0.933  -0.118   2.293  0.00  0.00    +0.045 A 
ATOM     13  C   UNL     1       1.423  -1.435   2.283  0.00  0.00    +0.052 A 
ATOM     14  C   UNL     1       1.563  -1.791   0.972  0.00  0.00    +0.160 A 
ATOM     15  O   UNL     1       1.173  -0.748   0.212  0.00  0.00    -0.458 OA
ENDBRANCH   4  14
ENDBRANCH   1   7
BRANCH   3  16
ATOM     16  C   UNL     1       1.129  -7.718   0.045  0.00  0.00    +0.258 C 
ATOM     17  O   UNL     1       0.698  -6.592  -0.129  0.00  0.00    -0.269 OA
ATOM     18  N   UNL     1       0.276  -8.743   0.239  0.00  0.00    -0.308 N 
ATOM     19  H   UNL     1       0.619  -9.640   0.377  0.00  0.00    +0.149 HD
BRANCH  18  20
ATOM     20  C   UNL     1      -1.169  -8.503   0.242  0.00  0.00    +0.073 C 
ATOM     21  C   UNL     1      -1.640  -8.128   1.663  0.00  0.00    +0.022 C 
ATOM     22  C   UNL     1      -3.025  -8.808   1.797  0.00  0.00    +0.002 C 
ATOM     23  C   UNL     1      -2.817 -10.153   1.058  0.00  0.00    +0.002 C 
ATOM     24  C   UNL     1      -1.918  -9.791  -0.142  0.00  0.00    +0.022 C 
ENDBRANCH  18  20
ENDBRANCH   3  16
BRANCH   3  25
ATOM     25  C   UNL     1       3.076  -9.295   0.123  0.00  0.00    +0.108 C 
ATOM     26  N   UNL     1       3.476 -10.357   0.189  0.00  0.00    -0.191 NA
ENDBRANCH   3  25
TORSDOF 5
