REMARK  Name = ZINC04346194
REMARK  8 active torsions:
REMARK  status: ('A' for Active; 'I' for Inactive)
REMARK    1  A    between atoms: C_1  and  C_2
REMARK    2  A    between atoms: C_2  and  C_4
REMARK    3  A    between atoms: C_2  and  N_44
REMARK    4  A    between atoms: N_14  and  C_15
REMARK    5  A    between atoms: C_23  and  C_24
REMARK    6  A    between atoms: C_23  and  N_44
REMARK    7  A    between atoms: C_24  and  O_25
REMARK    8  A    between atoms: O_25  and  C_26
REMARK                            x       y       z     vdW  Elec       q    Type
REMARK                         _______ _______ _______ _____ _____    ______ ____
ROOT
ATOM      1  C   UNL     1      -2.351   0.985  -1.421  0.00  0.00    +0.103 A 
ATOM      2  N   UNL     1      -2.718  -0.111  -0.829  0.00  0.00    -0.235 NA
ATOM      3  C   UNL     1      -3.434  -1.064  -1.476  0.00  0.00    +0.078 A 
ATOM      4  C   UNL     1      -3.833  -2.240  -0.838  0.00  0.00    +0.028 A 
ATOM      5  C   UNL     1      -4.555  -3.183  -1.534  0.00  0.00    +0.002 A 
ATOM      6  C   UNL     1      -4.893  -2.979  -2.866  0.00  0.00    +0.001 A 
ATOM      7  C   UNL     1      -4.511  -1.827  -3.518  0.00  0.00    +0.015 A 
ATOM      8  C   UNL     1      -3.780  -0.860  -2.830  0.00  0.00    +0.065 A 
ATOM      9  C   UNL     1      -3.345   0.388  -3.474  0.00  0.00    +0.266 A 
ATOM     10  O   UNL     1      -3.609   0.625  -4.638  0.00  0.00    -0.267 OA
ATOM     11  N   UNL     1      -2.639   1.264  -2.721  0.00  0.00    -0.266 N 
ENDROOT
BRANCH  11  12
ATOM     12  C   UNL     1      -2.200   2.469  -3.286  0.00  0.00    +0.053 A 
ATOM     13  C   UNL     1      -0.949   2.541  -3.885  0.00  0.00    +0.029 A 
ATOM     14  C   UNL     1      -0.520   3.727  -4.447  0.00  0.00    +0.042 A 
ATOM     15  C   UNL     1      -1.331   4.848  -4.403  0.00  0.00    +0.142 A 
ATOM     16  C   UNL     1      -2.578   4.781  -3.801  0.00  0.00    +0.078 A 
ATOM     17  C   UNL     1      -3.013   3.593  -3.243  0.00  0.00    +0.049 A 
ATOM     18 CL   UNL     1      -3.593   6.188  -3.748  0.00  0.00    -0.081 Cl
ATOM     19  F   UNL     1      -0.907   6.010  -4.948  0.00  0.00    -0.204 F 
ENDBRANCH  11  12
BRANCH   1  21
ATOM     20  C   UNL     1      -2.519   2.845   0.210  0.00  0.00    -0.006 C 
ATOM     21  C   UNL     1      -1.562   1.996  -0.630  0.00  0.00    -0.007 C 
BRANCH  21  22
ATOM     22  N   UNL     1      -0.621   1.288   0.259  0.00  0.00    +0.387 N 
ATOM     23  H   UNL     1      -0.284   0.440  -0.212  0.00  0.00    -0.085 HD
ATOM     24  H   UNL     1      -1.105   1.029   1.126  0.00  0.00    -0.085 HD
BRANCH  22  25
ATOM     25  C   UNL     1       0.528   2.155   0.582  0.00  0.00    -0.053 C 
BRANCH  25  26
ATOM     26  C   UNL     1       1.485   1.395   1.503  0.00  0.00    +0.140 C 
BRANCH  26  27
ATOM     27  O   UNL     1       2.034   0.278   0.802  0.00  0.00    -0.385 OA
ATOM     28  C   UNL     1       2.946  -0.503   1.577  0.00  0.00    +0.193 C 
ENDBRANCH  26  27
ENDBRANCH  25  26
ENDBRANCH  22  25
ENDBRANCH  21  22
ENDBRANCH   1  21
TORSDOF 6
