REMARK  Name = ZINC45847681
REMARK  5 active torsions:
REMARK  status: ('A' for Active; 'I' for Inactive)
REMARK    1  A    between atoms: C_1  and  C_2
REMARK    2  A    between atoms: C_7  and  C_10
REMARK    3  A    between atoms: C_14  and  C_17
REMARK    4  A    between atoms: C_17  and  N_18
REMARK    5  A    between atoms: C_26  and  C_28
REMARK                            x       y       z     vdW  Elec       q    Type
REMARK                         _______ _______ _______ _____ _____    ______ ____
ROOT
ATOM      1  C   UNL     1      -0.149  -1.377   3.325  0.00  0.00    +0.039 C 
ATOM      2  C   UNL     1      -1.097  -1.075   2.162  0.00  0.00    +0.133 C 
ATOM      3  C   UNL     1      -0.691  -1.909   0.941  0.00  0.00    +0.137 C 
ATOM      4  N   UNL     1      -1.493  -1.466  -0.210  0.00  0.00    -0.312 N 
ATOM      5  C   UNL     1      -1.547  -0.024  -0.502  0.00  0.00    +0.137 C 
ATOM      6  C   UNL     1      -1.911   0.717   0.789  0.00  0.00    +0.133 C 
ATOM      7  O   UNL     1      -1.020   0.314   1.832  0.00  0.00    -0.371 OA
ATOM      8  C   UNL     1      -3.349   0.378   1.186  0.00  0.00    +0.039 C 
ATOM      9  C   UNL     1      -2.179  -2.381  -0.999  0.00  0.00    +0.099 A 
ATOM     10  C   UNL     1      -3.023  -1.927  -2.008  0.00  0.00    +0.042 A 
ATOM     11  C   UNL     1      -3.700  -2.849  -2.785  0.00  0.00    +0.010 A 
ATOM     12  C   UNL     1      -3.509  -4.200  -2.527  0.00  0.00    -0.014 A 
ATOM     13  C   UNL     1      -2.657  -4.581  -1.511  0.00  0.00    +0.089 A 
ATOM     14  N   UNL     1      -2.020  -3.679  -0.788  0.00  0.00    -0.349 N 
ATOM     15  H   UNL     1      -1.423  -3.973  -0.082  0.00  0.00    +0.167 HD
ENDROOT
BRANCH  12  16
ATOM     16  C   UNL     1      -4.226  -5.240  -3.349  0.00  0.00    +0.142 C 
BRANCH  16  17
ATOM     17  N   UNL     1      -3.404  -5.599  -4.508  0.00  0.00    -0.295 N 
ATOM     18  C   UNL     1      -3.847  -6.517  -5.389  0.00  0.00    +0.303 C 
ATOM     19  O   UNL     1      -4.966  -6.979  -5.276  0.00  0.00    -0.253 OA
ATOM     20  N   UNL     1      -3.049  -6.924  -6.396  0.00  0.00    -0.278 N 
ATOM     21  C   UNL     1      -1.649  -6.479  -6.480  0.00  0.00    +0.137 C 
ATOM     22  C   UNL     1      -1.396  -5.939  -7.892  0.00  0.00    +0.179 C 
ATOM     23  O   UNL     1      -1.810  -6.916  -8.851  0.00  0.00    -0.376 OA
ATOM     24  C   UNL     1      -3.207  -7.220  -8.810  0.00  0.00    +0.182 C 
ATOM     25  C   UNL     1      -3.550  -7.830  -7.442  0.00  0.00    +0.100 C 
ATOM     26  C   UNL     1      -5.067  -7.980  -7.309  0.00  0.00    +0.030 C 
ATOM     27  H   UNL     1      -2.542  -5.175  -4.641  0.00  0.00    +0.151 HD
ENDBRANCH  16  17
ENDBRANCH  12  16
TORSDOF 2
