REMARK  Name = ZINC05458660
REMARK  6 active torsions:
REMARK  status: ('A' for Active; 'I' for Inactive)
REMARK    1  A    between atoms: C_1  and  O_2
REMARK    2  A    between atoms: O_2  and  C_3
REMARK    3  A    between atoms: C_6  and  C_11
REMARK    4  A    between atoms: C_8  and  O_9
REMARK    5  A    between atoms: O_9  and  C_10
REMARK    6  A    between atoms: C_14  and  C_26
REMARK                            x       y       z     vdW  Elec       q    Type
REMARK                         _______ _______ _______ _____ _____    ______ ____
ROOT
ATOM      1  C   UNL     1       2.507  -2.501  -4.386  0.00  0.00    +0.122 C 
ATOM      2  C   UNL     1       1.806  -2.081  -5.683  0.00  0.00    +0.057 C 
ATOM      3  C   UNL     1       2.634  -2.537  -6.890  0.00  0.00    +0.106 C 
ATOM      4  N   UNL     1       3.936  -1.845  -6.854  0.00  0.00    -0.309 N 
ATOM      5  C   UNL     1       4.566  -1.779  -5.620  0.00  0.00    +0.175 A 
ATOM      6  N   UNL     1       3.912  -2.088  -4.448  0.00  0.00    -0.306 N 
ATOM      7  C   UNL     1       4.811  -1.930  -3.430  0.00  0.00    +0.069 A 
ATOM      8  C   UNL     1       4.717  -2.099  -2.054  0.00  0.00    +0.028 A 
ATOM      9  C   UNL     1       5.856  -1.842  -1.307  0.00  0.00    +0.002 A 
ATOM     10  C   UNL     1       7.042  -1.435  -1.894  0.00  0.00    +0.002 A 
ATOM     11  C   UNL     1       7.160  -1.259  -3.261  0.00  0.00    +0.028 A 
ATOM     12  C   UNL     1       6.023  -1.514  -4.035  0.00  0.00    +0.065 A 
ATOM     13  N   UNL     1       5.802  -1.439  -5.367  0.00  0.00    -0.327 N 
ATOM     14  H   UNL     1       4.331  -1.458  -7.651  0.00  0.00    +0.149 HD
ATOM     15  H   UNL     1       6.459  -1.178  -6.032  0.00  0.00    +0.169 HD
ENDROOT
BRANCH   3  16
ATOM     16  C   UNL     1       2.846  -4.027  -6.824  0.00  0.00    -0.027 A 
ATOM     17  C   UNL     1       3.822  -4.550  -5.996  0.00  0.00    +0.007 A 
ATOM     18  C   UNL     1       4.017  -5.917  -5.936  0.00  0.00    +0.020 A 
ATOM     19  C   UNL     1       3.236  -6.762  -6.704  0.00  0.00    +0.041 A 
ATOM     20  C   UNL     1       2.260  -6.238  -7.532  0.00  0.00    +0.020 A 
ATOM     21  C   UNL     1       2.061  -4.871  -7.587  0.00  0.00    +0.007 A 
ATOM     22 CL   UNL     1       3.481  -8.479  -6.628  0.00  0.00    -0.084 Cl
ENDBRANCH   3  16
BRANCH   1  26
ATOM     23  C   UNL     1       0.606  -0.608  -1.056  0.00  0.00    +0.162 A 
ATOM     24  C   UNL     1       1.173   0.159  -2.062  0.00  0.00    +0.050 A 
ATOM     25  C   UNL     1       1.787  -0.456  -3.137  0.00  0.00    +0.009 A 
ATOM     26  C   UNL     1       1.837  -1.836  -3.212  0.00  0.00    -0.021 A 
ATOM     27  C   UNL     1       1.273  -2.606  -2.212  0.00  0.00    +0.055 A 
ATOM     28  C   UNL     1       0.662  -1.996  -1.129  0.00  0.00    +0.162 A 
BRANCH  23  30
ATOM     29  C   UNL     1      -0.017   1.425   0.010  0.00  0.00    +0.277 C 
ATOM     30  O   UNL     1       0.002  -0.004   0.002  0.00  0.00    -0.491 OA
ENDBRANCH  23  30
BRANCH  28  31
ATOM     31  O   UNL     1       0.112  -2.753  -0.142  0.00  0.00    -0.491 OA
ATOM     32  C   UNL     1       0.206  -4.171  -0.283  0.00  0.00    +0.277 C 
ENDBRANCH  28  31
ENDBRANCH   1  26
TORSDOF 4
