REMARK  Name = ZINC13556655
REMARK  8 active torsions:
REMARK  status: ('A' for Active; 'I' for Inactive)
REMARK    1  A    between atoms: C_1  and  O_2
REMARK    2  A    between atoms: O_2  and  C_3
REMARK    3  A    between atoms: C_6  and  C_9
REMARK    4  A    between atoms: C_9  and  C_10
REMARK    5  A    between atoms: C_10  and  N_12
REMARK    6  A    between atoms: N_14  and  C_25
REMARK    7  A    between atoms: C_28  and  O_31
REMARK    8  A    between atoms: O_31  and  C_32
REMARK                            x       y       z     vdW  Elec       q    Type
REMARK                         _______ _______ _______ _____ _____    ______ ____
ROOT
ATOM      1  N   UNL     1       1.829  -2.544   6.839  0.00  0.00    -0.159 NA
ATOM      2  C   UNL     1       0.929  -3.101   7.641  0.00  0.00    +0.154 C 
ATOM      3  N   UNL     1      -0.434  -3.100   7.505  0.00  0.00    -0.276 N 
ATOM      4  C   UNL     1      -1.248  -3.419   8.650  0.00  0.00    +0.116 C 
ATOM      5  C   UNL     1      -2.363  -2.408   8.918  0.00  0.00    +0.190 C 
ATOM      6  S   UNL     1      -1.883  -1.654  10.522  0.00  0.00    -0.028 S 
ATOM      7  O   UNL     1      -1.557  -0.287  10.309  0.00  0.00    -0.174 OA
ATOM      8  O   UNL     1      -2.856  -1.995  11.500  0.00  0.00    -0.174 OA
ATOM      9  C   UNL     1      -0.340  -2.587  10.867  0.00  0.00    +0.182 C 
ATOM     10  C   UNL     1      -0.448  -3.783   9.912  0.00  0.00    +0.097 C 
ATOM     11  S   UNL     1       1.218  -4.030   9.140  0.00  0.00    -0.086 S 
ENDROOT
BRANCH   3  12
ATOM     12  C   UNL     1      -1.026  -2.793   6.274  0.00  0.00    +0.036 A 
ATOM     13  C   UNL     1      -1.489  -1.508   6.026  0.00  0.00    +0.027 A 
ATOM     14  C   UNL     1      -2.072  -1.206   4.811  0.00  0.00    +0.047 A 
ATOM     15  C   UNL     1      -2.197  -2.188   3.839  0.00  0.00    +0.120 A 
ATOM     16  C   UNL     1      -1.736  -3.472   4.086  0.00  0.00    +0.047 A 
ATOM     17  C   UNL     1      -1.146  -3.774   5.298  0.00  0.00    +0.027 A 
BRANCH  15  18
ATOM     18  O   UNL     1      -2.772  -1.890   2.643  0.00  0.00    -0.495 OA
ATOM     19  C   UNL     1      -2.868  -2.949   1.688  0.00  0.00    +0.277 C 
ENDBRANCH  15  18
ENDBRANCH   3  12
BRANCH   1  20
ATOM     20  C   UNL     1       1.454  -2.039   5.667  0.00  0.00    +0.243 C 
ATOM     21  O   UNL     1       0.829  -2.725   4.881  0.00  0.00    -0.273 OA
BRANCH  20  22
ATOM     22  C   UNL     1       1.803  -0.617   5.313  0.00  0.00    +0.133 C 
BRANCH  22  26
ATOM     23  C   UNL     1       0.537   0.210   1.316  0.00  0.00    +0.120 A 
ATOM     24  C   UNL     1      -0.244   0.613   2.389  0.00  0.00    +0.046 A 
ATOM     25  C   UNL     1       0.167   0.344   3.680  0.00  0.00    +0.007 A 
ATOM     26  C   UNL     1       1.356  -0.325   3.903  0.00  0.00    -0.038 A 
ATOM     27  C   UNL     1       2.136  -0.728   2.835  0.00  0.00    +0.007 A 
ATOM     28  C   UNL     1       1.726  -0.467   1.542  0.00  0.00    +0.046 A 
BRANCH  23  30
ATOM     29  C   UNL     1      -1.102   1.173  -0.113  0.00  0.00    +0.277 C 
ATOM     30  O   UNL     1       0.134   0.472   0.045  0.00  0.00    -0.495 OA
ENDBRANCH  23  30
ENDBRANCH  22  26
ENDBRANCH  20  22
ENDBRANCH   1  20
TORSDOF 6
