REMARK  Name = ZINC02839653
REMARK  3 active torsions:
REMARK  status: ('A' for Active; 'I' for Inactive)
REMARK    1  A    between atoms: C_1  and  C_2
REMARK    2  A    between atoms: C_19  and  C_23
REMARK    3  A    between atoms: C_20  and  N_22
REMARK                            x       y       z     vdW  Elec       q    Type
REMARK                         _______ _______ _______ _____ _____    ______ ____
ROOT
ATOM      1  C   UNL     1      -5.486   3.733  -4.705  0.00  0.00    +0.086 C 
ATOM      2  C   UNL     1      -4.658   3.835  -3.450  0.00  0.00    +0.110 A 
ATOM      3  C   UNL     1      -5.190   3.422  -2.286  0.00  0.00    +0.088 A 
ATOM      4  C   UNL     1      -4.426   3.511  -1.100  0.00  0.00    +0.145 A 
ATOM      5  C   UNL     1      -3.147   4.024  -1.184  0.00  0.00    +0.104 A 
ATOM      6  C   UNL     1      -2.663   4.433  -2.432  0.00  0.00    +0.345 A 
ATOM      7  O   UNL     1      -1.534   4.888  -2.518  0.00  0.00    -0.245 OA
ATOM      8  O   UNL     1      -3.420   4.332  -3.533  0.00  0.00    -0.427 OA
ATOM      9  C   UNL     1      -2.291   4.139   0.043  0.00  0.00    +0.148 C 
ATOM     10  C   UNL     1      -1.196   3.118   0.029  0.00  0.00    -0.001 A 
ATOM     11  C   UNL     1      -1.234   1.740   0.017  0.00  0.00    +0.007 A 
ATOM     12  C   UNL     1      -0.013   1.076   0.008  0.00  0.00    +0.000 A 
ATOM     13  C   UNL     1       1.181   1.768   0.000  0.00  0.00    +0.002 A 
ATOM     14  C   UNL     1       1.227   3.153   0.007  0.00  0.00    +0.023 A 
ATOM     15  C   UNL     1       0.008   3.832   0.022  0.00  0.00    +0.038 A 
ATOM     16  N   UNL     1      -0.240   5.193   0.031  0.00  0.00    -0.284 N 
ATOM     17  C   UNL     1      -1.562   5.467   0.044  0.00  0.00    +0.238 C 
ATOM     18  O   UNL     1      -2.069   6.568   0.054  0.00  0.00    -0.274 OA
ATOM     19  C   UNL     1      -3.127   4.012   1.285  0.00  0.00    +0.110 C 
ATOM     20  C   UNL     1      -4.384   3.511   1.232  0.00  0.00    +0.199 C 
ATOM     21  O   UNL     1      -4.940   3.104   0.077  0.00  0.00    -0.441 OA
ATOM     22  H   UNL     1       0.454   5.871   0.028  0.00  0.00    +0.155 HD
ENDROOT
BRANCH  20  23
ATOM     23  N   UNL     1      -5.112   3.415   2.392  0.00  0.00    -0.328 N 
ATOM     24  H   UNL     1      -6.014   3.058   2.370  0.00  0.00    +0.145 HD
ATOM     25  H   UNL     1      -4.725   3.705   3.233  0.00  0.00    +0.145 HD
ENDBRANCH  20  23
BRANCH  19  26
ATOM     26  C   UNL     1      -2.586   4.429   2.544  0.00  0.00    +0.102 C 
ATOM     27  N   UNL     1      -2.157   4.759   3.542  0.00  0.00    -0.191 NA
ENDBRANCH  19  26
TORSDOF 2
