REMARK  Name = ZINC66402599
REMARK  5 active torsions:
REMARK  status: ('A' for Active; 'I' for Inactive)
REMARK    1  A    between atoms: C_1  and  C_2
REMARK    2  A    between atoms: C_2  and  C_4
REMARK    3  A    between atoms: C_2  and  N_15
REMARK    4  A    between atoms: N_18  and  C_19
REMARK    5  A    between atoms: C_21  and  C_27
REMARK                            x       y       z     vdW  Elec       q    Type
REMARK                         _______ _______ _______ _____ _____    ______ ____
ROOT
ATOM      1  N   UNL     1       0.657  -0.647   1.154  0.00  0.00    -0.293 N 
ATOM      2  C   UNL     1       0.010  -0.797   2.327  0.00  0.00    +0.304 C 
ATOM      3  O   UNL     1      -1.199  -0.676   2.374  0.00  0.00    -0.252 OA
ATOM      4  N   UNL     1       0.703  -1.080   3.447  0.00  0.00    -0.265 N 
ATOM      5  H   UNL     1       1.621  -0.743   1.116  0.00  0.00    +0.151 HD
ATOM      6  H   UNL     1       1.657  -1.249   3.398  0.00  0.00    +0.157 HD
ENDROOT
BRANCH   4   7
ATOM      7  C   UNL     1       0.045  -1.131   4.685  0.00  0.00    +0.100 A 
ATOM      8  C   UNL     1       0.075  -2.272   5.438  0.00  0.00    +0.042 A 
ATOM      9  C   UNL     1      -0.591  -2.295   6.672  0.00  0.00    +0.073 A 
ATOM     10  C   UNL     1      -1.252  -1.198   7.105  0.00  0.00    +0.098 A 
ATOM     11  N   UNL     1      -1.283  -0.063   6.358  0.00  0.00    -0.327 N 
ATOM     12  H   UNL     1      -1.763   0.714   6.685  0.00  0.00    +0.168 HD
ATOM     13  C   UNL     1      -0.650  -0.002   5.170  0.00  0.00    +0.270 A 
ATOM     14  O   UNL     1      -0.683   1.026   4.513  0.00  0.00    -0.266 OA
BRANCH   9  15
ATOM     15  C   UNL     1      -0.569  -3.544   7.516  0.00  0.00    +0.419 C 
ATOM     16  F   UNL     1      -1.296  -3.325   8.691  0.00  0.00    -0.166 F 
ATOM     17  F   UNL     1      -1.145  -4.600   6.801  0.00  0.00    -0.166 F 
ATOM     18  F   UNL     1       0.753  -3.866   7.839  0.00  0.00    -0.166 F 
ENDBRANCH   9  15
ENDBRANCH   4   7
BRANCH   1  20
ATOM     19  C   UNL     1      -0.316   1.172  -0.160  0.00  0.00    +0.033 C 
ATOM     20  C   UNL     1      -0.097  -0.339  -0.064  0.00  0.00    +0.102 C 
BRANCH  20  21
ATOM     21  C   UNL     1       0.678  -0.811  -1.267  0.00  0.00    -0.025 A 
ATOM     22  C   UNL     1       2.051  -0.654  -1.308  0.00  0.00    +0.009 A 
ATOM     23  C   UNL     1       2.770  -1.086  -2.408  0.00  0.00    +0.048 A 
ATOM     24  C   UNL     1       2.113  -1.677  -3.472  0.00  0.00    +0.142 A 
ATOM     25  C   UNL     1       0.728  -1.835  -3.432  0.00  0.00    +0.076 A 
ATOM     26  C   UNL     1       0.015  -1.406  -2.325  0.00  0.00    +0.032 A 
ATOM     27  N   UNL     1       0.074  -2.433  -4.518  0.00  0.00    -0.280 N 
ATOM     28  C   UNL     1       0.804  -3.121  -5.423  0.00  0.00    +0.255 C 
ATOM     29  O   UNL     1       0.264  -3.620  -6.388  0.00  0.00    -0.272 OA
ATOM     30  C   UNL     1       2.292  -3.264  -5.231  0.00  0.00    +0.325 C 
ATOM     31  O   UNL     1       2.804  -2.109  -4.561  0.00  0.00    -0.481 OA
ATOM     32  H   UNL     1      -0.887  -2.356  -4.617  0.00  0.00    +0.155 HD
ENDBRANCH  20  21
ENDBRANCH   1  20
TORSDOF 4
