REMARK  Name = ZINC02095706
REMARK  9 active torsions:
REMARK  status: ('A' for Active; 'I' for Inactive)
REMARK    1  A    between atoms: C_1  and  C_2
REMARK    2  A    between atoms: C_2  and  C_3
REMARK    3  A    between atoms: C_6  and  N_9
REMARK    4  A    between atoms: C_10  and  C_12
REMARK    5  A    between atoms: C_12  and  C_14
REMARK    6  A    between atoms: C_12  and  N_18
REMARK    7  A    between atoms: C_14  and  C_15
REMARK    8  A    between atoms: C_15  and  S_16
REMARK    9  A    between atoms: S_16  and  C_17
REMARK                            x       y       z     vdW  Elec       q    Type
REMARK                         _______ _______ _______ _____ _____    ______ ____
ROOT
ATOM      1  N   UNL     1      -2.273   5.718   7.045  0.00  0.00    -0.288 N 
ATOM      2  C   UNL     1      -2.271   6.029   8.357  0.00  0.00    +0.303 C 
ATOM      3  O   UNL     1      -2.700   5.234   9.171  0.00  0.00    -0.253 OA
ATOM      4  N   UNL     1      -1.794   7.222   8.766  0.00  0.00    -0.285 N 
ATOM      5  C   UNL     1      -1.168   8.146   7.813  0.00  0.00    +0.114 C 
ATOM      6  C   UNL     1       0.180   8.616   8.343  0.00  0.00    +0.027 C 
ATOM      7  C   UNL     1       0.059   9.120   9.781  0.00  0.00    +0.018 C 
ATOM      8  C   UNL     1      -0.470   7.978  10.652  0.00  0.00    +0.054 C 
ATOM      9  C   UNL     1      -1.896   7.628  10.176  0.00  0.00    +0.119 C 
ATOM     10  C   UNL     1       0.393   6.752  10.464  0.00  0.00    +0.027 A 
ATOM     11  C   UNL     1       0.420   5.846  11.477  0.00  0.00    +0.022 A 
ATOM     12  C   UNL     1       1.089   4.627  11.323  0.00  0.00    +0.007 A 
ATOM     13  C   UNL     1       1.701   4.357  10.134  0.00  0.00    +0.070 A 
ATOM     14  C   UNL     1       1.666   5.319   9.115  0.00  0.00    +0.251 A 
ATOM     15  O   UNL     1       2.172   5.069   8.032  0.00  0.00    -0.268 OA
ATOM     16  N   UNL     1       1.076   6.522   9.318  0.00  0.00    -0.312 N 
ATOM     17  C   UNL     1       1.233   7.526   8.266  0.00  0.00    +0.130 C 
ATOM     18  H   UNL     1      -1.861   6.318   6.404  0.00  0.00    +0.151 HD
ENDROOT
BRANCH   1  19
ATOM     19  C   UNL     1      -2.896   4.473   6.588  0.00  0.00    +0.161 C 
BRANCH  19  21
ATOM     20  N   UNL     1      -2.690   2.923   4.672  0.00  0.00    -0.284 N 
ATOM     21  C   UNL     1      -2.272   4.048   5.284  0.00  0.00    +0.238 C 
ATOM     22  O   UNL     1      -1.393   4.719   4.785  0.00  0.00    -0.273 OA
ATOM     23  H   UNL     1      -3.442   2.426   5.032  0.00  0.00    +0.155 HD
BRANCH  20  27
ATOM     24  C   UNL     1      -0.756   1.578   1.236  0.00  0.00    -0.048 A 
ATOM     25  C   UNL     1      -2.117   1.385   1.382  0.00  0.00    +0.005 A 
ATOM     26  C   UNL     1      -2.760   1.824   2.522  0.00  0.00    +0.023 A 
ATOM     27  C   UNL     1      -2.040   2.471   3.518  0.00  0.00    +0.033 A 
ATOM     28  C   UNL     1      -0.674   2.668   3.367  0.00  0.00    +0.023 A 
ATOM     29  C   UNL     1      -0.036   2.222   2.226  0.00  0.00    +0.005 A 
BRANCH  24  31
ATOM     30  C   UNL     1       0.435  -0.340   0.211  0.00  0.00    +0.009 C 
ATOM     31  C   UNL     1      -0.056   1.092  -0.007  0.00  0.00    +0.032 C 
ENDBRANCH  24  31
ENDBRANCH  20  27
ENDBRANCH  19  21
BRANCH  19  32
ATOM     32  C   UNL     1      -4.396   4.698   6.387  0.00  0.00    +0.042 C 
BRANCH  32  33
ATOM     33  C   UNL     1      -5.051   5.008   7.734  0.00  0.00    +0.071 C 
BRANCH  33  34
ATOM     34  S   UNL     1      -6.829   5.274   7.495  0.00  0.00    -0.164 S 
ATOM     35  C   UNL     1      -7.448   5.625   9.164  0.00  0.00    +0.084 C 
ENDBRANCH  33  34
ENDBRANCH  32  33
ENDBRANCH  19  32
ENDBRANCH   1  19
TORSDOF 7
