REMARK  Name = ZINC08889050
REMARK  10 active torsions:
REMARK  status: ('A' for Active; 'I' for Inactive)
REMARK    1  A    between atoms: C_1  and  C_2
REMARK    2  A    between atoms: C_2  and  C_3
REMARK    3  A    between atoms: C_3  and  C_5
REMARK    4  A    between atoms: C_3  and  N_12
REMARK    5  A    between atoms: C_13  and  C_15
REMARK    6  A    between atoms: C_15  and  N_16
REMARK    7  A    between atoms: C_19  and  C_23
REMARK    8  A    between atoms: C_19  and  C_24
REMARK    9  A    between atoms: C_27  and  O_30
REMARK   10  A    between atoms: O_30  and  C_31
REMARK                            x       y       z     vdW  Elec       q    Type
REMARK                         _______ _______ _______ _____ _____    ______ ____
ROOT
ATOM      1  N   UNL     1      -5.407   1.725  -0.031  0.00  0.00    -0.215 N 
ATOM      2  C   UNL     1      -5.662   1.522  -1.339  0.00  0.00    +0.251 C 
ATOM      3  O   UNL     1      -5.175   0.676  -2.057  0.00  0.00    -0.272 OA
ATOM      4  C   UNL     1      -6.685   2.573  -1.724  0.00  0.00    +0.135 C 
ATOM      5  N   UNL     1      -6.908   3.315  -0.471  0.00  0.00    -0.281 N 
ATOM      6  C   UNL     1      -6.122   2.744   0.459  0.00  0.00    +0.310 C 
ATOM      7  O   UNL     1      -6.066   3.114   1.615  0.00  0.00    -0.252 OA
ATOM      8  C   UNL     1      -6.126   3.496  -2.809  0.00  0.00    +0.047 C 
ATOM      9  H   UNL     1      -7.507   4.066  -0.342  0.00  0.00    +0.152 HD
ENDROOT
BRANCH   4  10
ATOM     10  C   UNL     1      -7.962   1.923  -2.190  0.00  0.00    -0.015 A 
ATOM     11  C   UNL     1      -7.922   0.687  -2.809  0.00  0.00    +0.010 A 
ATOM     12  C   UNL     1      -9.092   0.087  -3.232  0.00  0.00    +0.046 A 
ATOM     13  C   UNL     1     -10.307   0.730  -3.045  0.00  0.00    +0.120 A 
ATOM     14  C   UNL     1     -10.344   1.972  -2.429  0.00  0.00    +0.046 A 
ATOM     15  C   UNL     1      -9.172   2.566  -2.003  0.00  0.00    +0.010 A 
BRANCH  13  16
ATOM     16  O   UNL     1     -11.459   0.144  -3.465  0.00  0.00    -0.495 OA
ATOM     17  C   UNL     1     -11.345  -1.135  -4.091  0.00  0.00    +0.277 C 
ENDBRANCH  13  16
ENDBRANCH   4  10
BRANCH   1  18
ATOM     18  C   UNL     1      -4.466   0.925   0.757  0.00  0.00    +0.213 C 
BRANCH  18  20
ATOM     19  N   UNL     1      -2.062   0.977   1.338  0.00  0.00    -0.307 N 
ATOM     20  C   UNL     1      -3.095   1.545   0.684  0.00  0.00    +0.231 C 
ATOM     21  O   UNL     1      -2.920   2.556   0.037  0.00  0.00    -0.274 OA
ATOM     22  H   UNL     1      -2.202   0.168   1.856  0.00  0.00    +0.149 HD
BRANCH  19  23
ATOM     23  C   UNL     1      -0.729   1.579   1.267  0.00  0.00    +0.103 C 
BRANCH  23  24
ATOM     24  C   UNL     1       0.067   1.185   2.485  0.00  0.00    -0.027 A 
ATOM     25  C   UNL     1      -0.027  -0.101   2.984  0.00  0.00    +0.006 A 
ATOM     26  C   UNL     1       0.706  -0.465   4.098  0.00  0.00    +0.015 A 
ATOM     27  C   UNL     1       1.525   0.461   4.719  0.00  0.00    +0.018 A 
ATOM     28  C   UNL     1       1.614   1.749   4.223  0.00  0.00    +0.015 A 
ATOM     29  C   UNL     1       0.884   2.110   3.105  0.00  0.00    +0.006 A 
ATOM     30 BR   UNL     1       2.523  -0.034   6.247  0.00  0.00    -0.050 Br
ENDBRANCH  23  24
BRANCH  23  32
ATOM     31  C   UNL     1      -0.753   1.593  -1.232  0.00  0.00    +0.006 C 
ATOM     32  C   UNL     1      -0.013   1.086   0.008  0.00  0.00    +0.024 C 
ENDBRANCH  23  32
ENDBRANCH  19  23
ENDBRANCH  18  20
ENDBRANCH   1  18
TORSDOF 7
