REMARK  Name = ZINC36809426
REMARK  4 active torsions:
REMARK  status: ('A' for Active; 'I' for Inactive)
REMARK    1  A    between atoms: C_1  and  C_2
REMARK    2  A    between atoms: C_6  and  N_23
REMARK    3  A    between atoms: C_7  and  S_8
REMARK    4  A    between atoms: S_8  and  N_11
REMARK                            x       y       z     vdW  Elec       q    Type
REMARK                         _______ _______ _______ _____ _____    ______ ____
ROOT
ATOM      1  S   UNL     1       0.705  -0.255   2.864  0.00  0.00    +0.063 S 
ATOM      2  O   UNL     1       1.381  -1.283   3.576  0.00  0.00    -0.153 OA
ATOM      3  O   UNL     1       1.275   1.031   2.660  0.00  0.00    -0.153 OA
ENDROOT
BRANCH   1   4
ATOM      4  N   UNL     1      -0.740  -0.016   3.635  0.00  0.00    -0.176 NA
ATOM      5  C   UNL     1      -1.389   1.302   3.619  0.00  0.00    +0.110 C 
ATOM      6  C   UNL     1      -2.822   1.138   3.104  0.00  0.00    +0.021 C 
ATOM      7  C   UNL     1      -3.550   0.092   3.952  0.00  0.00    -0.005 C 
ATOM      8  C   UNL     1      -4.991  -0.046   3.453  0.00  0.00    +0.004 C 
ATOM      9  C   UNL     1      -5.725  -1.093   4.292  0.00  0.00    +0.000 C 
ATOM     10  C   UNL     1      -5.011  -2.440   4.161  0.00  0.00    +0.000 C 
ATOM     11  C   UNL     1      -3.573  -2.304   4.664  0.00  0.00    +0.005 C 
ATOM     12  C   UNL     1      -2.834  -1.254   3.830  0.00  0.00    +0.008 C 
ATOM     13  C   UNL     1      -1.403  -1.119   4.343  0.00  0.00    +0.113 C 
ENDBRANCH   1   4
BRANCH   1  20
ATOM     14  C   UNL     1       0.325   1.437   0.387  0.00  0.00    +0.046 C 
ATOM     15  C   UNL     1       0.186  -0.051   0.193  0.00  0.00    -0.022 A 
ATOM     16  C   UNL     1      -0.093  -0.560  -1.063  0.00  0.00    +0.005 A 
ATOM     17  C   UNL     1      -0.222  -1.925  -1.246  0.00  0.00    +0.002 A 
ATOM     18  C   UNL     1      -0.072  -2.784  -0.175  0.00  0.00    +0.025 A 
ATOM     19  C   UNL     1       0.209  -2.276   1.087  0.00  0.00    +0.051 A 
ATOM     20  C   UNL     1       0.343  -0.905   1.266  0.00  0.00    +0.129 A 
BRANCH  19  21
ATOM     21  N   UNL     1       0.361  -3.142   2.172  0.00  0.00    -0.356 N 
ATOM     22  H   UNL     1       0.480  -4.093   2.021  0.00  0.00    +0.142 HD
ATOM     23  H   UNL     1       0.348  -2.792   3.077  0.00  0.00    +0.142 HD
ENDBRANCH  19  21
ENDBRANCH   1  20
TORSDOF 3
