REMARK  Name = ZINC06932174
REMARK  6 active torsions:
REMARK  status: ('A' for Active; 'I' for Inactive)
REMARK    1  A    between atoms: C_1  and  C_2
REMARK    2  A    between atoms: C_3  and  C_10
REMARK    3  A    between atoms: C_5  and  C_8
REMARK    4  A    between atoms: N_6  and  C_7
REMARK    5  A    between atoms: N_11  and  N_12
REMARK    6  A    between atoms: C_13  and  C_15
REMARK                            x       y       z     vdW  Elec       q    Type
REMARK                         _______ _______ _______ _____ _____    ______ ____
ROOT
ATOM      1  N   UNL     1       0.002  -0.004   0.002  0.00  0.00    -0.203 N 
ATOM      2  C   UNL     1      -1.156  -0.694   0.009  0.00  0.00    +0.270 C 
ATOM      3  O   UNL     1      -2.218  -0.099   0.023  0.00  0.00    -0.268 OA
ATOM      4  H   UNL     1       0.849  -0.478  -0.009  0.00  0.00    +0.178 HD
ENDROOT
BRANCH   2   5
ATOM      5  C   UNL     1      -1.136  -2.159   0.001  0.00  0.00    +0.076 A 
ATOM      6  C   UNL     1      -2.197  -3.046   0.007  0.00  0.00    +0.024 A 
ATOM      7  C   UNL     1      -1.916  -4.402  -0.003  0.00  0.00    -0.036 A 
ATOM      8  C   UNL     1      -0.597  -4.757  -0.017  0.00  0.00    -0.006 A 
ATOM      9  S   UNL     1       0.264  -3.266  -0.026  0.00  0.00    -0.088 S 
ATOM     10  C   UNL     1      -0.036  -6.146  -0.029  0.00  0.00    +0.043 C 
ATOM     11  C   UNL     1      -1.156  -7.124   0.352  0.00  0.00    +0.005 C 
ATOM     12  C   UNL     1      -2.401  -6.793  -0.475  0.00  0.00    +0.005 C 
ATOM     13  C   UNL     1      -3.006  -5.471   0.000  0.00  0.00    +0.036 C 
ENDBRANCH   2   5
BRANCH   1  15
ATOM     14  C   UNL     1       1.098   2.061   0.003  0.00  0.00    +0.140 C 
ATOM     15  N   UNL     1      -0.017   1.397   0.010  0.00  0.00    -0.187 NA
BRANCH  14  18
ATOM     16  C   UNL     1      -1.472   3.861   0.035  0.00  0.00    +0.064 C 
ATOM     17  C   UNL     1      -0.043   4.340   0.026  0.00  0.00    +0.025 A 
ATOM     18  C   UNL     1       1.078   3.536   0.011  0.00  0.00    +0.016 A 
ATOM     19  C   UNL     1       2.203   4.390   0.011  0.00  0.00    +0.048 A 
ATOM     20  C   UNL     1       1.734   5.672   0.017  0.00  0.00    +0.121 A 
ATOM     21  N   UNL     1       0.358   5.628   0.030  0.00  0.00    -0.339 N 
ATOM     22  C   UNL     1      -0.528   6.794   0.045  0.00  0.00    +0.149 C 
BRANCH  20  23
ATOM     23  C   UNL     1       2.535   6.859   0.017  0.00  0.00    +0.117 C 
ATOM     24  N   UNL     1       3.171   7.800   0.017  0.00  0.00    -0.189 NA
ENDBRANCH  20  23
ENDBRANCH  14  18
ENDBRANCH   1  15
TORSDOF 4
