REMARK  Name = ZINC35526237
REMARK  6 active torsions:
REMARK  status: ('A' for Active; 'I' for Inactive)
REMARK    1  A    between atoms: C_1  and  C_2
REMARK    2  A    between atoms: C_2  and  C_3
REMARK    3  A    between atoms: C_3  and  C_4
REMARK    4  A    between atoms: N_14  and  C_17
REMARK    5  A    between atoms: C_17  and  C_18
REMARK    6  A    between atoms: C_25  and  C_27
REMARK                            x       y       z     vdW  Elec       q    Type
REMARK                         _______ _______ _______ _____ _____    ______ ____
ROOT
ATOM      1  C   UNL     1      -1.406  -2.242   0.104  0.00  0.00    +0.132 A 
ATOM      2  N   UNL     1      -1.401  -2.844  -1.072  0.00  0.00    -0.217 NA
ATOM      3  C   UNL     1      -1.336  -4.161  -1.189  0.00  0.00    +0.133 A 
ATOM      4  C   UNL     1      -1.268  -4.958  -0.013  0.00  0.00    +0.051 A 
ATOM      5  C   UNL     1      -1.191  -6.413   0.106  0.00  0.00    -0.022 A 
ATOM      6  C   UNL     1      -1.136  -6.925   1.354  0.00  0.00    +0.010 A 
ATOM      7  S   UNL     1      -1.181  -5.521   2.432  0.00  0.00    -0.072 S 
ATOM      8  C   UNL     1      -1.276  -4.245   1.203  0.00  0.00    +0.114 A 
ATOM      9  N   UNL     1      -1.338  -2.927   1.228  0.00  0.00    -0.225 NA
ATOM     10  C   UNL     1      -1.057  -8.375   1.722  0.00  0.00    +0.127 C 
ATOM     11  N   UNL     1      -1.406  -9.173   0.531  0.00  0.00    -0.298 NA
ATOM     12  C   UNL     1      -0.649  -8.712  -0.641  0.00  0.00    +0.089 C 
ATOM     13  C   UNL     1      -1.171  -7.348  -1.101  0.00  0.00    +0.052 C 
ATOM     14  N   UNL     1      -1.334  -4.753  -2.439  0.00  0.00    -0.312 N 
ATOM     15  C   UNL     1      -2.586  -5.235  -3.040  0.00  0.00    +0.125 C 
ATOM     16  C   UNL     1      -2.753  -4.580  -4.416  0.00  0.00    +0.127 C 
ATOM     17  N   UNL     1      -1.500  -4.738  -5.167  0.00  0.00    -0.292 N 
ATOM     18  C   UNL     1      -0.248  -4.256  -4.566  0.00  0.00    +0.127 C 
ATOM     19  C   UNL     1      -0.082  -4.907  -3.192  0.00  0.00    +0.125 C 
ATOM     20  C   UNL     1      -1.498  -5.316  -6.385  0.00  0.00    +0.282 C 
ATOM     21  O   UNL     1      -0.444  -5.550  -6.946  0.00  0.00    -0.267 OA
ENDROOT
BRANCH  20  22
ATOM     22  C   UNL     1      -2.767  -5.662  -7.034  0.00  0.00    +0.189 A 
ATOM     23  C   UNL     1      -2.908  -6.373  -8.191  0.00  0.00    +0.054 A 
ATOM     24  C   UNL     1      -4.286  -6.468  -8.441  0.00  0.00    +0.042 A 
ATOM     25  C   UNL     1      -4.917  -5.819  -7.437  0.00  0.00    +0.196 A 
ATOM     26  O   UNL     1      -3.999  -5.340  -6.589  0.00  0.00    -0.458 OA
ENDBRANCH  20  22
BRANCH  11  27
ATOM     27  C   UNL     1      -1.182 -10.604   0.773  0.00  0.00    +0.081 C 
ATOM     28  C   UNL     1      -2.158 -11.100   1.842  0.00  0.00    +0.020 C 
ENDBRANCH  11  27
BRANCH   1  29
ATOM     29  C   UNL     1      -1.483  -0.738   0.161  0.00  0.00    +0.076 C 
BRANCH  29  31
ATOM     30  C   UNL     1      -0.147   1.373   0.198  0.00  0.00    +0.004 C 
ATOM     31  C   UNL     1      -0.069  -0.153   0.140  0.00  0.00    +0.004 C 
ENDBRANCH  29  31
ENDBRANCH   1  29
TORSDOF 4
