REMARK  Name = ZINC67487812
REMARK  5 active torsions:
REMARK  status: ('A' for Active; 'I' for Inactive)
REMARK    1  A    between atoms: C_1  and  C_2
REMARK    2  A    between atoms: C_5  and  N_9
REMARK    3  A    between atoms: N_12  and  C_13
REMARK    4  A    between atoms: C_13  and  C_15
REMARK    5  A    between atoms: C_13  and  C_16
REMARK                            x       y       z     vdW  Elec       q    Type
REMARK                         _______ _______ _______ _____ _____    ______ ____
ROOT
ATOM      1  N   UNL     1       0.060  -4.159  -0.005  0.00  0.00    -0.269 N 
ATOM      2  C   UNL     1       0.182  -4.846   1.148  0.00  0.00    +0.304 C 
ATOM      3  O   UNL     1       0.194  -4.254   2.210  0.00  0.00    -0.252 OA
ATOM      4  N   UNL     1       0.291  -6.189   1.124  0.00  0.00    -0.288 N 
ATOM      5  H   UNL     1      -0.014  -4.634  -0.847  0.00  0.00    +0.156 HD
ATOM      6  H   UNL     1       0.281  -6.661   0.277  0.00  0.00    +0.151 HD
ENDROOT
BRANCH   1  11
ATOM      7  C   UNL     1      -0.019   1.515   0.063  0.00  0.00    +0.047 C 
ATOM      8  C   UNL     1       0.002   0.008   0.045  0.00  0.00    -0.015 A 
ATOM      9  C   UNL     1       0.604  -0.662  -1.004  0.00  0.00    +0.008 A 
ATOM     10  C   UNL     1       0.625  -2.042  -1.023  0.00  0.00    +0.024 A 
ATOM     11  C   UNL     1       0.041  -2.760   0.013  0.00  0.00    +0.037 A 
ATOM     12  C   UNL     1      -0.563  -2.087   1.066  0.00  0.00    +0.062 A 
ATOM     13  C   UNL     1      -0.577  -0.703   1.083  0.00  0.00    +0.128 A 
ATOM     14  F   UNL     1      -1.159  -0.046   2.110  0.00  0.00    -0.205 F 
ENDBRANCH   1  11
BRANCH   4  15
ATOM     15  C   UNL     1       0.423  -6.936   2.377  0.00  0.00    +0.157 C 
ATOM     16  C   UNL     1       1.894  -6.971   2.797  0.00  0.00    +0.038 C 
BRANCH  15  17
ATOM     17  C   UNL     1      -0.076  -8.344   2.178  0.00  0.00    +0.236 C 
ATOM     18  O   UNL     1      -0.234  -8.778   1.057  0.00  0.00    -0.274 OA
ATOM     19  N   UNL     1      -0.346  -9.120   3.246  0.00  0.00    -0.298 N 
ATOM     20  C   UNL     1      -0.269  -8.551   4.592  0.00  0.00    +0.118 C 
ATOM     21  C   UNL     1      -1.667  -8.531   5.220  0.00  0.00    +0.088 C 
ATOM     22  S   UNL     1      -2.325 -10.226   5.226  0.00  0.00    -0.158 S 
ATOM     23  C   UNL     1      -2.167 -10.738   3.489  0.00  0.00    +0.088 C 
ATOM     24  C   UNL     1      -0.721 -10.521   3.045  0.00  0.00    +0.118 C 
ENDBRANCH  15  17
ENDBRANCH   4  15
TORSDOF 3
