REMARK  Name = ZINC01431796
REMARK  2 active torsions:
REMARK  status: ('A' for Active; 'I' for Inactive)
REMARK    1  A    between atoms: C_1  and  C_2
REMARK    2  A    between atoms: C_17  and  C_19
REMARK                            x       y       z     vdW  Elec       q    Type
REMARK                         _______ _______ _______ _____ _____    ______ ____
ROOT
ATOM      1  C   UNL     1       6.011   1.860  -0.811  0.00  0.00    +0.047 C 
ATOM      2  C   UNL     1       4.707   1.105  -0.800  0.00  0.00    -0.007 A 
ATOM      3  C   UNL     1       4.668  -0.203  -1.178  0.00  0.00    +0.008 A 
ATOM      4  C   UNL     1       3.446  -0.892  -1.161  0.00  0.00    +0.018 A 
ATOM      5  C   UNL     1       2.316  -0.261  -0.772  0.00  0.00    +0.094 A 
ATOM      6  N   UNL     1       2.343   1.047  -0.392  0.00  0.00    -0.288 N 
ATOM      7  C   UNL     1       3.519   1.745  -0.398  0.00  0.00    +0.146 A 
ATOM      8  N   UNL     1       3.556   3.023  -0.028  0.00  0.00    -0.191 NA
ATOM      9  C   UNL     1       2.448   3.659   0.360  0.00  0.00    +0.279 A 
ATOM     10  O   UNL     1       2.499   4.834   0.697  0.00  0.00    -0.265 OA
ATOM     11  C   UNL     1       1.215   2.969   0.378  0.00  0.00    +0.065 A 
ATOM     12  C   UNL     1       1.179   1.665  -0.000  0.00  0.00    +0.120 A 
ATOM     13  N   UNL     1      -0.011   0.966   0.007  0.00  0.00    -0.271 N 
ATOM     14  C   UNL     1      -1.190   1.616   0.017  0.00  0.00    +0.219 C 
ATOM     15  O   UNL     1      -2.225   0.985   0.027  0.00  0.00    -0.275 OA
ATOM     16  C   UNL     1      -1.232   3.121   0.018  0.00  0.00    +0.109 C 
ATOM     17  C   UNL     1      -0.044   3.669   0.813  0.00  0.00    +0.066 C 
ATOM     18  H   UNL     1       0.002  -0.004   0.002  0.00  0.00    +0.156 HD
ENDROOT
BRANCH  17  19
ATOM     19  C   UNL     1      -0.270   3.430   2.283  0.00  0.00    -0.039 A 
ATOM     20  C   UNL     1      -0.430   2.142   2.758  0.00  0.00    +0.004 A 
ATOM     21  C   UNL     1      -0.633   1.922   4.107  0.00  0.00    +0.000 A 
ATOM     22  C   UNL     1      -0.686   2.992   4.981  0.00  0.00    +0.000 A 
ATOM     23  C   UNL     1      -0.532   4.281   4.506  0.00  0.00    +0.000 A 
ATOM     24  C   UNL     1      -0.324   4.500   3.157  0.00  0.00    +0.004 A 
ENDBRANCH  17  19
TORSDOF 1
