REMARK  Name = ZINC04231323
REMARK  8 active torsions:
REMARK  status: ('A' for Active; 'I' for Inactive)
REMARK    1  A    between atoms: C_1  and  C_2
REMARK    2  A    between atoms: C_2  and  N_61
REMARK    3  A    between atoms: C_6  and  C_8
REMARK    4  A    between atoms: C_8  and  N_9
REMARK    5  A    between atoms: N_9  and  C_10
REMARK    6  A    between atoms: C_10  and  C_11
REMARK    7  A    between atoms: C_16  and  C_23
REMARK    8  A    between atoms: N_26  and  C_27
REMARK                            x       y       z     vdW  Elec       q    Type
REMARK                         _______ _______ _______ _____ _____    ______ ____
ROOT
ATOM      1  N   UNL     1       3.112   0.668  -1.071  0.00  0.00    -0.282 N 
ATOM      2  C   UNL     1       4.194   1.338  -1.513  0.00  0.00    +0.307 C 
ATOM      3  O   UNL     1       4.747   2.145  -0.791  0.00  0.00    -0.252 OA
ATOM      4  N   UNL     1       4.665   1.114  -2.756  0.00  0.00    -0.269 N 
ATOM      5  H   UNL     1       4.273   0.416  -3.304  0.00  0.00    +0.156 HD
ENDROOT
BRANCH   4   6
ATOM      6  C   UNL     1       5.718   1.888  -3.256  0.00  0.00    +0.035 A 
ATOM      7  C   UNL     1       5.835   3.223  -2.890  0.00  0.00    +0.023 A 
ATOM      8  C   UNL     1       6.878   3.983  -3.381  0.00  0.00    +0.002 A 
ATOM      9  C   UNL     1       7.800   3.419  -4.245  0.00  0.00    +0.000 A 
ATOM     10  C   UNL     1       7.683   2.092  -4.616  0.00  0.00    +0.002 A 
ATOM     11  C   UNL     1       6.645   1.325  -4.124  0.00  0.00    +0.023 A 
ENDBRANCH   4   6
BRANCH   1  12
ATOM     12  C   UNL     1       2.447  -0.304  -1.942  0.00  0.00    +0.094 C 
BRANCH  12  16
ATOM     13  C   UNL     1       4.722  -3.110  -2.391  0.00  0.00    -0.078 C 
ATOM     14  C   UNL     1       3.530  -3.371  -3.347  0.00  0.00    -0.020 C 
ATOM     15  C   UNL     1       2.340  -2.728  -2.600  0.00  0.00    -0.016 C 
ATOM     16  C   UNL     1       2.974  -1.708  -1.636  0.00  0.00    -0.051 C 
ATOM     17  N   UNL     1       4.417  -1.767  -1.868  0.00  0.00    +0.382 N 
ATOM     18  H   UNL     1       4.688  -1.057  -2.558  0.00  0.00    -0.081 HD
BRANCH  17  20
ATOM     19  C   UNL     1       6.663  -1.681  -0.832  0.00  0.00    -0.017 C 
ATOM     20  C   UNL     1       5.160  -1.521  -0.593  0.00  0.00    -0.082 C 
ENDBRANCH  17  20
ENDBRANCH  12  16
ENDBRANCH   1  12
BRANCH   1  21
ATOM     21  C   UNL     1       2.601   0.912   0.280  0.00  0.00    +0.149 C 
BRANCH  21  22
ATOM     22  C   UNL     1       1.483   1.921   0.220  0.00  0.00    +0.035 A 
ATOM     23  C   UNL     1       0.195   1.501   0.182  0.00  0.00    +0.020 A 
ATOM     24  C   UNL     1      -0.867   2.507   0.117  0.00  0.00    -0.001 A 
ATOM     25  C   UNL     1      -2.215   2.135   0.084  0.00  0.00    +0.010 A 
ATOM     26  C   UNL     1      -3.183   3.098   0.031  0.00  0.00    +0.004 A 
ATOM     27  C   UNL     1      -2.840   4.443   0.016  0.00  0.00    -0.048 A 
ATOM     28  C   UNL     1      -1.519   4.833   0.055  0.00  0.00    +0.029 A 
ATOM     29  C   UNL     1      -0.516   3.870   0.110  0.00  0.00    +0.049 A 
ATOM     30  N   UNL     1       0.813   4.232   0.150  0.00  0.00    -0.322 N 
ATOM     31  H   UNL     1       1.061   5.200   0.140  0.00  0.00    +0.169 HD
ATOM     32  C   UNL     1       1.782   3.301   0.203  0.00  0.00    +0.254 A 
ATOM     33  O   UNL     1       2.947   3.657   0.238  0.00  0.00    -0.268 OA
ATOM     34  C   UNL     1      -3.924   5.488  -0.043  0.00  0.00    +0.044 C 
ENDBRANCH  21  22
ENDBRANCH   1  21
TORSDOF 6
