REMARK  Name = ZINC62164132
REMARK  5 active torsions:
REMARK  status: ('A' for Active; 'I' for Inactive)
REMARK    1  A    between atoms: C_1  and  C_2
REMARK    2  A    between atoms: C_7  and  N_8
REMARK    3  A    between atoms: C_9  and  C_11
REMARK    4  A    between atoms: C_25  and  C_30
REMARK    5  A    between atoms: C_27  and  C_29
REMARK                            x       y       z     vdW  Elec       q    Type
REMARK                         _______ _______ _______ _____ _____    ______ ____
ROOT
ATOM      1  C   UNL     1      -0.164   0.054   4.880  0.00  0.00    +0.093 C 
ATOM      2  C   UNL     1      -0.242  -0.946   6.037  0.00  0.00    +0.016 C 
ATOM      3  C   UNL     1      -0.390  -0.188   7.359  0.00  0.00    +0.020 C 
ATOM      4  C   UNL     1       0.838   0.703   7.572  0.00  0.00    +0.106 C 
ATOM      5  N   UNL     1       1.003   1.569   6.396  0.00  0.00    -0.313 N 
ATOM      6  C   UNL     1       1.065   0.949   5.065  0.00  0.00    +0.119 C 
ATOM      7  C   UNL     1       1.100   2.950   6.539  0.00  0.00    +0.144 A 
ATOM      8  C   UNL     1       1.251   3.512   7.807  0.00  0.00    +0.049 A 
ATOM      9  C   UNL     1       1.343   4.890   7.899  0.00  0.00    +0.053 A 
ATOM     10  C   UNL     1       1.277   5.630   6.719  0.00  0.00    +0.176 A 
ATOM     11  N   UNL     1       1.133   5.011   5.560  0.00  0.00    -0.128 NA
ATOM     12  N   UNL     1       1.053   3.733   5.473  0.00  0.00    -0.132 NA
ATOM     13  N   UNL     1       1.365   7.027   6.761  0.00  0.00    -0.217 N 
ATOM     14  C   UNL     1       1.781   7.834   5.751  0.00  0.00    +0.044 A 
ATOM     15  C   UNL     1       1.717   9.111   6.194  0.00  0.00    +0.048 A 
ATOM     16  C   UNL     1       1.249   9.087   7.513  0.00  0.00    +0.061 A 
ATOM     17  N   UNL     1       1.033   7.842   7.851  0.00  0.00    -0.170 NA
ATOM     18  C   UNL     1       1.027  10.291   8.391  0.00  0.00    +0.067 C 
ATOM     19  C   UNL     1       2.232   7.387   4.384  0.00  0.00    +0.066 C 
ENDROOT
BRANCH   1  21
ATOM     20  N   UNL     1       0.032  -0.014   2.416  0.00  0.00    -0.285 N 
ATOM     21  C   UNL     1      -0.051  -0.694   3.577  0.00  0.00    +0.222 C 
ATOM     22  O   UNL     1      -0.036  -1.906   3.572  0.00  0.00    -0.275 OA
ATOM     23  H   UNL     1       0.085   0.954   2.423  0.00  0.00    +0.155 HD
BRANCH  20  30
ATOM     24  C   UNL     1      -1.254   1.182   0.178  0.00  0.00    +0.046 C 
ATOM     25  C   UNL     1      -0.573  -0.158   0.082  0.00  0.00    -0.028 A 
ATOM     26  C   UNL     1      -0.556  -0.841  -1.119  0.00  0.00    +0.020 A 
ATOM     27  C   UNL     1       0.069  -2.072  -1.208  0.00  0.00    +0.018 A 
ATOM     28  C   UNL     1       0.678  -2.623  -0.094  0.00  0.00    +0.017 A 
ATOM     29  C   UNL     1       0.664  -1.945   1.109  0.00  0.00    +0.024 A 
ATOM     30  C   UNL     1       0.043  -0.706   1.199  0.00  0.00    +0.036 A 
ATOM     31 BR   UNL     1       0.089  -3.003  -2.853  0.00  0.00    -0.050 Br
ENDBRANCH  20  30
ENDBRANCH   1  21
TORSDOF 2
