REMARK  Name = ZINC02215954
REMARK  5 active torsions:
REMARK  status: ('A' for Active; 'I' for Inactive)
REMARK    1  A    between atoms: C_1  and  C_2
REMARK    2  A    between atoms: C_2  and  C_27
REMARK    3  A    between atoms: N_11  and  C_18
REMARK    4  A    between atoms: N_14  and  C_15
REMARK    5  A    between atoms: C_15  and  C_16
REMARK                            x       y       z     vdW  Elec       q    Type
REMARK                         _______ _______ _______ _____ _____    ______ ____
ROOT
ATOM      1  C   UNL     1      -4.669  -1.275  -2.329  0.00  0.00    +0.041 C 
ATOM      2  C   UNL     1      -4.338  -0.026  -1.510  0.00  0.00    +0.068 C 
ATOM      3  C   UNL     1      -2.827   0.225  -1.556  0.00  0.00    +0.071 C 
ATOM      4  C   UNL     1      -2.560   1.595  -0.942  0.00  0.00    -0.018 A 
ATOM      5  C   UNL     1      -3.571   2.480  -0.806  0.00  0.00    +0.021 A 
ATOM      6  S   UNL     1      -2.829   3.903  -0.064  0.00  0.00    -0.073 S 
ATOM      7  C   UNL     1      -1.208   3.330   0.062  0.00  0.00    +0.097 A 
ATOM      8  C   UNL     1      -1.250   2.043  -0.477  0.00  0.00    +0.074 A 
ATOM      9  C   UNL     1       0.035   1.310  -0.485  0.00  0.00    +0.270 A 
ATOM     10  O   UNL     1       0.096   0.180  -0.933  0.00  0.00    -0.266 OA
ATOM     11  N   UNL     1       1.136   1.909   0.002  0.00  0.00    -0.228 N 
ATOM     12  C   UNL     1       1.103   3.155   0.501  0.00  0.00    +0.338 A 
ATOM     13  O   UNL     1       2.127   3.652   0.930  0.00  0.00    -0.246 OA
ATOM     14  N   UNL     1      -0.041   3.865   0.537  0.00  0.00    -0.283 N 
ATOM     15  C   UNL     1      -4.995   2.261  -1.212  0.00  0.00    +0.203 C 
ATOM     16  O   UNL     1      -5.041   1.095  -2.050  0.00  0.00    -0.368 OA
ATOM     17  C   UNL     1      -4.771  -0.243  -0.058  0.00  0.00    +0.041 C 
ENDROOT
BRANCH  11  18
ATOM     18  C   UNL     1       2.353   1.213  -0.013  0.00  0.00    +0.054 A 
ATOM     19  C   UNL     1       2.717   0.426   1.071  0.00  0.00    +0.028 A 
ATOM     20  C   UNL     1       3.914  -0.262   1.052  0.00  0.00    +0.022 A 
ATOM     21  C   UNL     1       4.755  -0.160  -0.042  0.00  0.00    +0.041 A 
ATOM     22  C   UNL     1       4.397   0.628  -1.122  0.00  0.00    +0.022 A 
ATOM     23  C   UNL     1       3.199   1.314  -1.110  0.00  0.00    +0.028 A 
ATOM     24 CL   UNL     1       6.262  -1.022  -0.060  0.00  0.00    -0.084 Cl
ENDBRANCH  11  18
BRANCH  14  25
ATOM     25  C   UNL     1      -0.036   5.222   1.090  0.00  0.00    +0.154 C 
BRANCH  25  26
ATOM     26  C   UNL     1       0.250   6.212  -0.010  0.00  0.00    -0.013 C 
ATOM     27  C   UNL     1      -0.578   7.202  -0.231  0.00  0.00    +0.005 C 
ENDBRANCH  25  26
ENDBRANCH  14  25
TORSDOF 3
