REMARK  Name = ZINC19296773
REMARK  11 active torsions:
REMARK  status: ('A' for Active; 'I' for Inactive)
REMARK    1  A    between atoms: C_1  and  C_2
REMARK    2  A    between atoms: C_2  and  C_4
REMARK    3  A    between atoms: C_2  and  S_8
REMARK    4  A    between atoms: N_6  and  C_7
REMARK    5  A    between atoms: S_8  and  C_9
REMARK    6  A    between atoms: C_12  and  C_21
REMARK    7  A    between atoms: N_13  and  C_14
REMARK    8  A    between atoms: C_24  and  C_27
REMARK    9  A    between atoms: C_27  and  C_28
REMARK   10  A    between atoms: C_27  and  C_29
REMARK   11  A    between atoms: C_27  and  C_30
REMARK                            x       y       z     vdW  Elec       q    Type
REMARK                         _______ _______ _______ _____ _____    ______ ____
ROOT
ATOM      1  C   UNL     1      -3.149   0.628  -1.069  0.00  0.00    +0.197 A 
ATOM      2  N   UNL     1      -4.207  -0.010  -0.618  0.00  0.00    -0.122 NA
ATOM      3  N   UNL     1      -4.203  -0.018   0.667  0.00  0.00    -0.128 NA
ATOM      4  C   UNL     1      -3.141   0.608   1.118  0.00  0.00    +0.169 A 
ATOM      5  N   UNL     1      -2.430   1.039   0.019  0.00  0.00    -0.269 N 
ENDROOT
BRANCH   5   6
ATOM      6  C   UNL     1      -1.224   1.754   0.017  0.00  0.00    +0.069 A 
ATOM      7  C   UNL     1      -0.013   1.076   0.008  0.00  0.00    +0.028 A 
ATOM      8  C   UNL     1       1.174   1.783   0.000  0.00  0.00    +0.002 A 
ATOM      9  C   UNL     1       1.157   3.166   0.007  0.00  0.00    +0.002 A 
ATOM     10  C   UNL     1      -0.048   3.845   0.021  0.00  0.00    +0.022 A 
ATOM     11  C   UNL     1      -1.238   3.143   0.029  0.00  0.00    +0.065 A 
ATOM     12 CL   UNL     1      -2.750   3.996   0.047  0.00  0.00    -0.081 Cl
ENDBRANCH   5   6
BRANCH   4  13
ATOM     13  C   UNL     1      -2.777   0.811   2.536  0.00  0.00    +0.020 A 
ATOM     14  C   UNL     1      -1.482   1.205   2.877  0.00  0.00    +0.012 A 
ATOM     15  C   UNL     1      -1.150   1.398   4.202  0.00  0.00    +0.005 A 
ATOM     16  C   UNL     1      -2.094   1.192   5.192  0.00  0.00    -0.042 A 
ATOM     17  C   UNL     1      -3.377   0.795   4.861  0.00  0.00    +0.005 A 
ATOM     18  C   UNL     1      -3.724   0.604   3.539  0.00  0.00    +0.012 A 
BRANCH  16  19
ATOM     19  C   UNL     1      -1.722   1.399   6.638  0.00  0.00    -0.013 C 
ATOM     20  C   UNL     1      -1.917   0.091   7.407  0.00  0.00    +0.015 C 
ATOM     21  C   UNL     1      -0.258   1.832   6.731  0.00  0.00    +0.015 C 
ATOM     22  C   UNL     1      -2.615   2.485   7.243  0.00  0.00    +0.015 C 
ENDBRANCH  16  19
ENDBRANCH   4  13
BRANCH   1  23
ATOM     23  S   UNL     1      -2.734   0.898  -2.760  0.00  0.00    -0.073 S 
BRANCH  23  25
ATOM     24  C   UNL     1      -5.425   0.830  -3.226  0.00  0.00    +0.029 C 
ATOM     25  C   UNL     1      -4.134   0.079  -3.563  0.00  0.00    +0.137 C 
BRANCH  25  26
ATOM     26  C   UNL     1      -3.928   0.079  -5.056  0.00  0.00    +0.226 C 
ATOM     27  O   UNL     1      -3.158   0.868  -5.561  0.00  0.00    -0.275 OA
ATOM     28  N   UNL     1      -4.599  -0.797  -5.829  0.00  0.00    -0.317 N 
ATOM     29  C   UNL     1      -4.399  -0.797  -7.280  0.00  0.00    +0.128 C 
ATOM     30  H   UNL     1      -5.298  -1.512  -5.370  0.00  0.00    +0.148 HD
ENDBRANCH  25  26
ENDBRANCH  23  25
ENDBRANCH   1  23
TORSDOF 6
