REMARK  Name = ZINC67227293
REMARK  8 active torsions:
REMARK  status: ('A' for Active; 'I' for Inactive)
REMARK    1  A    between atoms: C_1  and  C_2
REMARK    2  A    between atoms: C_5  and  C_11
REMARK    3  A    between atoms: C_6  and  C_10
REMARK    4  A    between atoms: C_7  and  O_8
REMARK    5  A    between atoms: O_8  and  C_9
REMARK    6  A    between atoms: C_11  and  N_12
REMARK    7  A    between atoms: N_16  and  S_19
REMARK    8  A    between atoms: S_19  and  C_22
REMARK                            x       y       z     vdW  Elec       q    Type
REMARK                         _______ _______ _______ _____ _____    ______ ____
ROOT
ATOM      1  N   UNL     1      -1.297  -4.750   0.049  0.00  0.00    -0.295 NA
ATOM      2  C   UNL     1      -2.143  -4.489  -1.088  0.00  0.00    +0.086 C 
ATOM      3  C   UNL     1      -3.554  -4.057  -0.619  0.00  0.00    +0.032 C 
ATOM      4  C   UNL     1      -3.966  -4.881   0.627  0.00  0.00    +0.111 C 
ATOM      5  N   UNL     1      -3.635  -6.278   0.600  0.00  0.00    -0.175 NA
ATOM      6  C   UNL     1      -2.303  -6.719   1.136  0.00  0.00    +0.125 C 
ATOM      7  C   UNL     1      -1.281  -6.203   0.216  0.00  0.00    +0.102 C 
ENDROOT
BRANCH   5   8
ATOM      8  S   UNL     1      -4.704  -7.385  -0.011  0.00  0.00    +0.061 S 
ATOM      9  O   UNL     1      -4.380  -8.634   0.584  0.00  0.00    -0.153 OA
ATOM     10  O   UNL     1      -5.996  -6.803   0.094  0.00  0.00    -0.153 OA
BRANCH   8  11
ATOM     11  C   UNL     1      -4.363  -7.544  -1.733  0.00  0.00    +0.105 A 
ATOM     12  C   UNL     1      -5.001  -6.722  -2.643  0.00  0.00    +0.028 A 
ATOM     13  C   UNL     1      -4.733  -6.847  -3.993  0.00  0.00    +0.002 A 
ATOM     14  C   UNL     1      -3.826  -7.793  -4.433  0.00  0.00    +0.000 A 
ATOM     15  C   UNL     1      -3.187  -8.614  -3.523  0.00  0.00    +0.002 A 
ATOM     16  C   UNL     1      -3.452  -8.486  -2.173  0.00  0.00    +0.028 A 
ENDBRANCH   8  11
ENDBRANCH   5   8
BRANCH   1  17
ATOM     17  C   UNL     1       0.059  -4.231  -0.172  0.00  0.00    +0.138 C 
BRANCH  17  22
ATOM     18  C   UNL     1      -0.018   1.503   0.010  0.00  0.00    +0.049 C 
ATOM     19  C   UNL     1       0.002  -0.004   0.002  0.00  0.00    +0.007 A 
ATOM     20  C   UNL     1       0.006  -0.697  -1.191  0.00  0.00    +0.089 A 
ATOM     21  N   UNL     1       0.024  -2.016  -1.207  0.00  0.00    -0.363 N 
ATOM     22  C   UNL     1       0.039  -2.726  -0.095  0.00  0.00    +0.037 A 
ATOM     23  C   UNL     1       0.036  -2.108   1.139  0.00  0.00    +0.012 A 
ATOM     24  C   UNL     1       0.023  -0.716   1.198  0.00  0.00    +0.129 A 
ATOM     25  C   UNL     1       0.053  -2.926   2.404  0.00  0.00    +0.049 C 
ATOM     26  H   UNL     1       0.027  -2.477  -2.060  0.00  0.00    +0.165 HD
BRANCH  24  27
ATOM     27  O   UNL     1       0.025  -0.071   2.393  0.00  0.00    -0.494 OA
ATOM     28  C   UNL     1      -1.247   0.220   2.975  0.00  0.00    +0.277 C 
ENDBRANCH  24  27
ENDBRANCH  17  22
ENDBRANCH   1  17
TORSDOF 5
