REMARK  Name = ZINC67021995
REMARK  5 active torsions:
REMARK  status: ('A' for Active; 'I' for Inactive)
REMARK    1  A    between atoms: C_1  and  O_2
REMARK    2  A    between atoms: O_2  and  C_3
REMARK    3  A    between atoms: C_7  and  C_8
REMARK    4  A    between atoms: N_10  and  C_11
REMARK    5  A    between atoms: C_13  and  N_18
REMARK                            x       y       z     vdW  Elec       q    Type
REMARK                         _______ _______ _______ _____ _____    ______ ____
ROOT
ATOM      1  C   UNL     1      -0.032  -5.245   0.345  0.00  0.00    +0.054 A 
ATOM      2  C   UNL     1      -0.700  -4.840   1.492  0.00  0.00    +0.049 A 
ATOM      3  C   UNL     1      -1.111  -5.785   2.422  0.00  0.00    +0.053 A 
ATOM      4  C   UNL     1      -0.852  -7.132   2.203  0.00  0.00    +0.026 A 
ATOM      5  C   UNL     1      -0.186  -7.532   1.060  0.00  0.00    +0.024 A 
ATOM      6  C   UNL     1       0.219  -6.595   0.129  0.00  0.00    +0.062 A 
ATOM      7 CL   UNL     1       1.048  -7.103  -1.309  0.00  0.00    -0.082 Cl
ENDROOT
BRANCH   3   8
ATOM      8  N   UNL     1      -1.784  -5.381   3.579  0.00  0.00    -0.207 N 
ATOM      9  C   UNL     1      -1.714  -4.061   4.232  0.00  0.00    +0.133 C 
ATOM     10  C   UNL     1      -3.030  -3.743   4.965  0.00  0.00    +0.045 C 
ATOM     11  C   UNL     1      -3.387  -5.048   5.739  0.00  0.00    +0.190 C 
ATOM     12  S   UNL     1      -2.841  -6.295   4.503  0.00  0.00    +0.046 S 
ATOM     13  O   UNL     1      -3.907  -6.641   3.630  0.00  0.00    -0.155 OA
ATOM     14  O   UNL     1      -2.040  -7.294   5.120  0.00  0.00    -0.155 OA
ENDBRANCH   3   8
BRANCH   1  17
ATOM     15  C   UNL     1      -0.252  -3.110  -0.682  0.00  0.00    +0.258 C 
ATOM     16  O   UNL     1      -1.250  -2.904  -0.014  0.00  0.00    -0.269 OA
ATOM     17  N   UNL     1       0.383  -4.295  -0.595  0.00  0.00    -0.280 N 
ATOM     18  H   UNL     1       1.129  -4.490  -1.183  0.00  0.00    +0.155 HD
BRANCH  15  23
ATOM     19  C   UNL     1      -0.261  -0.827  -1.787  0.00  0.00    +0.139 A 
ATOM     20  C   UNL     1       0.449  -0.070  -2.695  0.00  0.00    +0.054 A 
ATOM     21  C   UNL     1       1.546  -0.603  -3.281  0.00  0.00    +0.049 A 
ATOM     22  S   UNL     1       1.659  -2.146  -2.627  0.00  0.00    -0.088 S 
ATOM     23  C   UNL     1       0.239  -2.105  -1.550  0.00  0.00    +0.116 A 
BRANCH  19  25
ATOM     24  C   UNL     1      -1.786   0.972  -1.488  0.00  0.00    +0.277 C 
ATOM     25  O   UNL     1      -1.371  -0.356  -1.161  0.00  0.00    -0.494 OA
ENDBRANCH  19  25
ENDBRANCH  15  23
ENDBRANCH   1  17
TORSDOF 4
