REMARK  Name = ZINC14186004
REMARK  5 active torsions:
REMARK  status: ('A' for Active; 'I' for Inactive)
REMARK    1  A    between atoms: C_3  and  O_24
REMARK    2  A    between atoms: C_6  and  C_7
REMARK    3  A    between atoms: C_8  and  C_9
REMARK    4  A    between atoms: N_11  and  C_12
REMARK    5  A    between atoms: O_24  and  C_25
REMARK                            x       y       z     vdW  Elec       q    Type
REMARK                         _______ _______ _______ _____ _____    ______ ____
ROOT
ATOM      1  C   UNL     1       0.070  -2.772   0.087  0.00  0.00    +0.241 C 
ATOM      2  O   UNL     1      -0.992  -2.176   0.101  0.00  0.00    -0.270 OA
ATOM      3  N   UNL     1       1.225  -2.087  -0.021  0.00  0.00    -0.282 N 
ATOM      4  H   UNL     1       2.066  -2.564  -0.099  0.00  0.00    +0.155 HD
ENDROOT
BRANCH   3   5
ATOM      5  C   UNL     1       1.212  -0.687  -0.022  0.00  0.00    +0.036 A 
ATOM      6  C   UNL     1       2.252   0.017   0.577  0.00  0.00    +0.025 A 
ATOM      7  C   UNL     1       2.244   1.397   0.580  0.00  0.00    +0.029 A 
ATOM      8  C   UNL     1       1.197   2.085  -0.015  0.00  0.00    +0.067 A 
ATOM      9  C   UNL     1       0.152   1.381  -0.617  0.00  0.00    +0.069 A 
ATOM     10  C   UNL     1       0.162  -0.005  -0.618  0.00  0.00    +0.051 A 
ATOM     11  N   UNL     1      -0.736   2.330  -1.119  0.00  0.00    -0.306 N 
ATOM     12  H   UNL     1      -1.561   2.140  -1.592  0.00  0.00    +0.170 HD
ATOM     13  C   UNL     1      -0.254   3.554  -0.836  0.00  0.00    +0.325 A 
ATOM     14  O   UNL     1      -0.789   4.605  -1.137  0.00  0.00    -0.247 OA
ATOM     15  N   UNL     1       0.911   3.441  -0.170  0.00  0.00    -0.306 N 
ATOM     16  H   UNL     1       1.458   4.177   0.147  0.00  0.00    +0.170 HD
ENDBRANCH   3   5
BRANCH   1  18
ATOM     17  C   UNL     1      -1.067  -4.916   0.298  0.00  0.00    +0.013 C 
ATOM     18  C   UNL     1       0.091  -4.230   0.189  0.00  0.00    +0.068 C 
BRANCH  17  24
ATOM     19  C   UNL     1       0.173  -7.070   0.379  0.00  0.00    +0.011 A 
ATOM     20  C   UNL     1       0.188  -8.443   0.480  0.00  0.00    +0.046 A 
ATOM     21  C   UNL     1      -1.006  -9.147   0.593  0.00  0.00    +0.127 A 
ATOM     22  C   UNL     1      -2.219  -8.469   0.608  0.00  0.00    +0.046 A 
ATOM     23  C   UNL     1      -2.245  -7.096   0.513  0.00  0.00    +0.011 A 
ATOM     24  C   UNL     1      -1.046  -6.382   0.400  0.00  0.00    -0.025 A 
BRANCH  21  25
ATOM     25  O   UNL     1      -0.986 -10.501   0.687  0.00  0.00    -0.434 OA
BRANCH  25  26
ATOM     26  C   UNL     1       0.294 -11.134   0.665  0.00  0.00    +0.541 C 
ATOM     27  F   UNL     1       0.943 -10.832  -0.537  0.00  0.00    -0.166 F 
ATOM     28  F   UNL     1       1.062 -10.671   1.739  0.00  0.00    -0.166 F 
ENDBRANCH  25  26
ENDBRANCH  21  25
ENDBRANCH  17  24
ENDBRANCH   1  18
TORSDOF 5
