REMARK  Name = ZINC04598518
REMARK  8 active torsions:
REMARK  status: ('A' for Active; 'I' for Inactive)
REMARK    1  A    between atoms: C_1  and  C_2
REMARK    2  A    between atoms: C_2  and  O_3
REMARK    3  A    between atoms: O_3  and  C_4
REMARK    4  A    between atoms: C_4  and  C_6
REMARK    5  A    between atoms: C_12  and  O_29
REMARK    6  A    between atoms: C_17  and  C_28
REMARK    7  A    between atoms: N_18  and  C_22
REMARK    8  A    between atoms: O_29  and  C_30
REMARK                            x       y       z     vdW  Elec       q    Type
REMARK                         _______ _______ _______ _____ _____    ______ ____
ROOT
ATOM      1  C   UNL     1      -3.922   1.252   2.151  0.00  0.00    +0.185 C 
ATOM      2  C   UNL     1      -5.201   1.472   1.327  0.00  0.00    +0.125 C 
ATOM      3  C   UNL     1      -6.285   0.577   1.885  0.00  0.00    +0.019 A 
ATOM      4  C   UNL     1      -7.337   0.209   1.066  0.00  0.00    +0.054 A 
ATOM      5  C   UNL     1      -8.347  -0.605   1.553  0.00  0.00    +0.121 A 
ATOM      6  C   UNL     1      -8.300  -1.050   2.866  0.00  0.00    +0.049 A 
ATOM      7  C   UNL     1      -7.249  -0.685   3.682  0.00  0.00    +0.049 A 
ATOM      8  C   UNL     1      -6.232   0.130   3.193  0.00  0.00    +0.129 A 
ATOM      9  O   UNL     1      -5.206   0.453   4.023  0.00  0.00    -0.467 OA
ATOM     10  C   UNL     1      -4.297   1.475   3.623  0.00  0.00    +0.196 C 
ATOM     11  N   UNL     1      -4.901   2.796   3.773  0.00  0.00    -0.243 N 
ATOM     12  C   UNL     1      -5.489   3.430   2.748  0.00  0.00    +0.141 C 
ATOM     13  S   UNL     1      -6.079   5.019   2.990  0.00  0.00    -0.018 S 
ATOM     14  N   UNL     1      -5.631   2.865   1.537  0.00  0.00    -0.318 N 
ATOM     15  C   UNL     1      -3.036   1.399   4.486  0.00  0.00    +0.080 C 
ATOM     16  H   UNL     1      -6.016   3.372   0.805  0.00  0.00    +0.148 HD
ENDROOT
BRANCH  11  17
ATOM     17  C   UNL     1      -4.866   3.419   5.025  0.00  0.00    +0.039 A 
ATOM     18  C   UNL     1      -5.840   3.133   5.973  0.00  0.00    +0.023 A 
ATOM     19  C   UNL     1      -5.799   3.745   7.210  0.00  0.00    +0.002 A 
ATOM     20  C   UNL     1      -4.796   4.651   7.502  0.00  0.00    +0.000 A 
ATOM     21  C   UNL     1      -3.827   4.943   6.559  0.00  0.00    +0.002 A 
ATOM     22  C   UNL     1      -3.860   4.329   5.322  0.00  0.00    +0.023 A 
ENDBRANCH  11  17
BRANCH   1  23
ATOM     23  C   UNL     1      -2.865   2.241   1.734  0.00  0.00    +0.318 C 
ATOM     24  O   UNL     1      -2.819   3.332   2.253  0.00  0.00    -0.250 OA
BRANCH  23  25
ATOM     25  O   UNL     1      -1.973   1.911   0.786  0.00  0.00    -0.465 OA
BRANCH  25  27
ATOM     26  C   UNL     1      -0.061   2.360  -0.654  0.00  0.00    +0.048 C 
ATOM     27  C   UNL     1      -0.983   2.913   0.434  0.00  0.00    +0.229 C 
ENDBRANCH  25  27
ENDBRANCH  23  25
ENDBRANCH   1  23
BRANCH   5  28
ATOM     28  O   UNL     1      -9.380  -0.967   0.747  0.00  0.00    -0.495 OA
ATOM     29  C   UNL     1     -10.384  -1.809   1.317  0.00  0.00    +0.277 C 
ENDBRANCH   5  28
TORSDOF 5
