REMARK  Name = ZINC04264004
REMARK  6 active torsions:
REMARK  status: ('A' for Active; 'I' for Inactive)
REMARK    1  A    between atoms: C_1  and  C_2
REMARK    2  A    between atoms: N_7  and  S_9
REMARK    3  A    between atoms: S_9  and  C_12
REMARK    4  A    between atoms: C_15  and  C_18
REMARK    5  A    between atoms: N_20  and  C_21
REMARK    6  A    between atoms: C_26  and  C_27
REMARK                            x       y       z     vdW  Elec       q    Type
REMARK                         _______ _______ _______ _____ _____    ______ ____
ROOT
ATOM      1  C   UNL     1       0.024  -0.569   1.672  0.00  0.00    +0.106 A 
ATOM      2  C   UNL     1       1.233  -0.760   2.317  0.00  0.00    +0.029 A 
ATOM      3  C   UNL     1       1.259  -1.160   3.637  0.00  0.00    +0.015 A 
ATOM      4  C   UNL     1       0.061  -1.383   4.319  0.00  0.00    +0.037 A 
ATOM      5  C   UNL     1      -1.155  -1.194   3.660  0.00  0.00    +0.015 A 
ATOM      6  C   UNL     1      -1.167  -0.788   2.342  0.00  0.00    +0.029 A 
ENDROOT
BRANCH   4   7
ATOM      7  C   UNL     1       0.081  -1.818   5.731  0.00  0.00    +0.248 C 
ATOM      8  O   UNL     1      -0.964  -2.011   6.322  0.00  0.00    -0.270 OA
ATOM      9  N   UNL     1       1.257  -2.000   6.364  0.00  0.00    -0.280 N 
ATOM     10  H   UNL     1       2.090  -1.909   5.875  0.00  0.00    +0.155 HD
BRANCH   9  11
ATOM     11  C   UNL     1       1.276  -2.318   7.720  0.00  0.00    +0.051 A 
ATOM     12  C   UNL     1       0.281  -3.119   8.263  0.00  0.00    +0.024 A 
ATOM     13  C   UNL     1       0.305  -3.436   9.606  0.00  0.00    +0.002 A 
ATOM     14  C   UNL     1       1.313  -2.952  10.424  0.00  0.00    +0.001 A 
ATOM     15  C   UNL     1       2.307  -2.151   9.903  0.00  0.00    +0.021 A 
ATOM     16  C   UNL     1       2.299  -1.825   8.545  0.00  0.00    +0.073 A 
BRANCH  16  17
ATOM     17  C   UNL     1       3.328  -0.993   7.998  0.00  0.00    +0.101 C 
ATOM     18  N   UNL     1       4.144  -0.333   7.564  0.00  0.00    -0.191 NA
ENDBRANCH  16  17
ENDBRANCH   9  11
ENDBRANCH   4   7
BRANCH   1  19
ATOM     19  S   UNL     1       0.000  -0.051  -0.012  0.00  0.00    +0.061 S 
ATOM     20  O   UNL     1      -1.244  -0.476  -0.550  0.00  0.00    -0.153 OA
ATOM     21  O   UNL     1       1.246  -0.441  -0.574  0.00  0.00    -0.153 OA
BRANCH  19  27
ATOM     22  C   UNL     1       2.449   4.263   1.060  0.00  0.00    +0.009 C 
ATOM     23  C   UNL     1       1.213   3.365   1.137  0.00  0.00    +0.002 C 
ATOM     24  C   UNL     1      -0.050   4.225   1.050  0.00  0.00    +0.006 C 
ATOM     25  C   UNL     1      -1.286   3.330   1.161  0.00  0.00    +0.017 C 
ATOM     26  C   UNL     1      -1.298   2.335  -0.010  0.00  0.00    +0.109 C 
ATOM     27  N   UNL     1      -0.023   1.605  -0.015  0.00  0.00    -0.176 NA
ATOM     28  C   UNL     1       1.230   2.371  -0.029  0.00  0.00    +0.112 C 
ENDBRANCH  19  27
ENDBRANCH   1  19
TORSDOF 5
