REMARK  Name = ZINC02786348
REMARK  2 active torsions:
REMARK  status: ('A' for Active; 'I' for Inactive)
REMARK    1  A    between atoms: C_3  and  N_22
REMARK    2  A    between atoms: C_6  and  C_7
REMARK                            x       y       z     vdW  Elec       q    Type
REMARK                         _______ _______ _______ _____ _____    ______ ____
ROOT
ATOM      1  C   UNL     1       3.242   2.447  -0.016  0.00  0.00    +0.182 A 
ATOM      2  N   UNL     1       2.440   3.515  -0.001  0.00  0.00    -0.206 NA
ATOM      3  C   UNL     1       1.183   3.121   0.009  0.00  0.00    +0.168 A 
ATOM      4  C   UNL     1      -0.106   3.839   0.025  0.00  0.00    +0.055 A 
ATOM      5  C   UNL     1      -0.349   5.287   0.037  0.00  0.00    -0.024 A 
ATOM      6  C   UNL     1      -1.633   5.688   0.048  0.00  0.00    -0.004 A 
ATOM      7  S   UNL     1      -2.583   4.185   0.048  0.00  0.00    -0.073 S 
ATOM      8  C   UNL     1      -1.245   3.021   0.030  0.00  0.00    +0.114 A 
ATOM      9  N   UNL     1      -1.160   1.696   0.017  0.00  0.00    -0.228 NA
ATOM     10  C   UNL     1      -0.013   1.076   0.008  0.00  0.00    +0.226 A 
ATOM     11  N   UNL     1       1.166   1.754   0.000  0.00  0.00    -0.201 N 
ATOM     12  N   UNL     1       2.509   1.350  -0.016  0.00  0.00    -0.143 NA
ATOM     13  C   UNL     1      -1.759   7.188   0.054  0.00  0.00    +0.043 C 
ATOM     14  C   UNL     1      -0.369   7.696  -0.389  0.00  0.00    +0.010 C 
ATOM     15  C   UNL     1       0.543   6.531   0.044  0.00  0.00    +0.037 C 
ENDROOT
BRANCH   1  21
ATOM     16  C   UNL     1       5.392   3.711  -0.035  0.00  0.00    +0.014 A 
ATOM     17  C   UNL     1       6.772   3.742  -0.043  0.00  0.00    +0.033 A 
ATOM     18  C   UNL     1       7.493   2.562  -0.058  0.00  0.00    +0.126 A 
ATOM     19  C   UNL     1       6.837   1.345  -0.059  0.00  0.00    +0.033 A 
ATOM     20  C   UNL     1       5.457   1.301  -0.045  0.00  0.00    +0.014 A 
ATOM     21  C   UNL     1       4.726   2.487  -0.030  0.00  0.00    +0.021 A 
BRANCH  18  22
ATOM     22  N   UNL     1       8.973   2.603  -0.072  0.00  0.00    +0.056 N 
ATOM     23  O   UNL     1       9.610   1.565  -0.085  0.00  0.00    -0.126 OA
ATOM     24  O   UNL     1       9.553   3.674  -0.071  0.00  0.00    -0.126 OA
ENDBRANCH  18  22
ENDBRANCH   1  21
TORSDOF 2
