REMARK  Name = ZINC04402374
REMARK  4 active torsions:
REMARK  status: ('A' for Active; 'I' for Inactive)
REMARK    1  A    between atoms: C_1  and  C_2
REMARK    2  A    between atoms: C_4  and  N_18
REMARK    3  A    between atoms: C_7  and  N_8
REMARK    4  A    between atoms: C_9  and  C_11
REMARK                            x       y       z     vdW  Elec       q    Type
REMARK                         _______ _______ _______ _____ _____    ______ ____
ROOT
ATOM      1  N   UNL     1      -0.011   0.966   0.007  0.00  0.00    -0.281 N 
ATOM      2  C   UNL     1       1.135   1.430   0.544  0.00  0.00    +0.248 C 
ATOM      3  O   UNL     1       1.175   2.550   1.016  0.00  0.00    -0.270 OA
ATOM      4  H   UNL     1      -0.027   0.099  -0.428  0.00  0.00    +0.155 HD
ENDROOT
BRANCH   1  11
ATOM      5  C   UNL     1      -2.499  -0.384   0.302  0.00  0.00    +0.046 C 
ATOM      6  C   UNL     1      -2.412   1.118   0.217  0.00  0.00    -0.027 A 
ATOM      7  C   UNL     1      -3.560   1.882   0.287  0.00  0.00    +0.038 A 
ATOM      8  C   UNL     1      -3.482   3.260   0.203  0.00  0.00    +0.127 A 
ATOM      9  C   UNL     1      -2.254   3.878   0.054  0.00  0.00    +0.034 A 
ATOM     10  C   UNL     1      -1.101   3.121  -0.011  0.00  0.00    +0.026 A 
ATOM     11  C   UNL     1      -1.176   1.736   0.073  0.00  0.00    +0.037 A 
BRANCH   8  12
ATOM     12  N   UNL     1      -4.716   4.075   0.271  0.00  0.00    +0.056 N 
ATOM     13  O   UNL     1      -4.648   5.289   0.197  0.00  0.00    -0.126 OA
ATOM     14  O   UNL     1      -5.798   3.533   0.402  0.00  0.00    -0.126 OA
ENDBRANCH   8  12
ENDBRANCH   1  11
BRANCH   2  15
ATOM     15  C   UNL     1       2.342   0.578   0.558  0.00  0.00    +0.037 A 
ATOM     16  C   UNL     1       2.298  -0.710   0.022  0.00  0.00    +0.014 A 
ATOM     17  C   UNL     1       3.430  -1.498   0.034  0.00  0.00    +0.015 A 
ATOM     18  C   UNL     1       4.605  -1.018   0.586  0.00  0.00    +0.013 A 
ATOM     19  C   UNL     1       4.654   0.257   1.124  0.00  0.00    +0.015 A 
ATOM     20  C   UNL     1       3.531   1.057   1.113  0.00  0.00    +0.014 A 
ATOM     21  I   UNL     1       6.317  -2.226   0.607  0.00  0.00    -0.044 I 
ENDBRANCH   2  15
TORSDOF 3
