REMARK  Name = ZINC39205044
REMARK  5 active torsions:
REMARK  status: ('A' for Active; 'I' for Inactive)
REMARK    1  A    between atoms: C_4  and  C_7
REMARK    2  A    between atoms: N_9  and  C_10
REMARK    3  A    between atoms: C_15  and  C_16
REMARK    4  A    between atoms: N_18  and  N_19
REMARK    5  A    between atoms: C_20  and  C_21
REMARK                            x       y       z     vdW  Elec       q    Type
REMARK                         _______ _______ _______ _____ _____    ______ ____
ROOT
ATOM      1  C   UNL     1       4.954  -2.661  -0.153  0.00  0.00    +0.046 A 
ATOM      2  C   UNL     1       6.122  -1.910  -0.147  0.00  0.00    +0.024 A 
ATOM      3  C   UNL     1       7.347  -2.536  -0.253  0.00  0.00    +0.002 A 
ATOM      4  C   UNL     1       7.423  -3.916  -0.366  0.00  0.00    +0.001 A 
ATOM      5  C   UNL     1       6.275  -4.677  -0.373  0.00  0.00    +0.015 A 
ATOM      6  C   UNL     1       5.027  -4.059  -0.261  0.00  0.00    +0.060 A 
ENDROOT
BRANCH   1   9
ATOM      7  C   UNL     1       3.623  -0.828   0.553  0.00  0.00    +0.248 C 
ATOM      8  O   UNL     1       4.597  -0.338   1.089  0.00  0.00    -0.270 OA
ATOM      9  N   UNL     1       3.717  -2.032  -0.047  0.00  0.00    -0.281 N 
ATOM     10  H   UNL     1       2.923  -2.459  -0.404  0.00  0.00    +0.155 HD
BRANCH   7  14
ATOM     11  C   UNL     1      -0.080   1.253   0.567  0.00  0.00    +0.000 A 
ATOM     12  C   UNL     1       1.027   1.813   1.178  0.00  0.00    +0.001 A 
ATOM     13  C   UNL     1       2.233   1.143   1.177  0.00  0.00    +0.013 A 
ATOM     14  C   UNL     1       2.334  -0.104   0.558  0.00  0.00    +0.037 A 
ATOM     15  C   UNL     1       1.213  -0.664  -0.058  0.00  0.00    +0.013 A 
ATOM     16  C   UNL     1       0.013   0.017  -0.049  0.00  0.00    +0.001 A 
ENDBRANCH   7  14
ENDBRANCH   1   9
BRANCH   6  17
ATOM     17  C   UNL     1       3.795  -4.868  -0.263  0.00  0.00    +0.265 C 
ATOM     18  O   UNL     1       2.709  -4.322  -0.262  0.00  0.00    -0.268 OA
ATOM     19  N   UNL     1       3.873  -6.213  -0.266  0.00  0.00    -0.203 N 
ATOM     20  H   UNL     1       4.739  -6.649  -0.267  0.00  0.00    +0.178 HD
BRANCH  19  21
ATOM     21  N   UNL     1       2.702  -6.983  -0.268  0.00  0.00    -0.188 NA
ATOM     22  C   UNL     1       2.777  -8.290  -0.271  0.00  0.00    +0.136 C 
BRANCH  22  23
ATOM     23  C   UNL     1       1.606  -9.060  -0.273  0.00  0.00    +0.000 C 
ATOM     24  C   UNL     1       1.512 -10.450  -0.270  0.00  0.00    +0.004 A 
ATOM     25  C   UNL     1       2.486 -11.473  -0.266  0.00  0.00    +0.010 A 
ATOM     26  C   UNL     1       2.096 -12.773  -0.265  0.00  0.00    +0.001 A 
ATOM     27  C   UNL     1       0.746 -13.133  -0.269  0.00  0.00    +0.002 A 
ATOM     28  C   UNL     1      -0.242 -12.206  -0.273  0.00  0.00    +0.026 A 
ATOM     29  C   UNL     1       0.087 -10.824  -0.274  0.00  0.00    +0.043 A 
ATOM     30  N   UNL     1      -0.672  -9.748  -0.278  0.00  0.00    -0.380 N 
ATOM     31  C   UNL     1       0.180  -8.555  -0.271  0.00  0.00    +0.150 C 
ATOM     32  H   UNL     1      -1.642  -9.745  -0.280  0.00  0.00    +0.160 HD
ENDBRANCH  22  23
ENDBRANCH  19  21
ENDBRANCH   6  17
TORSDOF 5
