REMARK  Name = ZINC40816279
REMARK  4 active torsions:
REMARK  status: ('A' for Active; 'I' for Inactive)
REMARK    1  A    between atoms: C_1  and  C_2
REMARK    2  A    between atoms: C_6  and  O_27
REMARK    3  A    between atoms: C_7  and  O_26
REMARK    4  A    between atoms: C_13  and  C_15
REMARK                            x       y       z     vdW  Elec       q    Type
REMARK                         _______ _______ _______ _____ _____    ______ ____
ROOT
ATOM      1  C   UNL     1      -0.746   0.443  -0.316  0.00  0.00    +0.033 C 
ATOM      2  C   UNL     1      -0.222  -0.960  -0.001  0.00  0.00    +0.104 C 
ATOM      3  C   UNL     1      -1.387  -1.887   0.243  0.00  0.00    -0.020 A 
ATOM      4  C   UNL     1      -2.161  -2.253  -0.851  0.00  0.00    +0.055 A 
ATOM      5  C   UNL     1      -3.248  -3.092  -0.693  0.00  0.00    +0.159 A 
ATOM      6  C   UNL     1      -3.568  -3.571   0.574  0.00  0.00    +0.158 A 
ATOM      7  C   UNL     1      -2.792  -3.207   1.659  0.00  0.00    +0.053 A 
ATOM      8  C   UNL     1      -1.695  -2.369   1.495  0.00  0.00    -0.037 A 
ATOM      9  C   UNL     1      -0.882  -2.039   2.720  0.00  0.00    +0.054 C 
ATOM     10  C   UNL     1      -0.048  -0.779   2.497  0.00  0.00    +0.113 C 
ATOM     11  N   UNL     1       0.625  -0.907   1.195  0.00  0.00    -0.289 N 
ATOM     12  C   UNL     1       1.968  -0.974   1.105  0.00  0.00    +0.263 C 
ATOM     13  O   UNL     1       2.649  -0.907   2.111  0.00  0.00    -0.268 OA
ENDROOT
BRANCH  12  14
ATOM     14  C   UNL     1       2.611  -1.126  -0.208  0.00  0.00    +0.103 A 
ATOM     15  C   UNL     1       3.825  -1.695  -0.430  0.00  0.00    +0.041 A 
ATOM     16  C   UNL     1       4.077  -1.646  -1.822  0.00  0.00    +0.003 A 
ATOM     17  C   UNL     1       5.146  -2.072  -2.622  0.00  0.00    +0.048 A 
ATOM     18  C   UNL     1       5.100  -1.882  -3.974  0.00  0.00    +0.124 A 
ATOM     19  C   UNL     1       4.000  -1.269  -4.566  0.00  0.00    +0.040 A 
ATOM     20  C   UNL     1       2.939  -0.843  -3.800  0.00  0.00    +0.029 A 
ATOM     21  C   UNL     1       2.963  -1.025  -2.420  0.00  0.00    +0.047 A 
ATOM     22  N   UNL     1       2.074  -0.720  -1.415  0.00  0.00    -0.351 N 
ATOM     23  H   UNL     1       1.214  -0.289  -1.533  0.00  0.00    +0.166 HD
ATOM     24  F   UNL     1       6.132  -2.292  -4.743  0.00  0.00    -0.205 F 
ENDBRANCH  12  14
BRANCH   6  25
ATOM     25  O   UNL     1      -4.638  -4.392   0.745  0.00  0.00    -0.503 OA
ATOM     26  H   UNL     1      -4.430  -5.333   0.659  0.00  0.00    +0.292 HD
ENDBRANCH   6  25
BRANCH   5  27
ATOM     27  O   UNL     1      -4.002  -3.446  -1.768  0.00  0.00    -0.503 OA
ATOM     28  H   UNL     1      -3.698  -4.249  -2.213  0.00  0.00    +0.292 HD
ENDBRANCH   5  27
TORSDOF 3
