REMARK  Name = ZINC13358450
REMARK  7 active torsions:
REMARK  status: ('A' for Active; 'I' for Inactive)
REMARK    1  A    between atoms: C_1  and  C_2
REMARK    2  A    between atoms: C_3  and  S_8
REMARK    3  A    between atoms: C_4  and  C_7
REMARK    4  A    between atoms: S_8  and  N_11
REMARK    5  A    between atoms: C_14  and  C_17
REMARK    6  A    between atoms: C_17  and  C_18
REMARK    7  A    between atoms: C_23  and  N_67
REMARK                            x       y       z     vdW  Elec       q    Type
REMARK                         _______ _______ _______ _____ _____    ______ ____
ROOT
ATOM      1  N   UNL     1      -1.691   4.719  -0.272  0.00  0.00    -0.176 NA
ATOM      2  C   UNL     1      -1.730   4.197  -1.645  0.00  0.00    +0.110 C 
ATOM      3  C   UNL     1      -1.878   5.366  -2.617  0.00  0.00    +0.021 C 
ATOM      4  C   UNL     1      -3.099   6.200  -2.227  0.00  0.00    +0.000 C 
ATOM      5  C   UNL     1      -2.905   6.764  -0.818  0.00  0.00    +0.021 C 
ATOM      6  C   UNL     1      -2.772   5.607   0.177  0.00  0.00    +0.110 C 
ENDROOT
BRANCH   1   7
ATOM      7  S   UNL     1      -0.448   4.321   0.748  0.00  0.00    +0.066 S 
ATOM      8  O   UNL     1      -0.370   5.356   1.717  0.00  0.00    -0.153 OA
ATOM      9  O   UNL     1       0.653   3.962  -0.075  0.00  0.00    -0.153 OA
BRANCH   7  12
ATOM     10  C   UNL     1      -2.118   3.903   3.687  0.00  0.00    +0.071 C 
ATOM     11  C   UNL     1      -1.626   2.762   2.835  0.00  0.00    +0.107 A 
ATOM     12  C   UNL     1      -0.929   2.860   1.609  0.00  0.00    +0.170 A 
ATOM     13  C   UNL     1      -0.718   1.572   1.248  0.00  0.00    +0.161 A 
ATOM     14  O   UNL     1      -1.256   0.814   2.214  0.00  0.00    -0.358 OA
ATOM     15  N   UNL     1      -1.754   1.491   3.084  0.00  0.00    -0.081 NA
ATOM     16  C   UNL     1      -0.013   1.086   0.008  0.00  0.00    +0.091 C 
ENDBRANCH   7  12
ENDBRANCH   1   7
BRANCH   4  17
ATOM     17  C   UNL     1      -3.268   7.353  -3.219  0.00  0.00    +0.099 C 
BRANCH  17  18
ATOM     18  C   UNL     1      -3.581   6.799  -4.585  0.00  0.00    +0.216 C 
ATOM     19  O   UNL     1      -3.662   5.600  -4.749  0.00  0.00    -0.276 OA
ATOM     20  N   UNL     1      -3.771   7.635  -5.624  0.00  0.00    -0.302 N 
ATOM     21  C   UNL     1      -3.682   9.090  -5.440  0.00  0.00    +0.106 C 
ATOM     22  C   UNL     1      -2.679   9.651  -6.458  0.00  0.00    +0.004 C 
ATOM     23  C   UNL     1      -3.095   9.221  -7.867  0.00  0.00    -0.066 C 
ATOM     24  C   UNL     1      -3.075   7.694  -7.962  0.00  0.00    +0.004 C 
ATOM     25  C   UNL     1      -4.078   7.110  -6.962  0.00  0.00    +0.106 C 
BRANCH  23  31
ATOM     26  C   UNL     1      -0.787   9.330  -8.588  0.00  0.00    -0.078 C 
ATOM     27  C   UNL     1       0.134   9.817  -9.709  0.00  0.00    -0.019 C 
ATOM     28  C   UNL     1       0.087  11.346  -9.775  0.00  0.00    -0.004 C 
ATOM     29  C   UNL     1      -1.360  11.795  -9.998  0.00  0.00    -0.019 C 
ATOM     30  C   UNL     1      -2.238  11.251  -8.868  0.00  0.00    -0.078 C 
ATOM     31  N   UNL     1      -2.168   9.774  -8.875  0.00  0.00    +0.382 N 
ATOM     32  H   UNL     1      -2.442   9.432  -9.803  0.00  0.00    -0.081 HD
ENDBRANCH  23  31
ENDBRANCH  17  18
ENDBRANCH   4  17
TORSDOF 5
