REMARK  Name = ZINC44796611
REMARK  6 active torsions:
REMARK  status: ('A' for Active; 'I' for Inactive)
REMARK    1  A    between atoms: C_1  and  N_2
REMARK    2  A    between atoms: N_5  and  C_8
REMARK    3  A    between atoms: C_11  and  N_18
REMARK    4  A    between atoms: C_12  and  C_14
REMARK    5  A    between atoms: C_19  and  C_21
REMARK    6  A    between atoms: C_24  and  C_27
REMARK                            x       y       z     vdW  Elec       q    Type
REMARK                         _______ _______ _______ _____ _____    ______ ____
ROOT
ATOM      1  C   UNL     1      -1.003  -3.589   1.790  0.00  0.00    +0.030 A 
ATOM      2  C   UNL     1      -2.304  -4.060   1.664  0.00  0.00    +0.025 A 
ATOM      3  C   UNL     1      -2.748  -5.083   2.477  0.00  0.00    +0.026 A 
ATOM      4  C   UNL     1      -1.895  -5.642   3.420  0.00  0.00    +0.045 A 
ATOM      5  C   UNL     1      -0.595  -5.171   3.546  0.00  0.00    +0.078 A 
ATOM      6  C   UNL     1      -0.148  -4.151   2.729  0.00  0.00    +0.037 A 
ENDROOT
BRANCH   1  11
ATOM      7  C   UNL     1      -0.121   1.504   0.030  0.00  0.00    -0.096 C 
ATOM      8  N   UNL     1      -0.075   0.035   0.023  0.00  0.00    +0.380 N 
ATOM      9  C   UNL     1      -1.444  -0.495   0.009  0.00  0.00    -0.060 C 
ATOM     10  C   UNL     1      -1.398  -2.022  -0.114  0.00  0.00    +0.086 C 
ATOM     11  N   UNL     1      -0.552  -2.551   0.966  0.00  0.00    -0.333 N 
ATOM     12  C   UNL     1       0.781  -1.960   1.156  0.00  0.00    +0.086 C 
ATOM     13  C   UNL     1       0.632  -0.436   1.220  0.00  0.00    -0.060 C 
ATOM     14  H   UNL     1       0.413  -0.280  -0.802  0.00  0.00    -0.082 HD
ENDBRANCH   1  11
BRANCH   5  15
ATOM     15  C   UNL     1       0.330  -5.777   4.569  0.00  0.00    +0.419 C 
ATOM     16  F   UNL     1       1.575  -5.142   4.506  0.00  0.00    -0.166 F 
ATOM     17  F   UNL     1      -0.214  -5.611   5.847  0.00  0.00    -0.166 F 
ATOM     18  F   UNL     1       0.489  -7.141   4.304  0.00  0.00    -0.166 F 
ENDBRANCH   5  15
BRANCH   4  19
ATOM     19  N   UNL     1      -2.347  -6.680   4.245  0.00  0.00    -0.281 N 
ATOM     20  C   UNL     1      -3.227  -7.583   3.770  0.00  0.00    +0.248 C 
ATOM     21  O   UNL     1      -3.551  -7.559   2.599  0.00  0.00    -0.270 OA
ATOM     22  H   UNL     1      -2.026  -6.748   5.158  0.00  0.00    +0.155 HD
BRANCH  20  23
ATOM     23  C   UNL     1      -3.799  -8.604   4.675  0.00  0.00    +0.037 A 
ATOM     24  C   UNL     1      -3.431  -8.628   6.021  0.00  0.00    +0.014 A 
ATOM     25  C   UNL     1      -3.964  -9.579   6.864  0.00  0.00    +0.019 A 
ATOM     26  C   UNL     1      -4.872 -10.518   6.371  0.00  0.00    +0.052 A 
ATOM     27  C   UNL     1      -5.240 -10.494   5.024  0.00  0.00    +0.019 A 
ATOM     28  C   UNL     1      -4.711  -9.540   4.183  0.00  0.00    +0.014 A 
BRANCH  26  29
ATOM     29  C   UNL     1      -5.426 -11.507   7.247  0.00  0.00    +0.099 C 
ATOM     30  N   UNL     1      -5.865 -12.291   7.941  0.00  0.00    -0.191 NA
ENDBRANCH  26  29
ENDBRANCH  20  23
ENDBRANCH   4  19
TORSDOF 5
