REMARK  Name = ZINC45673160
REMARK  8 active torsions:
REMARK  status: ('A' for Active; 'I' for Inactive)
REMARK    1  A    between atoms: C_1  and  C_2
REMARK    2  A    between atoms: C_2  and  C_3
REMARK    3  A    between atoms: C_2  and  C_4
REMARK    4  A    between atoms: C_2  and  O_5
REMARK    5  A    between atoms: O_5  and  C_6
REMARK    6  A    between atoms: C_11  and  C_14
REMARK    7  A    between atoms: C_17  and  N_22
REMARK    8  A    between atoms: C_19  and  C_20
REMARK                            x       y       z     vdW  Elec       q    Type
REMARK                         _______ _______ _______ _____ _____    ______ ____
ROOT
ATOM      1  C   UNL     1       1.952  -0.085  -1.337  0.00  0.00    +0.403 C 
ATOM      2  O   UNL     1       2.488   0.619  -0.503  0.00  0.00    -0.226 OA
ATOM      3  N   UNL     1       2.641  -0.485  -2.424  0.00  0.00    -0.267 N 
ATOM      4  C   UNL     1       2.005  -1.331  -3.443  0.00  0.00    +0.111 C 
ATOM      5  C   UNL     1       2.874  -2.573  -3.666  0.00  0.00    +0.027 C 
ATOM      6  C   UNL     1       4.300  -2.137  -4.011  0.00  0.00    +0.023 C 
ATOM      7  C   UNL     1       4.888  -1.339  -2.845  0.00  0.00    +0.027 C 
ATOM      8  C   UNL     1       4.040  -0.078  -2.616  0.00  0.00    +0.111 C 
ENDROOT
BRANCH   6   9
ATOM      9  C   UNL     1       5.150  -3.356  -4.263  0.00  0.00    -0.027 A 
ATOM     10  C   UNL     1       5.316  -4.300  -3.270  0.00  0.00    +0.007 A 
ATOM     11  C   UNL     1       6.094  -5.419  -3.497  0.00  0.00    +0.023 A 
ATOM     12  C   UNL     1       6.716  -5.602  -4.727  0.00  0.00    +0.026 A 
ATOM     13  C   UNL     1       6.556  -4.660  -5.731  0.00  0.00    +0.041 A 
ATOM     14  C   UNL     1       5.765  -3.533  -5.505  0.00  0.00    +0.057 A 
BRANCH  12  15
ATOM     15  N   UNL     1       7.502  -6.734  -4.951  0.00  0.00    -0.358 N 
ATOM     16  H   UNL     1       7.614  -7.394  -4.248  0.00  0.00    +0.142 HD
ATOM     17  H   UNL     1       7.936  -6.862  -5.809  0.00  0.00    +0.142 HD
ENDBRANCH  12  15
BRANCH  14  18
ATOM     18  C   UNL     1       5.590  -2.558  -6.539  0.00  0.00    +0.099 C 
ATOM     19  N   UNL     1       5.451  -1.784  -7.359  0.00  0.00    -0.191 NA
ENDBRANCH  14  18
ENDBRANCH   6   9
BRANCH   1  20
ATOM     20  O   UNL     1       0.671  -0.465  -1.174  0.00  0.00    -0.445 OA
BRANCH  20  22
ATOM     21  C   UNL     1      -0.019   1.526   0.010  0.00  0.00    +0.055 C 
ATOM     22  C   UNL     1       0.002  -0.004   0.002  0.00  0.00    +0.107 C 
ATOM     23  C   UNL     1       0.742  -0.511   1.242  0.00  0.00    +0.055 C 
ATOM     24  C   UNL     1      -1.433  -0.534   0.013  0.00  0.00    +0.055 C 
ENDBRANCH  20  22
ENDBRANCH   1  20
TORSDOF 5
