REMARK  Name = ZINC04475511
REMARK  6 active torsions:
REMARK  status: ('A' for Active; 'I' for Inactive)
REMARK    1  A    between atoms: C_1  and  C_2
REMARK    2  A    between atoms: N_6  and  N_7
REMARK    3  A    between atoms: C_8  and  C_9
REMARK    4  A    between atoms: C_12  and  O_16
REMARK    5  A    between atoms: C_14  and  O_15
REMARK    6  A    between atoms: N_17  and  C_18
REMARK                            x       y       z     vdW  Elec       q    Type
REMARK                         _______ _______ _______ _____ _____    ______ ____
ROOT
ATOM      1  C   UNL     1      -1.235   2.277   0.759  0.00  0.00    +0.064 C 
ATOM      2  C   UNL     1      -0.047   1.362   0.905  0.00  0.00    +0.030 A 
ATOM      3  C   UNL     1      -0.193   0.169   1.486  0.00  0.00    +0.070 A 
ATOM      4  S   UNL     1       1.463  -0.494   1.400  0.00  0.00    -0.056 S 
ATOM      5  C   UNL     1       2.238   0.892   0.583  0.00  0.00    +0.199 A 
ATOM      6  N   UNL     1       3.499   1.051   0.214  0.00  0.00    -0.124 NA
ATOM      7  N   UNL     1       1.172   1.753   0.441  0.00  0.00    -0.291 N 
ENDROOT
BRANCH   7   8
ATOM      8  C   UNL     1       1.337   3.001  -0.170  0.00  0.00    +0.049 A 
ATOM      9  C   UNL     1       0.979   4.160   0.507  0.00  0.00    +0.026 A 
ATOM     10  C   UNL     1       1.149   5.391  -0.096  0.00  0.00    +0.002 A 
ATOM     11  C   UNL     1       1.665   5.469  -1.377  0.00  0.00    +0.000 A 
ATOM     12  C   UNL     1       2.018   4.317  -2.056  0.00  0.00    +0.002 A 
ATOM     13  C   UNL     1       1.856   3.084  -1.456  0.00  0.00    +0.026 A 
ENDBRANCH   7   8
BRANCH   6  14
ATOM     14  N   UNL     1       3.894   2.181  -0.265  0.00  0.00    -0.154 NA
ATOM     15  C   UNL     1       4.656   2.211  -1.326  0.00  0.00    +0.146 C 
BRANCH  15  16
ATOM     16  C   UNL     1       5.225   3.486  -1.787  0.00  0.00    +0.036 A 
ATOM     17  C   UNL     1       5.965   3.537  -2.973  0.00  0.00    +0.016 A 
ATOM     18  C   UNL     1       6.493   4.735  -3.403  0.00  0.00    +0.046 A 
ATOM     19  C   UNL     1       6.301   5.891  -2.658  0.00  0.00    +0.120 A 
ATOM     20  C   UNL     1       5.573   5.851  -1.477  0.00  0.00    +0.091 A 
ATOM     21  C   UNL     1       5.034   4.656  -1.036  0.00  0.00    +0.129 A 
BRANCH  21  22
ATOM     22  O   UNL     1       4.322   4.615   0.120  0.00  0.00    -0.506 OA
ATOM     23  H   UNL     1       4.865   4.512   0.913  0.00  0.00    +0.292 HD
ENDBRANCH  21  22
BRANCH  19  24
ATOM     24  O   UNL     1       6.829   7.068  -3.087  0.00  0.00    -0.507 OA
ATOM     25  H   UNL     1       7.723   7.240  -2.760  0.00  0.00    +0.292 HD
ENDBRANCH  19  24
ENDBRANCH  15  16
ENDBRANCH   6  14
TORSDOF 5
