REMARK  Name = ZINC63014014
REMARK  3 active torsions:
REMARK  status: ('A' for Active; 'I' for Inactive)
REMARK    1  A    between atoms: C_1  and  C_2
REMARK    2  A    between atoms: C_6  and  C_22
REMARK    3  A    between atoms: C_8  and  N_11
REMARK                            x       y       z     vdW  Elec       q    Type
REMARK                         _______ _______ _______ _____ _____    ______ ____
ROOT
ATOM      1  N   UNL     1      -0.701  -2.633   0.911  0.00  0.00    +0.387 N 
ATOM      2  C   UNL     1      -1.609  -3.309  -0.009  0.00  0.00    -0.036 C 
ATOM      3  C   UNL     1      -2.276  -4.535   0.575  0.00  0.00    +0.210 C 
ATOM      4  O   UNL     1      -1.312  -5.562   0.840  0.00  0.00    -0.494 OA
ATOM      5  C   UNL     1      -0.676  -5.465   2.040  0.00  0.00    +0.122 A 
ATOM      6  C   UNL     1      -0.914  -6.405   3.033  0.00  0.00    +0.046 A 
ATOM      7  C   UNL     1      -0.279  -6.285   4.254  0.00  0.00    +0.004 A 
ATOM      8  C   UNL     1       0.589  -5.233   4.486  0.00  0.00    +0.000 A 
ATOM      9  C   UNL     1       0.832  -4.301   3.493  0.00  0.00    +0.005 A 
ATOM     10  C   UNL     1       0.204  -4.426   2.270  0.00  0.00    -0.022 A 
ATOM     11  C   UNL     1       0.500  -3.438   1.159  0.00  0.00    -0.039 C 
ATOM     12  H   UNL     1      -1.177  -2.471   1.786  0.00  0.00    -0.081 HD
ENDROOT
BRANCH   1  18
ATOM     13  C   UNL     1       1.862  -0.477  -2.731  0.00  0.00    +0.007 C 
ATOM     14  C   UNL     1       0.986  -0.237  -1.500  0.00  0.00    -0.016 C 
ATOM     15  C   UNL     1       1.773   0.566  -0.462  0.00  0.00    +0.004 C 
ATOM     16  C   UNL     1       0.897   0.806   0.769  0.00  0.00    +0.013 C 
ATOM     17  C   UNL     1       0.484  -0.539   1.371  0.00  0.00    +0.089 C 
ATOM     18  C   UNL     1      -0.304  -1.342   0.333  0.00  0.00    -0.054 C 
ATOM     19  C   UNL     1       0.572  -1.582  -0.898  0.00  0.00    -0.011 C 
BRANCH  17  20
ATOM     20  C   UNL     1      -0.379  -0.302   2.584  0.00  0.00    +0.357 C 
ATOM     21  O   UNL     1      -1.431   0.304   2.474  0.00  0.00    -0.246 OA
ATOM     22  O   UNL     1      -0.026  -0.718   3.674  0.00  0.00    -0.246 OA
ENDBRANCH  17  20
ENDBRANCH   1  18
TORSDOF 2
