REMARK  Name = ZINC12284883
REMARK  9 active torsions:
REMARK  status: ('A' for Active; 'I' for Inactive)
REMARK    1  A    between atoms: C_1  and  C_2
REMARK    2  A    between atoms: C_4  and  C_31
REMARK    3  A    between atoms: C_5  and  N_9
REMARK    4  A    between atoms: C_6  and  C_8
REMARK    5  A    between atoms: C_10  and  C_12
REMARK    6  A    between atoms: C_12  and  C_29
REMARK    7  A    between atoms: C_13  and  C_14
REMARK    8  A    between atoms: C_17  and  C_19
REMARK    9  A    between atoms: C_23  and  N_25
REMARK                            x       y       z     vdW  Elec       q    Type
REMARK                         _______ _______ _______ _____ _____    ______ ____
ROOT
ATOM      1  C   UNL     1      -0.282   1.498   0.533  0.00  0.00    +0.117 C 
ATOM      2  C   UNL     1       0.437   2.101   1.556  0.00  0.00    +0.070 C 
ENDROOT
BRANCH   2   3
ATOM      3  C   UNL     1       1.419   1.375   2.248  0.00  0.00    +0.130 A 
ATOM      4  C   UNL     1       2.640   1.869   2.685  0.00  0.00    +0.050 A 
ATOM      5  C   UNL     1       3.296   0.815   3.320  0.00  0.00    +0.050 A 
ATOM      6  C   UNL     1       2.462  -0.281   3.251  0.00  0.00    +0.136 A 
ATOM      7  O   UNL     1       1.337   0.076   2.607  0.00  0.00    -0.455 OA
BRANCH   6   8
ATOM      8  C   UNL     1       2.754  -1.620   3.797  0.00  0.00    +0.020 A 
ATOM      9  C   UNL     1       3.916  -1.836   4.543  0.00  0.00    +0.013 A 
ATOM     10  C   UNL     1       4.182  -3.090   5.051  0.00  0.00    +0.023 A 
ATOM     11  C   UNL     1       3.301  -4.134   4.823  0.00  0.00    +0.071 A 
ATOM     12  C   UNL     1       2.148  -3.927   4.083  0.00  0.00    +0.145 A 
ATOM     13  C   UNL     1       1.867  -2.677   3.575  0.00  0.00    +0.045 A 
ATOM     14 CL   UNL     1       3.644  -5.710   5.465  0.00  0.00    -0.081 Cl
BRANCH  12  15
ATOM     15  N   UNL     1       1.213  -5.049   3.844  0.00  0.00    +0.058 N 
ATOM     16  O   UNL     1       0.250  -4.894   3.115  0.00  0.00    -0.126 OA
ATOM     17  O   UNL     1       1.406  -6.128   4.377  0.00  0.00    -0.126 OA
ENDBRANCH  12  15
ENDBRANCH   6   8
ENDBRANCH   2   3
BRANCH   1  19
ATOM     18  N   UNL     1      -0.637  -0.461  -0.876  0.00  0.00    -0.280 N 
ATOM     19  C   UNL     1       0.137   0.190   0.015  0.00  0.00    +0.259 C 
ATOM     20  O   UNL     1       1.183  -0.306   0.390  0.00  0.00    -0.269 OA
ATOM     21  H   UNL     1      -1.431  -0.033  -1.232  0.00  0.00    +0.155 HD
BRANCH  18  26
ATOM     22  C   UNL     1       0.751  -5.702  -2.543  0.00  0.00    +0.044 C 
ATOM     23  C   UNL     1       0.383  -4.309  -2.100  0.00  0.00    -0.050 A 
ATOM     24  C   UNL     1      -0.864  -4.067  -1.554  0.00  0.00    +0.008 A 
ATOM     25  C   UNL     1      -1.206  -2.792  -1.147  0.00  0.00    -0.029 A 
ATOM     26  C   UNL     1      -0.295  -1.753  -1.287  0.00  0.00    +0.040 A 
ATOM     27  C   UNL     1       0.955  -1.999  -1.841  0.00  0.00    -0.029 A 
ATOM     28  C   UNL     1       1.292  -3.277  -2.241  0.00  0.00    +0.008 A 
ATOM     29  C   UNL     1       1.944  -0.873  -2.001  0.00  0.00    +0.045 C 
ATOM     30  C   UNL     1      -2.565  -2.529  -0.551  0.00  0.00    +0.045 C 
ENDBRANCH  18  26
ENDBRANCH   1  19
BRANCH   1  31
ATOM     31  C   UNL     1      -1.429   2.153  -0.020  0.00  0.00    +0.104 C 
ATOM     32  N   UNL     1      -2.338   2.673  -0.459  0.00  0.00    -0.191 NA
ENDBRANCH   1  31
TORSDOF 6
