REMARK  Name = ZINC26439448
REMARK  5 active torsions:
REMARK  status: ('A' for Active; 'I' for Inactive)
REMARK    1  A    between atoms: C_1  and  C_2
REMARK    2  A    between atoms: C_9  and  C_11
REMARK    3  A    between atoms: C_11  and  C_13
REMARK    4  A    between atoms: C_11  and  N_14
REMARK    5  A    between atoms: C_17  and  N_20
REMARK                            x       y       z     vdW  Elec       q    Type
REMARK                         _______ _______ _______ _____ _____    ______ ____
ROOT
ATOM      1  N   UNL     1      -2.701  -0.650   3.229  0.00  0.00    -0.292 NA
ATOM      2  C   UNL     1      -2.170  -0.206   4.524  0.00  0.00    +0.083 C 
ATOM      3  C   UNL     1      -3.266  -0.308   5.588  0.00  0.00    +0.000 C 
ATOM      4  C   UNL     1      -3.747  -1.759   5.681  0.00  0.00    -0.066 C 
ATOM      5  C   UNL     1      -4.250  -2.211   4.308  0.00  0.00    +0.000 C 
ATOM      6  C   UNL     1      -3.125  -2.055   3.281  0.00  0.00    +0.083 C 
ENDROOT
BRANCH   4   7
ATOM      7  N   UNL     1      -4.839  -1.852   6.659  0.00  0.00    +0.382 N 
ATOM      8  C   UNL     1      -5.962  -0.985   6.278  0.00  0.00    -0.078 C 
ATOM      9  C   UNL     1      -7.134  -1.216   7.234  0.00  0.00    -0.019 C 
ATOM     10  C   UNL     1      -6.688  -0.904   8.665  0.00  0.00    -0.004 C 
ATOM     11  C   UNL     1      -5.487  -1.786   9.021  0.00  0.00    -0.019 C 
ATOM     12  C   UNL     1      -4.362  -1.538   8.012  0.00  0.00    -0.078 C 
ATOM     13  H   UNL     1      -5.203  -2.890   6.664  0.00  0.00    -0.081 HD
ENDBRANCH   4   7
BRANCH   1  14
ATOM     14  C   UNL     1      -1.720  -0.436   2.157  0.00  0.00    +0.140 C 
ATOM     15  C   UNL     1      -2.296  -0.935   0.830  0.00  0.00    +0.034 C 
BRANCH  14  23
ATOM     16  C   UNL     1      -1.060   3.700   1.977  0.00  0.00    +0.028 C 
ATOM     17  C   UNL     1       0.148   2.861   1.557  0.00  0.00    +0.073 C 
ATOM     18  C   UNL     1       0.575   3.249   0.138  0.00  0.00    +0.022 C 
ATOM     19  C   UNL     1       1.693   2.313  -0.328  0.00  0.00    +0.003 C 
ATOM     20  C   UNL     1       1.176   0.873  -0.356  0.00  0.00    +0.019 C 
ATOM     21  C   UNL     1       0.756   0.458   1.058  0.00  0.00    +0.108 C 
ATOM     22  N   UNL     1      -0.212   1.436   1.573  0.00  0.00    -0.297 N 
ATOM     23  C   UNL     1      -1.407   1.034   2.047  0.00  0.00    +0.233 C 
ATOM     24  O   UNL     1      -2.232   1.856   2.386  0.00  0.00    -0.274 OA
ENDBRANCH  14  23
ENDBRANCH   1  14
TORSDOF 3
