REMARK  Name = ZINC00101318
REMARK  3 active torsions:
REMARK  status: ('A' for Active; 'I' for Inactive)
REMARK    1  A    between atoms: C_7  and  C_12
REMARK    2  A    between atoms: C_12  and  C_13
REMARK    3  A    between atoms: C_13  and  C_15
REMARK                            x       y       z     vdW  Elec       q    Type
REMARK                         _______ _______ _______ _____ _____    ______ ____
ROOT
ATOM      1  C   UNL     1      -0.013   1.076   0.008  0.00  0.00    +0.000 A 
ATOM      2  C   UNL     1       1.178   1.782   0.000  0.00  0.00    +0.001 A 
ATOM      3  C   UNL     1       1.169   3.161   0.008  0.00  0.00    +0.015 A 
ATOM      4  C   UNL     1      -0.046   3.848   0.023  0.00  0.00    +0.066 A 
ATOM      5  C   UNL     1      -1.242   3.125   0.031  0.00  0.00    +0.007 A 
ATOM      6  C   UNL     1      -1.222   1.750   0.017  0.00  0.00    +0.008 A 
ATOM      7  C   UNL     1      -2.354   4.144   0.047  0.00  0.00    +0.215 C 
ATOM      8  O   UNL     1      -1.714   5.450   0.048  0.00  0.00    -0.453 OA
ATOM      9  C   UNL     1      -0.380   5.283   0.035  0.00  0.00    +0.340 C 
ATOM     10  O   UNL     1       0.432   6.186   0.032  0.00  0.00    -0.245 OA
ENDROOT
BRANCH   7  11
ATOM     11  C   UNL     1      -3.203   3.975   1.309  0.00  0.00    +0.129 C 
BRANCH  11  12
ATOM     12  C   UNL     1      -4.378   4.916   1.253  0.00  0.00    +0.174 C 
ATOM     13  O   UNL     1      -4.523   5.651   0.297  0.00  0.00    -0.291 OA
BRANCH  12  14
ATOM     14  C   UNL     1      -5.311   4.943   2.311  0.00  0.00    +0.056 A 
ATOM     15  C   UNL     1      -6.452   5.727   2.455  0.00  0.00    +0.020 A 
ATOM     16  C   UNL     1      -7.189   5.550   3.595  0.00  0.00    +0.028 A 
ATOM     17  C   UNL     1      -6.779   4.634   4.517  0.00  0.00    +0.079 A 
ATOM     18  S   UNL     1      -5.339   3.976   3.810  0.00  0.00    -0.074 S 
ATOM     19 CL   UNL     1      -7.523   4.220   6.030  0.00  0.00    -0.076 Cl
ENDBRANCH  12  14
ENDBRANCH  11  12
ENDBRANCH   7  11
TORSDOF 3
