REMARK  Name = ZINC45625288
REMARK  4 active torsions:
REMARK  status: ('A' for Active; 'I' for Inactive)
REMARK    1  A    between atoms: C_1  and  C_2
REMARK    2  A    between atoms: C_7  and  N_8
REMARK    3  A    between atoms: C_9  and  C_11
REMARK    4  A    between atoms: C_13  and  N_18
REMARK                            x       y       z     vdW  Elec       q    Type
REMARK                         _______ _______ _______ _____ _____    ______ ____
ROOT
ATOM      1  N   UNL     1       0.025  -0.015   2.417  0.00  0.00    -0.281 N 
ATOM      2  C   UNL     1      -0.056  -0.695   3.577  0.00  0.00    +0.249 C 
ATOM      3  O   UNL     1      -0.040  -1.911   3.572  0.00  0.00    -0.270 OA
ATOM      4  H   UNL     1       0.078   0.953   2.424  0.00  0.00    +0.155 HD
ENDROOT
BRANCH   1  11
ATOM      5  C   UNL     1      -1.266   1.183   0.182  0.00  0.00    +0.045 C 
ATOM      6  C   UNL     1      -0.585  -0.158   0.085  0.00  0.00    -0.029 A 
ATOM      7  C   UNL     1      -0.571  -0.841  -1.116  0.00  0.00    +0.005 A 
ATOM      8  C   UNL     1       0.054  -2.071  -1.206  0.00  0.00    +0.000 A 
ATOM      9  C   UNL     1       0.665  -2.622  -0.095  0.00  0.00    +0.002 A 
ATOM     10  C   UNL     1       0.655  -1.945   1.108  0.00  0.00    +0.023 A 
ATOM     11  C   UNL     1       0.033  -0.706   1.201  0.00  0.00    +0.037 A 
ENDBRANCH   1  11
BRANCH   2  12
ATOM     12  C   UNL     1      -0.165   0.037   4.856  0.00  0.00    +0.053 A 
ATOM     13  C   UNL     1      -0.190   1.433   4.865  0.00  0.00    +0.047 A 
ATOM     14  C   UNL     1      -0.292   2.110   6.062  0.00  0.00    +0.127 A 
ATOM     15  C   UNL     1      -0.370   1.410   7.253  0.00  0.00    +0.034 A 
ATOM     16  C   UNL     1      -0.346   0.027   7.253  0.00  0.00    +0.018 A 
ATOM     17  C   UNL     1      -0.250  -0.664   6.061  0.00  0.00    +0.030 A 
ATOM     18 BR   UNL     1      -0.225  -2.555   6.061  0.00  0.00    -0.050 Br
BRANCH  14  19
ATOM     19  N   UNL     1      -0.318   3.590   6.073  0.00  0.00    +0.056 N 
ATOM     20  O   UNL     1      -0.250   4.204   5.034  0.00  0.00    -0.126 OA
ATOM     21  O   UNL     1      -0.407   4.186   7.122  0.00  0.00    -0.126 OA
ENDBRANCH  14  19
ENDBRANCH   2  12
TORSDOF 3
