REMARK  Name = ZINC01423828
REMARK  2 active torsions:
REMARK  status: ('A' for Active; 'I' for Inactive)
REMARK    1  A    between atoms: C_6  and  N_7
REMARK    2  A    between atoms: C_8  and  C_10
REMARK                            x       y       z     vdW  Elec       q    Type
REMARK                         _______ _______ _______ _____ _____    ______ ____
ROOT
ATOM      1  N   UNL     1      -1.194   2.136   0.019  0.00  0.00    -0.281 N 
ATOM      2  C   UNL     1      -0.024   1.491  -0.155  0.00  0.00    +0.255 C 
ATOM      3  O   UNL     1       1.001   2.125  -0.312  0.00  0.00    -0.269 OA
ATOM      4  H   UNL     1      -2.022   1.633   0.066  0.00  0.00    +0.155 HD
ENDROOT
BRANCH   2   5
ATOM      5  C   UNL     1       0.013   0.010  -0.161  0.00  0.00    +0.082 C 
ATOM      6  C   UNL     1       1.186  -0.641  -0.347  0.00  0.00    +0.088 C 
ATOM      7  C   UNL     1       1.259  -2.092  -0.392  0.00  0.00    +0.246 C 
ATOM      8  O   UNL     1       2.299  -2.635  -0.066  0.00  0.00    -0.270 OA
ATOM      9  N   UNL     1       0.231  -2.858  -0.782  0.00  0.00    -0.247 N 
ATOM     10  C   UNL     1       0.478  -4.240  -1.217  0.00  0.00    +0.118 C 
ATOM     11  C   UNL     1      -0.269  -4.475  -2.531  0.00  0.00    +0.043 C 
ATOM     12  C   UNL     1      -1.745  -4.142  -2.365  0.00  0.00    +0.146 C 
ATOM     13  N   UNL     1      -1.965  -2.969  -1.542  0.00  0.00    -0.263 NA
ATOM     14  C   UNL     1      -1.056  -2.371  -0.839  0.00  0.00    +0.163 C 
ATOM     15  S   UNL     1      -1.472  -0.914   0.067  0.00  0.00    -0.049 S 
ENDBRANCH   2   5
BRANCH   1  21
ATOM     16  C   UNL     1      -0.158   4.194   0.743  0.00  0.00    +0.026 A 
ATOM     17  C   UNL     1      -0.179   5.571   0.849  0.00  0.00    +0.040 A 
ATOM     18  C   UNL     1      -1.256   6.288   0.357  0.00  0.00    +0.124 A 
ATOM     19  C   UNL     1      -2.313   5.628  -0.246  0.00  0.00    +0.040 A 
ATOM     20  C   UNL     1      -2.295   4.252  -0.360  0.00  0.00    +0.026 A 
ATOM     21  C   UNL     1      -1.215   3.530   0.133  0.00  0.00    +0.034 A 
ATOM     22  F   UNL     1      -1.276   7.635   0.466  0.00  0.00    -0.205 F 
ENDBRANCH   1  21
TORSDOF 2
