REMARK  Name = ZINC19928342
REMARK  6 active torsions:
REMARK  status: ('A' for Active; 'I' for Inactive)
REMARK    1  A    between atoms: C_1  and  O_2
REMARK    2  A    between atoms: O_2  and  C_3
REMARK    3  A    between atoms: C_6  and  C_9
REMARK    4  A    between atoms: C_15  and  O_27
REMARK    5  A    between atoms: C_20  and  C_22
REMARK    6  A    between atoms: O_27  and  C_28
REMARK                            x       y       z     vdW  Elec       q    Type
REMARK                         _______ _______ _______ _____ _____    ______ ____
ROOT
ATOM      1  C   UNL     1       3.506   0.586  -0.016  0.00  0.00    +0.172 C 
ATOM      2  C   UNL     1       3.952  -0.818  -0.341  0.00  0.00    +0.026 C 
ATOM      3  C   UNL     1       3.112  -1.855  -0.329  0.00  0.00    +0.050 C 
ATOM      4  C   UNL     1       3.648  -3.201  -0.644  0.00  0.00    +0.042 A 
ATOM      5  C   UNL     1       2.809  -4.256  -0.979  0.00  0.00    +0.059 A 
ATOM      6  C   UNL     1       3.354  -5.498  -1.264  0.00  0.00    +0.121 A 
ATOM      7  C   UNL     1       4.729  -5.685  -1.213  0.00  0.00    +0.049 A 
ATOM      8  C   UNL     1       5.568  -4.636  -0.880  0.00  0.00    +0.050 A 
ATOM      9  C   UNL     1       5.035  -3.393  -0.596  0.00  0.00    +0.131 A 
ATOM     10  O   UNL     1       5.827  -2.339  -0.270  0.00  0.00    -0.479 OA
ATOM     11  C   UNL     1       5.401  -1.048  -0.705  0.00  0.00    +0.241 C 
ATOM     12  N   UNL     1       1.751  -1.710  -0.035  0.00  0.00    -0.283 N 
ATOM     13  C   UNL     1       1.237  -0.423  -0.013  0.00  0.00    +0.219 A 
ATOM     14  N   UNL     1       2.050   0.663  -0.011  0.00  0.00    -0.221 N 
ATOM     15  N   UNL     1       1.215   1.781   0.000  0.00  0.00    -0.156 NA
ATOM     16  C   UNL     1      -0.016   1.333   0.009  0.00  0.00    +0.247 A 
ATOM     17  N   UNL     1       0.002  -0.004   0.002  0.00  0.00    -0.201 NA
ATOM     18  H   UNL     1       1.135  -2.598   0.167  0.00  0.00    +0.155 HD
ENDROOT
BRANCH   1  22
ATOM     19  C   UNL     1       4.994   1.677   3.839  0.00  0.00    +0.120 A 
ATOM     20  C   UNL     1       5.366   2.406   2.718  0.00  0.00    +0.046 A 
ATOM     21  C   UNL     1       4.883   2.051   1.474  0.00  0.00    +0.009 A 
ATOM     22  C   UNL     1       4.031   0.971   1.343  0.00  0.00    -0.019 A 
ATOM     23  C   UNL     1       3.654   0.246   2.459  0.00  0.00    +0.009 A 
ATOM     24  C   UNL     1       4.138   0.593   3.705  0.00  0.00    +0.046 A 
BRANCH  19  26
ATOM     25  C   UNL     1       5.042   1.229   6.173  0.00  0.00    +0.277 C 
ATOM     26  O   UNL     1       5.468   2.024   5.064  0.00  0.00    -0.495 OA
ENDBRANCH  19  26
ENDBRANCH   1  22
BRANCH  11  27
ATOM     27  C   UNL     1       5.561  -0.949  -2.200  0.00  0.00    +0.034 A 
ATOM     28  C   UNL     1       6.009   0.092  -2.943  0.00  0.00    +0.015 A 
ATOM     29  C   UNL     1       6.075  -0.045  -4.317  0.00  0.00    +0.008 A 
ATOM     30  C   UNL     1       5.680  -1.212  -4.881  0.00  0.00    +0.045 A 
ATOM     31  S   UNL     1       5.202  -2.170  -3.452  0.00  0.00    -0.098 S 
ENDBRANCH  11  27
BRANCH   6  32
ATOM     32  O   UNL     1       2.541  -6.537  -1.593  0.00  0.00    -0.495 OA
ATOM     33  C   UNL     1       3.169  -7.789  -1.874  0.00  0.00    +0.277 C 
ENDBRANCH   6  32
TORSDOF 4
