REMARK  Name = ZINC52879528
REMARK  3 active torsions:
REMARK  status: ('A' for Active; 'I' for Inactive)
REMARK    1  A    between atoms: C_1  and  C_2
REMARK    2  A    between atoms: C_2  and  C_15
REMARK    3  A    between atoms: N_5  and  C_9
REMARK                            x       y       z     vdW  Elec       q    Type
REMARK                         _______ _______ _______ _____ _____    ______ ____
ROOT
ATOM      1  C   UNL     1      -0.019   1.526   0.010  0.00  0.00    +0.047 C 
ATOM      2  C   UNL     1       0.002  -0.004   0.002  0.00  0.00    +0.135 C 
ATOM      3  C   UNL     1      -1.403  -0.557   0.139  0.00  0.00    +0.251 C 
ATOM      4  O   UNL     1      -2.332  -0.392  -0.621  0.00  0.00    -0.272 OA
ATOM      5  N   UNL     1      -1.403  -1.272   1.282  0.00  0.00    -0.221 N 
ATOM      6  C   UNL     1      -0.206  -1.247   1.879  0.00  0.00    +0.310 C 
ATOM      7  O   UNL     1       0.040  -1.819   2.924  0.00  0.00    -0.252 OA
ATOM      8  N   UNL     1       0.695  -0.520   1.195  0.00  0.00    -0.281 N 
ATOM      9  H   UNL     1       1.621  -0.365   1.440  0.00  0.00    +0.152 HD
ENDROOT
BRANCH   5  10
ATOM     10  C   UNL     1      -2.569  -1.986   1.805  0.00  0.00    +0.086 C 
ATOM     11  C   UNL     1      -2.924  -1.439   3.189  0.00  0.00    +0.023 C 
ATOM     12  C   UNL     1      -4.143  -2.185   3.736  0.00  0.00    +0.002 C 
ATOM     13  C   UNL     1      -3.820  -3.677   3.845  0.00  0.00    +0.000 C 
ATOM     14  C   UNL     1      -3.466  -4.225   2.461  0.00  0.00    +0.002 C 
ATOM     15  C   UNL     1      -2.247  -3.478   1.914  0.00  0.00    +0.023 C 
ENDBRANCH   5  10
BRANCH   2  16
ATOM     16  C   UNL     1       0.657  -0.517  -1.255  0.00  0.00    -0.016 A 
ATOM     17  C   UNL     1      -0.107  -0.772  -2.378  0.00  0.00    +0.006 A 
ATOM     18  C   UNL     1       0.493  -1.242  -3.530  0.00  0.00    +0.000 A 
ATOM     19  C   UNL     1       1.859  -1.457  -3.560  0.00  0.00    +0.000 A 
ATOM     20  C   UNL     1       2.623  -1.202  -2.437  0.00  0.00    +0.000 A 
ATOM     21  C   UNL     1       2.023  -0.727  -1.286  0.00  0.00    +0.006 A 
ENDBRANCH   2  16
TORSDOF 2
