REMARK  Name = ZINC39590799
REMARK  6 active torsions:
REMARK  status: ('A' for Active; 'I' for Inactive)
REMARK    1  A    between atoms: C_1  and  C_2
REMARK    2  A    between atoms: C_5  and  O_8
REMARK    3  A    between atoms: O_8  and  C_9
REMARK    4  A    between atoms: C_9  and  C_10
REMARK    5  A    between atoms: C_13  and  C_20
REMARK    6  A    between atoms: C_23  and  C_26
REMARK                            x       y       z     vdW  Elec       q    Type
REMARK                         _______ _______ _______ _____ _____    ______ ____
ROOT
ATOM      1  C   UNL     1       0.090  -6.277   1.043  0.00  0.00    +0.132 C 
ATOM      2  N   UNL     1       0.098  -6.927  -0.074  0.00  0.00    -0.175 NA
ATOM      3  N   UNL     1       0.065  -8.302  -0.149  0.00  0.00    -0.206 N 
ATOM      4  C   UNL     1      -0.254  -9.454  -1.024  0.00  0.00    +0.206 C 
ATOM      5  N   UNL     1      -0.896 -10.456  -0.139  0.00  0.00    -0.231 NA
ATOM      6  N   UNL     1      -0.830  -9.912   1.228  0.00  0.00    -0.224 NA
ATOM      7  C   UNL     1       0.318  -8.986   1.160  0.00  0.00    +0.240 C 
ATOM      8  S   UNL     1       0.113  -7.560   2.288  0.00  0.00    -0.064 S 
ATOM      9  H   UNL     1      -1.851 -10.624  -0.416  0.00  0.00    +0.143 HD
ATOM     10  H   UNL     1      -1.679  -9.419   1.462  0.00  0.00    +0.144 HD
ENDROOT
BRANCH   4  11
ATOM     11  C   UNL     1       1.027 -10.027  -1.634  0.00  0.00    +0.190 C 
ATOM     12  C   UNL     1       0.706 -11.166  -2.584  0.00  0.00    +0.034 C 
ATOM     13  C   UNL     1       1.325 -12.229  -2.034  0.00  0.00    +0.091 C 
ATOM     14  N   UNL     1       1.964 -11.866  -0.891  0.00  0.00    -0.154 NA
ATOM     15  N   UNL     1       1.853 -10.670  -0.599  0.00  0.00    -0.176 NA
BRANCH  13  16
ATOM     16  C   UNL     1       1.309 -13.602  -2.596  0.00  0.00    +0.002 A 
ATOM     17  C   UNL     1       0.624 -13.865  -3.781  0.00  0.00    +0.010 A 
ATOM     18  C   UNL     1       0.613 -15.144  -4.300  0.00  0.00    +0.001 A 
ATOM     19  C   UNL     1       1.281 -16.164  -3.646  0.00  0.00    +0.000 A 
ATOM     20  C   UNL     1       1.963 -15.908  -2.470  0.00  0.00    +0.001 A 
ATOM     21  C   UNL     1       1.985 -14.632  -1.945  0.00  0.00    +0.010 A 
ENDBRANCH  13  16
ENDBRANCH   4  11
BRANCH   1  22
ATOM     22  C   UNL     1       0.072  -4.785   1.249  0.00  0.00    +0.293 C 
BRANCH  22  23
ATOM     23  O   UNL     1       0.057  -4.129  -0.021  0.00  0.00    -0.485 OA
BRANCH  23  28
ATOM     24  C   UNL     1      -0.018   1.503   0.010  0.00  0.00    +0.044 C 
ATOM     25  C   UNL     1       0.002  -0.004   0.002  0.00  0.00    -0.050 A 
ATOM     26  C   UNL     1       0.006  -0.688  -1.200  0.00  0.00    +0.007 A 
ATOM     27  C   UNL     1       0.024  -2.069  -1.210  0.00  0.00    +0.046 A 
ATOM     28  C   UNL     1       0.039  -2.770  -0.013  0.00  0.00    +0.121 A 
ATOM     29  C   UNL     1       0.036  -2.082   1.191  0.00  0.00    +0.046 A 
ATOM     30  C   UNL     1       0.023  -0.701   1.196  0.00  0.00    +0.007 A 
ENDBRANCH  23  28
ENDBRANCH  22  23
ENDBRANCH   1  22
TORSDOF 5
