REMARK  Name = ZINC01638401
REMARK  3 active torsions:
REMARK  status: ('A' for Active; 'I' for Inactive)
REMARK    1  A    between atoms: C_1  and  C_2
REMARK    2  A    between atoms: N_4  and  C_5
REMARK    3  A    between atoms: C_16  and  N_18
REMARK                            x       y       z     vdW  Elec       q    Type
REMARK                         _______ _______ _______ _____ _____    ______ ____
ROOT
ATOM      1  C   UNL     1      -1.213   1.682   0.037  0.00  0.00    +0.056 A 
ATOM      2  C   UNL     1      -1.200   3.056   0.258  0.00  0.00    +0.062 A 
ATOM      3  C   UNL     1      -2.389   3.763   0.282  0.00  0.00    +0.022 A 
ATOM      4  C   UNL     1      -3.591   3.111   0.100  0.00  0.00    +0.010 A 
ATOM      5  C   UNL     1      -3.615   1.732  -0.117  0.00  0.00    -0.012 A 
ATOM      6  C   UNL     1      -2.417   1.024  -0.146  0.00  0.00    -0.013 A 
ATOM      7  C   UNL     1      -2.752  -0.426  -0.395  0.00  0.00    +0.073 C 
ATOM      8  C   UNL     1      -4.255  -0.493  -0.507  0.00  0.00    -0.033 A 
ATOM      9  C   UNL     1      -4.747   0.798  -0.339  0.00  0.00    -0.014 A 
ATOM     10  C   UNL     1      -6.124   1.020  -0.397  0.00  0.00    +0.011 A 
ATOM     11  C   UNL     1      -6.983  -0.037  -0.620  0.00  0.00    +0.033 A 
ATOM     12  C   UNL     1      -6.485  -1.317  -0.786  0.00  0.00    +0.126 A 
ATOM     13  C   UNL     1      -5.121  -1.544  -0.729  0.00  0.00    +0.037 A 
ATOM     14 CL   UNL     1       0.307   3.883   0.495  0.00  0.00    -0.082 Cl
ENDROOT
BRANCH   1  18
ATOM     15  C   UNL     1       1.978   0.099  -1.181  0.00  0.00    +0.109 C 
ATOM     16  C   UNL     1       0.632   0.778  -1.162  0.00  0.00    +0.214 C 
ATOM     17  O   UNL     1       0.129   1.155  -2.199  0.00  0.00    -0.276 OA
ATOM     18  N   UNL     1      -0.011   0.966   0.007  0.00  0.00    -0.284 N 
ATOM     19  H   UNL     1       0.357   0.601   0.828  0.00  0.00    +0.155 HD
ENDBRANCH   1  18
BRANCH  12  20
ATOM     20  N   UNL     1      -7.412  -2.445  -1.024  0.00  0.00    +0.056 N 
ATOM     21  O   UNL     1      -6.975  -3.572  -1.171  0.00  0.00    -0.126 OA
ATOM     22  O   UNL     1      -8.613  -2.246  -1.075  0.00  0.00    -0.126 OA
ENDBRANCH  12  20
TORSDOF 2
