REMARK  Name = ZINC16255526
REMARK  6 active torsions:
REMARK  status: ('A' for Active; 'I' for Inactive)
REMARK    1  A    between atoms: C_1  and  C_2
REMARK    2  A    between atoms: C_2  and  C_20
REMARK    3  A    between atoms: N_5  and  C_9
REMARK    4  A    between atoms: C_9  and  C_10
REMARK    5  A    between atoms: N_12  and  C_13
REMARK    6  A    between atoms: C_13  and  C_14
REMARK                            x       y       z     vdW  Elec       q    Type
REMARK                         _______ _______ _______ _____ _____    ______ ____
ROOT
ATOM      1  C   UNL     1      -2.975   4.183   1.482  0.00  0.00    +0.047 C 
ATOM      2  C   UNL     1      -2.554   3.867   0.046  0.00  0.00    +0.135 C 
ATOM      3  C   UNL     1      -3.625   3.058  -0.658  0.00  0.00    +0.251 C 
ATOM      4  O   UNL     1      -4.034   1.959  -0.349  0.00  0.00    -0.272 OA
ATOM      5  N   UNL     1      -4.028   3.813  -1.699  0.00  0.00    -0.215 N 
ATOM      6  C   UNL     1      -3.367   4.975  -1.751  0.00  0.00    +0.310 C 
ATOM      7  O   UNL     1      -3.555   5.822  -2.601  0.00  0.00    -0.252 OA
ATOM      8  N   UNL     1      -2.470   5.100  -0.756  0.00  0.00    -0.281 N 
ATOM      9  H   UNL     1      -1.882   5.855  -0.598  0.00  0.00    +0.152 HD
ENDROOT
BRANCH   2  10
ATOM     10  C   UNL     1      -1.238   3.133   0.030  0.00  0.00    -0.014 A 
ATOM     11  C   UNL     1      -1.219   1.750   0.017  0.00  0.00    +0.008 A 
ATOM     12  C   UNL     1      -0.013   1.076   0.008  0.00  0.00    +0.022 A 
ATOM     13  C   UNL     1       1.176   1.784   0.000  0.00  0.00    +0.059 A 
ATOM     14  C   UNL     1       1.156   3.168   0.008  0.00  0.00    +0.060 A 
ATOM     15  C   UNL     1      -0.052   3.842   0.022  0.00  0.00    +0.027 A 
ATOM     16 CL   UNL     1       2.647   4.058  -0.003  0.00  0.00    -0.082 Cl
ATOM     17 CL   UNL     1       2.691   0.937  -0.019  0.00  0.00    -0.082 Cl
ENDBRANCH   2  10
BRANCH   5  18
ATOM     18  C   UNL     1      -5.061   3.410  -2.657  0.00  0.00    +0.213 C 
BRANCH  18  19
ATOM     19  C   UNL     1      -6.408   3.873  -2.166  0.00  0.00    +0.231 C 
ATOM     20  O   UNL     1      -6.497   4.479  -1.119  0.00  0.00    -0.274 OA
ATOM     21  N   UNL     1      -7.515   3.613  -2.890  0.00  0.00    -0.312 N 
ATOM     22  H   UNL     1      -7.444   3.129  -3.727  0.00  0.00    +0.149 HD
BRANCH  21  23
ATOM     23  C   UNL     1      -8.825   4.063  -2.413  0.00  0.00    +0.135 C 
BRANCH  23  24
ATOM     24  C   UNL     1      -9.904   3.643  -3.413  0.00  0.00    +0.135 C 
ATOM     25  C   UNL     1     -11.287   4.112  -2.920  0.00  0.00    +0.035 C 
ATOM     26  C   UNL     1     -11.809   5.018  -4.061  0.00  0.00    +0.031 C 
ATOM     27  C   UNL     1     -10.959   4.545  -5.267  0.00  0.00    +0.160 C 
ATOM     28  O   UNL     1      -9.666   4.274  -4.682  0.00  0.00    -0.375 OA
ENDBRANCH  23  24
ENDBRANCH  21  23
ENDBRANCH  18  19
ENDBRANCH   5  18
TORSDOF 5
