REMARK  Name = ZINC45773997
REMARK  11 active torsions:
REMARK  status: ('A' for Active; 'I' for Inactive)
REMARK    1  A    between atoms: C_1  and  C_2
REMARK    2  A    between atoms: C_2  and  C_4
REMARK    3  A    between atoms: C_2  and  N_12
REMARK    4  A    between atoms: N_12  and  C_13
REMARK    5  A    between atoms: N_12  and  C_14
REMARK    6  A    between atoms: C_14  and  C_15
REMARK    7  A    between atoms: N_17  and  C_18
REMARK    8  A    between atoms: C_21  and  O_26
REMARK    9  A    between atoms: C_23  and  O_24
REMARK   10  A    between atoms: O_24  and  C_25
REMARK   11  A    between atoms: O_26  and  C_27
REMARK                            x       y       z     vdW  Elec       q    Type
REMARK                         _______ _______ _______ _____ _____    ______ ____
ROOT
ATOM      1  C   UNL     1      -0.013   0.023  -2.396  0.00  0.00    +0.019 C 
ENDROOT
BRANCH   1   2
ATOM      2  C   UNL     1       0.753  -0.369  -3.633  0.00  0.00    +0.201 C 
ATOM      3  O   UNL     1       1.789  -0.991  -3.533  0.00  0.00    -0.278 OA
ATOM      4  N   UNL     1       0.286  -0.029  -4.851  0.00  0.00    -0.284 N 
ATOM      5  H   UNL     1      -0.581   0.398  -4.936  0.00  0.00    +0.155 HD
BRANCH   4   6
ATOM      6  C   UNL     1       1.055  -0.290  -5.995  0.00  0.00    +0.076 A 
ATOM      7  C   UNL     1       2.433  -0.403  -5.894  0.00  0.00    +0.030 A 
ATOM      8  C   UNL     1       3.190  -0.661  -7.021  0.00  0.00    +0.047 A 
ATOM      9  C   UNL     1       2.574  -0.808  -8.255  0.00  0.00    +0.124 A 
ATOM     10  C   UNL     1       1.196  -0.696  -8.361  0.00  0.00    +0.093 A 
ATOM     11  C   UNL     1       0.433  -0.443  -7.232  0.00  0.00    +0.145 A 
BRANCH  11  12
ATOM     12  O   UNL     1      -0.919  -0.339  -7.333  0.00  0.00    -0.493 OA
ATOM     13  C   UNL     1      -1.487  -0.507  -8.633  0.00  0.00    +0.277 C 
ENDBRANCH  11  12
BRANCH   9  14
ATOM     14  O   UNL     1       3.321  -1.062  -9.362  0.00  0.00    -0.495 OA
ATOM     15  C   UNL     1       4.735  -1.164  -9.181  0.00  0.00    +0.277 C 
ENDBRANCH   9  14
ENDBRANCH   4   6
ENDBRANCH   1   2
BRANCH   1  16
ATOM     16  N   UNL     1       0.698  -0.462  -1.206  0.00  0.00    +0.388 N 
ATOM     17  C   UNL     1       0.710  -1.931  -1.206  0.00  0.00    -0.095 C 
ATOM     18  H   UNL     1       1.647  -0.118  -1.217  0.00  0.00    -0.081 HD
BRANCH  16  20
ATOM     19  C   UNL     1       0.005   1.552   0.003  0.00  0.00    -0.008 C 
ATOM     20  C   UNL     1       0.017   0.022   0.003  0.00  0.00    -0.040 C 
BRANCH  20  21
ATOM     21  C   UNL     1       0.746  -0.475   1.224  0.00  0.00    -0.058 A 
ATOM     22  C   UNL     1       2.129  -0.493   1.243  0.00  0.00    +0.005 A 
ATOM     23  C   UNL     1       2.800  -0.949   2.362  0.00  0.00    +0.041 A 
ATOM     24  C   UNL     1       2.089  -1.387   3.465  0.00  0.00    +0.158 A 
ATOM     25  C   UNL     1       0.703  -1.369   3.446  0.00  0.00    +0.159 A 
ATOM     26  C   UNL     1       0.033  -0.908   2.326  0.00  0.00    +0.043 A 
ATOM     27  F   UNL     1       0.006  -1.797   4.522  0.00  0.00    -0.202 F 
ATOM     28  F   UNL     1       2.744  -1.833   4.559  0.00  0.00    -0.202 F 
ENDBRANCH  20  21
ENDBRANCH  16  20
ENDBRANCH   1  16
TORSDOF 7
