REMARK  Name = ZINC62126569
REMARK  8 active torsions:
REMARK  status: ('A' for Active; 'I' for Inactive)
REMARK    1  A    between atoms: C_1  and  C_2
REMARK    2  A    between atoms: C_6  and  C_9
REMARK    3  A    between atoms: C_6  and  C_10
REMARK    4  A    between atoms: C_11  and  C_13
REMARK    5  A    between atoms: C_13  and  C_15
REMARK    6  A    between atoms: C_13  and  C_23
REMARK    7  A    between atoms: C_18  and  O_21
REMARK    8  A    between atoms: O_21  and  C_22
REMARK                            x       y       z     vdW  Elec       q    Type
REMARK                         _______ _______ _______ _____ _____    ______ ____
ROOT
ATOM      1  C   UNL     1      -0.310  -1.695  -3.781  0.00  0.00    +0.108 C 
ENDROOT
BRANCH   1  11
ATOM      2  C   UNL     1       4.695  -2.222  -3.985  0.00  0.00    +0.039 C 
ATOM      3  C   UNL     1       3.580  -2.308  -2.940  0.00  0.00    +0.133 C 
ATOM      4  C   UNL     1       2.304  -2.845  -3.596  0.00  0.00    +0.139 C 
ATOM      5  N   UNL     1       1.309  -3.095  -2.541  0.00  0.00    -0.291 N 
ATOM      6  C   UNL     1       1.723  -3.890  -1.374  0.00  0.00    +0.055 C 
ATOM      7  C   UNL     1       3.028  -3.302  -0.826  0.00  0.00    +0.185 C 
ATOM      8  O   UNL     1       3.978  -3.191  -1.889  0.00  0.00    -0.373 OA
ATOM      9  C   UNL     1       0.637  -3.829  -0.298  0.00  0.00    +0.034 C 
ATOM     10  C   UNL     1       1.950  -5.344  -1.796  0.00  0.00    +0.034 C 
ATOM     11  C   UNL     1       0.055  -2.610  -2.640  0.00  0.00    +0.224 C 
ATOM     12  O   UNL     1      -0.778  -2.909  -1.812  0.00  0.00    -0.275 OA
ENDBRANCH   1  11
BRANCH   1  13
ATOM     13  C   UNL     1      -0.709  -2.519  -4.978  0.00  0.00    -0.035 A 
ATOM     14  C   UNL     1      -1.784  -3.385  -4.892  0.00  0.00    +0.008 A 
ATOM     15  C   UNL     1      -2.151  -4.142  -5.988  0.00  0.00    +0.046 A 
ATOM     16  C   UNL     1      -1.442  -4.032  -7.175  0.00  0.00    +0.120 A 
ATOM     17  C   UNL     1      -0.364  -3.162  -7.258  0.00  0.00    +0.046 A 
ATOM     18  C   UNL     1      -0.004  -2.404  -6.161  0.00  0.00    +0.008 A 
BRANCH  16  19
ATOM     19  O   UNL     1      -1.801  -4.776  -8.254  0.00  0.00    -0.495 OA
ATOM     20  C   UNL     1      -1.025  -4.612  -9.443  0.00  0.00    +0.277 C 
ENDBRANCH  16  19
ENDBRANCH   1  13
BRANCH   1  21
ATOM     21  C   UNL     1      -1.480  -0.802  -3.364  0.00  0.00    +0.005 C 
ATOM     22  C   UNL     1      -1.896   0.108  -4.538  0.00  0.00    +0.004 C 
ATOM     23  C   UNL     1      -2.272   1.450  -3.864  0.00  0.00    +0.000 C 
ATOM     24  C   UNL     1      -1.219   1.573  -2.735  0.00  0.00    +0.000 C 
ATOM     25  C   UNL     1      -1.050   0.130  -2.217  0.00  0.00    +0.004 C 
ENDBRANCH   1  21
TORSDOF 4
