REMARK  Name = ZINC48841268
REMARK  3 active torsions:
REMARK  status: ('A' for Active; 'I' for Inactive)
REMARK    1  A    between atoms: C_4  and  N_19
REMARK    2  A    between atoms: C_5  and  S_7
REMARK    3  A    between atoms: S_7  and  N_10
REMARK                            x       y       z     vdW  Elec       q    Type
REMARK                         _______ _______ _______ _____ _____    ______ ____
ROOT
ATOM      1  C   UNL     1       1.331   1.565  -1.113  0.00  0.00    +0.005 A 
ATOM      2  C   UNL     1       1.115   2.213   0.089  0.00  0.00    +0.041 A 
ATOM      3  C   UNL     1       0.865   1.478   1.235  0.00  0.00    +0.155 A 
ATOM      4  C   UNL     1       0.832   0.095   1.176  0.00  0.00    +0.187 A 
ATOM      5  C   UNL     1       1.048  -0.550  -0.027  0.00  0.00    +0.138 A 
ATOM      6  C   UNL     1       1.298   0.185  -1.171  0.00  0.00    +0.031 A 
ATOM      7  F   UNL     1       0.654   2.110   2.411  0.00  0.00    -0.203 F 
ENDROOT
BRANCH   5   8
ATOM      8  S   UNL     1       1.007  -2.310  -0.102  0.00  0.00    +0.063 S 
ATOM      9  O   UNL     1       1.877  -2.781   0.918  0.00  0.00    -0.153 OA
ATOM     10  O   UNL     1      -0.363  -2.682  -0.166  0.00  0.00    -0.153 OA
BRANCH   8  11
ATOM     11  N   UNL     1       1.686  -2.754  -1.546  0.00  0.00    -0.173 NA
ATOM     12  C   UNL     1       1.010  -2.814  -2.858  0.00  0.00    +0.113 C 
ATOM     13  C   UNL     1       2.098  -3.311  -3.859  0.00  0.00    +0.006 C 
ATOM     14  C   UNL     1       3.064  -2.093  -4.001  0.00  0.00    +0.006 C 
ATOM     15  C   UNL     1       3.725  -1.971  -2.608  0.00  0.00    +0.021 C 
ATOM     16  C   UNL     1       3.101  -3.166  -1.774  0.00  0.00    +0.080 C 
ATOM     17  C   UNL     1       2.921  -4.247  -2.902  0.00  0.00    +0.025 C 
ENDBRANCH   8  11
ENDBRANCH   5   8
BRANCH   4  18
ATOM     18  N   UNL     1       0.565  -0.693   2.401  0.00  0.00    +0.061 N 
ATOM     19  O   UNL     1      -0.571  -0.977   2.701  0.00  0.00    -0.126 OA
ATOM     20  O   UNL     1       1.484  -1.051   3.101  0.00  0.00    -0.126 OA
ENDBRANCH   4  18
TORSDOF 3
