REMARK  Name = ZINC39371860
REMARK  8 active torsions:
REMARK  status: ('A' for Active; 'I' for Inactive)
REMARK    1  A    between atoms: C_1  and  N_2
REMARK    2  A    between atoms: N_2  and  C_3
REMARK    3  A    between atoms: C_3  and  C_4
REMARK    4  A    between atoms: C_7  and  C_9
REMARK    5  A    between atoms: C_12  and  C_14
REMARK    6  A    between atoms: C_14  and  C_15
REMARK    7  A    between atoms: N_22  and  C_23
REMARK    8  A    between atoms: C_23  and  C_24
REMARK                            x       y       z     vdW  Elec       q    Type
REMARK                         _______ _______ _______ _____ _____    ______ ____
ROOT
ATOM      1  C   UNL     1       0.108  -0.895  -3.650  0.00  0.00    +0.152 C 
ATOM      2  C   UNL     1       1.277  -1.808  -3.409  0.00  0.00    +0.231 C 
ATOM      3  O   UNL     1       2.311  -1.329  -2.991  0.00  0.00    -0.274 OA
ATOM      4  N   UNL     1       1.226  -3.124  -3.635  0.00  0.00    -0.313 N 
ATOM      5  C   UNL     1       0.021  -3.803  -4.103  0.00  0.00    +0.119 C 
ATOM      6  C   UNL     1      -0.953  -2.788  -4.703  0.00  0.00    +0.104 C 
ATOM      7  N   UNL     1      -1.128  -1.682  -3.747  0.00  0.00    -0.285 NA
ATOM      8  H   UNL     1       2.025  -3.652  -3.482  0.00  0.00    +0.149 HD
ENDROOT
BRANCH   1   9
ATOM      9  C   UNL     1      -0.010   0.096  -2.490  0.00  0.00    +0.124 C 
BRANCH   9  12
ATOM     10  C   UNL     1       0.014   1.454  -0.003  0.00  0.00    +0.132 C 
ATOM     11  N   UNL     1      -0.163   0.000  -0.024  0.00  0.00    -0.299 N 
ATOM     12  C   UNL     1      -0.177  -0.661  -1.198  0.00  0.00    +0.218 C 
ATOM     13  O   UNL     1      -0.323  -1.865  -1.215  0.00  0.00    -0.276 OA
BRANCH  11  14
ATOM     14  C   UNL     1      -0.325  -0.736   1.233  0.00  0.00    +0.160 C 
BRANCH  14  15
ATOM     15  C   UNL     1      -1.788  -0.816   1.583  0.00  0.00    +0.064 C 
ATOM     16  N   UNL     1      -2.778  -0.332   0.908  0.00  0.00    -0.157 NA
ATOM     17  N   UNL     1      -4.006  -0.582   1.512  0.00  0.00    -0.158 NA
ATOM     18  C   UNL     1      -3.887  -1.244   2.616  0.00  0.00    +0.050 C 
ATOM     19  C   UNL     1      -2.402  -1.486   2.797  0.00  0.00    +0.107 C 
BRANCH  18  20
ATOM     20  C   UNL     1      -4.998  -1.688   3.532  0.00  0.00    +0.036 C 
ATOM     21  C   UNL     1      -6.014  -2.689   2.976  0.00  0.00    +0.010 C 
ATOM     22  C   UNL     1      -6.418  -1.229   3.194  0.00  0.00    +0.010 C 
ENDBRANCH  18  20
ENDBRANCH  14  15
ENDBRANCH  11  14
ENDBRANCH   9  12
ENDBRANCH   1   9
BRANCH   7  23
ATOM     23  C   UNL     1      -2.264  -0.833  -4.130  0.00  0.00    +0.123 C 
BRANCH  23  24
ATOM     24  C   UNL     1      -3.552  -1.574  -3.880  0.00  0.00    +0.002 A 
ATOM     25  C   UNL     1      -4.208  -2.195  -4.926  0.00  0.00    +0.008 A 
ATOM     26  C   UNL     1      -5.389  -2.874  -4.697  0.00  0.00    +0.000 A 
ATOM     27  C   UNL     1      -5.917  -2.934  -3.420  0.00  0.00    +0.003 A 
ATOM     28  C   UNL     1      -5.263  -2.315  -2.372  0.00  0.00    +0.038 A 
ATOM     29  C   UNL     1      -4.077  -1.638  -2.600  0.00  0.00    +0.128 A 
ATOM     30  F   UNL     1      -3.434  -1.036  -1.575  0.00  0.00    -0.205 F 
ENDBRANCH  23  24
ENDBRANCH   7  23
TORSDOF 7
