REMARK  Name = ZINC65463968
REMARK  8 active torsions:
REMARK  status: ('A' for Active; 'I' for Inactive)
REMARK    1  A    between atoms: C_1  and  C_2
REMARK    2  A    between atoms: C_2  and  O_3
REMARK    3  A    between atoms: O_3  and  C_4
REMARK    4  A    between atoms: C_6  and  C_22
REMARK    5  A    between atoms: C_9  and  N_10
REMARK    6  A    between atoms: C_15  and  C_21
REMARK    7  A    between atoms: C_17  and  C_19
REMARK    8  A    between atoms: C_17  and  C_20
REMARK                            x       y       z     vdW  Elec       q    Type
REMARK                         _______ _______ _______ _____ _____    ______ ____
ROOT
ATOM      1  N   UNL     1       1.949  -1.467  -3.427  0.00  0.00    -0.266 N 
ATOM      2  C   UNL     1       2.659  -1.967  -4.458  0.00  0.00    +0.307 C 
ATOM      3  O   UNL     1       2.757  -3.171  -4.601  0.00  0.00    -0.252 OA
ATOM      4  N   UNL     1       3.259  -1.133  -5.330  0.00  0.00    -0.280 N 
ATOM      5  C   UNL     1       3.256   0.322  -5.112  0.00  0.00    +0.140 C 
ATOM      6  C   UNL     1       4.695   0.834  -5.241  0.00  0.00    +0.133 C 
ATOM      7  O   UNL     1       5.247   0.379  -6.479  0.00  0.00    -0.368 OA
ATOM      8  C   UNL     1       5.344  -1.044  -6.589  0.00  0.00    +0.080 C 
ATOM      9  C   UNL     1       3.942  -1.651  -6.526  0.00  0.00    +0.143 C 
ATOM     10  C   UNL     1       6.186  -1.589  -5.434  0.00  0.00    +0.043 C 
ATOM     11  C   UNL     1       6.002  -1.409  -7.921  0.00  0.00    +0.043 C 
ATOM     12  C   UNL     1       4.698   2.363  -5.212  0.00  0.00    +0.039 C 
ATOM     13  H   UNL     1       1.818  -0.509  -3.348  0.00  0.00    +0.156 HD
ENDROOT
BRANCH   1  19
ATOM     14  C   UNL     1       1.195  -1.888  -1.165  0.00  0.00    +0.142 A 
ATOM     15  C   UNL     1       0.647  -2.745  -0.224  0.00  0.00    +0.051 A 
ATOM     16  C   UNL     1       0.310  -4.038  -0.579  0.00  0.00    -0.047 A 
ATOM     17  C   UNL     1       0.519  -4.480  -1.873  0.00  0.00    +0.005 A 
ATOM     18  C   UNL     1       1.065  -3.631  -2.817  0.00  0.00    +0.027 A 
ATOM     19  C   UNL     1       1.400  -2.331  -2.470  0.00  0.00    +0.077 A 
ATOM     20  C   UNL     1      -0.285  -4.968   0.446  0.00  0.00    +0.044 C 
BRANCH  14  21
ATOM     21  O   UNL     1       1.527  -0.616  -0.817  0.00  0.00    -0.490 OA
BRANCH  21  23
ATOM     22  C   UNL     1       1.722   1.223   0.739  0.00  0.00    +0.048 C 
ATOM     23  C   UNL     1       1.290  -0.231   0.538  0.00  0.00    +0.226 C 
ENDBRANCH  21  23
ENDBRANCH  14  21
ENDBRANCH   1  19
TORSDOF 3
