REMARK  Name = ZINC59857942
REMARK  4 active torsions:
REMARK  status: ('A' for Active; 'I' for Inactive)
REMARK    1  A    between atoms: C_1  and  N_2
REMARK    2  A    between atoms: C_5  and  C_14
REMARK    3  A    between atoms: N_9  and  C_12
REMARK    4  A    between atoms: C_15  and  N_16
REMARK                            x       y       z     vdW  Elec       q    Type
REMARK                         _______ _______ _______ _____ _____    ______ ____
ROOT
ATOM      1  C   UNL     1      -0.018   1.461   0.010  0.00  0.00    +0.154 C 
ATOM      2  N   UNL     1       0.002  -0.004   0.002  0.00  0.00    -0.295 N 
ATOM      3  C   UNL     1      -1.117  -0.835   0.003  0.00  0.00    +0.070 A 
ATOM      4  C   UNL     1      -2.479  -0.590   0.011  0.00  0.00    +0.037 A 
ATOM      5  C   UNL     1      -3.374  -1.659   0.010  0.00  0.00    -0.007 A 
ATOM      6  C   UNL     1      -2.894  -2.973   0.001  0.00  0.00    +0.027 A 
ATOM      7  C   UNL     1      -1.536  -3.212  -0.007  0.00  0.00    +0.044 A 
ATOM      8  C   UNL     1      -0.642  -2.150  -0.007  0.00  0.00    +0.071 A 
ATOM      9  N   UNL     1       0.748  -2.075  -0.013  0.00  0.00    -0.295 N 
ATOM     10  C   UNL     1       1.104  -0.777  -0.013  0.00  0.00    +0.330 A 
ATOM     11  O   UNL     1       2.249  -0.365  -0.023  0.00  0.00    -0.246 OA
ATOM     12  C   UNL     1       1.667  -3.216  -0.023  0.00  0.00    +0.154 C 
ATOM     13 BR   UNL     1      -4.108  -4.422  -0.001  0.00  0.00    -0.050 Br
ENDROOT
BRANCH   5  14
ATOM     14  C   UNL     1      -4.829  -1.405   0.019  0.00  0.00    +0.033 C 
ATOM     15  C   UNL     1      -5.285  -0.160   0.029  0.00  0.00    +0.179 C 
BRANCH  15  16
ATOM     16  N   UNL     1      -6.743   0.096   0.038  0.00  0.00    +0.049 N 
ATOM     17  O   UNL     1      -7.519  -0.832   0.037  0.00  0.00    -0.127 OA
ATOM     18  O   UNL     1      -7.158   1.231   0.046  0.00  0.00    -0.127 OA
ENDBRANCH  15  16
ENDBRANCH   5  14
TORSDOF 2
