REMARK  Name = ZINC37657708
REMARK  8 active torsions:
REMARK  status: ('A' for Active; 'I' for Inactive)
REMARK    1  A    between atoms: C_1  and  C_2
REMARK    2  A    between atoms: C_3  and  C_14
REMARK    3  A    between atoms: N_7  and  S_8
REMARK    4  A    between atoms: S_8  and  C_11
REMARK    5  A    between atoms: C_11  and  C_12
REMARK    6  A    between atoms: C_11  and  C_13
REMARK    7  A    between atoms: C_17  and  C_19
REMARK    8  A    between atoms: C_19  and  N_20
REMARK                            x       y       z     vdW  Elec       q    Type
REMARK                         _______ _______ _______ _____ _____    ______ ____
ROOT
ATOM      1  C   UNL     1      -0.018   1.503   0.010  0.00  0.00    +0.054 C 
ATOM      2  C   UNL     1       0.002  -0.004   0.002  0.00  0.00    +0.015 A 
ATOM      3  C   UNL     1      -1.037  -0.866   0.002  0.00  0.00    +0.065 A 
ATOM      4  N   UNL     1      -0.796  -2.216  -0.007  0.00  0.00    -0.332 N 
ATOM      5  C   UNL     1       0.511  -2.651  -0.016  0.00  0.00    +0.192 A 
ATOM      6  S   UNL     1       1.406  -1.107  -0.018  0.00  0.00    -0.053 S 
ATOM      7  N   UNL     1       0.975  -3.876  -0.025  0.00  0.00    -0.108 NA
ATOM      8  H   UNL     1      -1.530  -2.850  -0.007  0.00  0.00    +0.168 HD
ENDROOT
BRANCH   3   9
ATOM      9  C   UNL     1      -2.421  -0.360   0.012  0.00  0.00    +0.036 A 
ATOM     10  C   UNL     1      -3.598  -1.063   0.019  0.00  0.00    +0.018 A 
ATOM     11  C   UNL     1      -4.786  -0.363   0.028  0.00  0.00    +0.010 A 
ATOM     12  C   UNL     1      -4.754   0.993   0.030  0.00  0.00    -0.027 A 
ATOM     13  S   UNL     1      -3.001   1.328   0.026  0.00  0.00    -0.094 S 
BRANCH  12  14
ATOM     14  C   UNL     1      -5.904   1.967   0.039  0.00  0.00    -0.043 C 
BRANCH  14  15
ATOM     15  N   UNL     1      -6.269   2.281   1.427  0.00  0.00    +0.381 N 
ATOM     16  H   UNL     1      -6.542   1.434   1.903  0.00  0.00    -0.090 HD
ATOM     17  H   UNL     1      -5.477   2.692   1.898  0.00  0.00    -0.090 HD
ATOM     18  H   UNL     1      -7.039   2.933   1.433  0.00  0.00    -0.090 HD
ENDBRANCH  14  15
ENDBRANCH  12  14
ENDBRANCH   3   9
BRANCH   7  19
ATOM     19  S   UNL     1       2.609  -4.143  -0.035  0.00  0.00    +0.074 S 
ATOM     20  O   UNL     1       3.058  -3.599  -1.268  0.00  0.00    -0.151 OA
ATOM     21  O   UNL     1       3.070  -3.614   1.201  0.00  0.00    -0.151 OA
BRANCH  19  22
ATOM     22  C   UNL     1       2.787  -5.948  -0.046  0.00  0.00    +0.149 C 
ATOM     23  C   UNL     1       2.113  -6.519  -1.296  0.00  0.00    +0.033 C 
ATOM     24  C   UNL     1       4.272  -6.314  -0.055  0.00  0.00    +0.033 C 
ENDBRANCH  19  22
ENDBRANCH   7  19
TORSDOF 5
