REMARK  Name = ZINC10457721
REMARK  11 active torsions:
REMARK  status: ('A' for Active; 'I' for Inactive)
REMARK    1  A    between atoms: C_1  and  O_2
REMARK    2  A    between atoms: O_2  and  C_3
REMARK    3  A    between atoms: C_8  and  N_9
REMARK    4  A    between atoms: C_10  and  C_12
REMARK    5  A    between atoms: C_12  and  S_13
REMARK    6  A    between atoms: S_13  and  C_14
REMARK    7  A    between atoms: N_20  and  C_21
REMARK    8  A    between atoms: C_24  and  O_29
REMARK    9  A    between atoms: C_25  and  O_27
REMARK   10  A    between atoms: O_27  and  C_28
REMARK   11  A    between atoms: O_29  and  C_30
REMARK                            x       y       z     vdW  Elec       q    Type
REMARK                         _______ _______ _______ _____ _____    ______ ____
ROOT
ATOM      1  C   UNL     1       4.906   8.420  -0.437  0.00  0.00    +0.177 A 
ATOM      2  N   UNL     1       5.914   7.583  -0.424  0.00  0.00    -0.227 NA
ATOM      3  C   UNL     1       7.196   7.991  -0.541  0.00  0.00    +0.064 A 
ATOM      4  C   UNL     1       7.408   9.347  -0.689  0.00  0.00    +0.094 A 
ATOM      5  C   UNL     1       6.337  10.252  -0.692  0.00  0.00    +0.273 A 
ATOM      6  O   UNL     1       6.534  11.450  -0.811  0.00  0.00    -0.266 OA
ATOM      7  N   UNL     1       5.081   9.767  -0.560  0.00  0.00    -0.255 N 
ATOM      8  S   UNL     1       9.162   9.576  -0.864  0.00  0.00    -0.118 S 
ATOM      9  C   UNL     1       9.643   7.823  -1.156  0.00  0.00    +0.081 C 
ATOM     10  C   UNL     1       8.425   7.116  -0.516  0.00  0.00    +0.068 C 
ENDROOT
BRANCH   7  11
ATOM     11  C   UNL     1       3.980  10.634  -0.549  0.00  0.00    +0.056 A 
ATOM     12  C   UNL     1       2.950  10.459  -1.464  0.00  0.00    +0.030 A 
ATOM     13  C   UNL     1       1.861  11.309  -1.452  0.00  0.00    +0.051 A 
ATOM     14  C   UNL     1       1.800  12.346  -0.534  0.00  0.00    +0.162 A 
ATOM     15  C   UNL     1       2.833  12.527   0.381  0.00  0.00    +0.163 A 
ATOM     16  C   UNL     1       3.921  11.671   0.372  0.00  0.00    +0.075 A 
BRANCH  15  17
ATOM     17  O   UNL     1       2.773  13.544   1.282  0.00  0.00    -0.491 OA
ATOM     18  C   UNL     1       3.869  13.670   2.191  0.00  0.00    +0.277 C 
ENDBRANCH  15  17
BRANCH  14  19
ATOM     19  O   UNL     1       0.730  13.186  -0.527  0.00  0.00    -0.491 OA
ATOM     20  C   UNL     1      -0.294  12.941  -1.494  0.00  0.00    +0.277 C 
ENDBRANCH  14  19
ENDBRANCH   7  11
BRANCH   1  21
ATOM     21  S   UNL     1       3.270   7.784  -0.283  0.00  0.00    -0.078 S 
BRANCH  21  22
ATOM     22  C   UNL     1       3.630   6.015  -0.158  0.00  0.00    +0.173 C 
BRANCH  22  24
ATOM     23  N   UNL     1       2.364   3.906   0.096  0.00  0.00    -0.282 N 
ATOM     24  C   UNL     1       2.341   5.249  -0.014  0.00  0.00    +0.228 C 
ATOM     25  O   UNL     1       1.282   5.840   0.002  0.00  0.00    -0.275 OA
ATOM     26  H   UNL     1       3.211   3.439   0.168  0.00  0.00    +0.155 HD
BRANCH  23  32
ATOM     27  C   UNL     1       1.108   1.929   0.712  0.00  0.00    +0.141 A 
ATOM     28  C   UNL     1      -0.081   1.219   0.719  0.00  0.00    +0.049 A 
ATOM     29  C   UNL     1      -1.209   1.751   0.122  0.00  0.00    +0.024 A 
ATOM     30  C   UNL     1      -1.157   2.998  -0.474  0.00  0.00    +0.043 A 
ATOM     31  C   UNL     1       0.027   3.714  -0.486  0.00  0.00    +0.047 A 
ATOM     32  C   UNL     1       1.163   3.183   0.107  0.00  0.00    +0.077 A 
ATOM     33 CL   UNL     1      -2.578   3.663  -1.216  0.00  0.00    -0.083 Cl
BRANCH  27  35
ATOM     34  C   UNL     1       2.089   0.114   1.894  0.00  0.00    +0.277 C 
ATOM     35  O   UNL     1       2.220   1.404   1.294  0.00  0.00    -0.493 OA
ENDBRANCH  27  35
ENDBRANCH  23  32
ENDBRANCH  22  24
ENDBRANCH  21  22
ENDBRANCH   1  21
TORSDOF 8
