REMARK  Name = ZINC62666281
REMARK  4 active torsions:
REMARK  status: ('A' for Active; 'I' for Inactive)
REMARK    1  A    between atoms: C_1  and  O_2
REMARK    2  A    between atoms: O_2  and  C_3
REMARK    3  A    between atoms: C_13  and  C_14
REMARK    4  A    between atoms: C_13  and  N_16
REMARK                            x       y       z     vdW  Elec       q    Type
REMARK                         _______ _______ _______ _____ _____    ______ ____
ROOT
ATOM      1  C   UNL     1      -1.429  -0.341   0.697  0.00  0.00    +0.124 A 
ATOM      2  C   UNL     1      -2.666   0.288   0.653  0.00  0.00    +0.046 A 
ATOM      3  C   UNL     1      -3.809  -0.453   0.436  0.00  0.00    +0.013 A 
ATOM      4  C   UNL     1      -3.734  -1.828   0.262  0.00  0.00    +0.029 A 
ATOM      5  C   UNL     1      -2.505  -2.458   0.308  0.00  0.00    +0.130 A 
ATOM      6  C   UNL     1      -1.350  -1.712   0.519  0.00  0.00    +0.091 A 
ATOM      7  O   UNL     1      -2.383  -3.801   0.154  0.00  0.00    -0.491 OA
ATOM      8  C   UNL     1      -3.225  -4.643   0.947  0.00  0.00    +0.229 C 
ATOM      9  C   UNL     1      -4.452  -5.009   0.104  0.00  0.00    +0.044 C 
ATOM     10  C   UNL     1      -4.762  -3.829  -0.827  0.00  0.00    +0.046 C 
ATOM     11  C   UNL     1      -5.016  -2.584   0.023  0.00  0.00    +0.138 C 
ENDROOT
BRANCH  11  12
ATOM     12  N   UNL     1      -5.970  -1.710  -0.673  0.00  0.00    -0.281 NA
ATOM     13  C   UNL     1      -5.520  -1.429  -2.061  0.00  0.00    +0.086 C 
ATOM     14  C   UNL     1      -6.823  -0.984  -2.772  0.00  0.00    +0.017 C 
ATOM     15  C   UNL     1      -7.893  -1.904  -2.142  0.00  0.00    +0.017 C 
ATOM     16  C   UNL     1      -7.290  -2.363  -0.801  0.00  0.00    +0.086 C 
ENDBRANCH  11  12
BRANCH   1  18
ATOM     17  C   UNL     1      -0.460   1.795   1.083  0.00  0.00    +0.277 C 
ATOM     18  O   UNL     1      -0.301   0.386   0.908  0.00  0.00    -0.495 OA
ENDBRANCH   1  18
BRANCH  11  19
ATOM     19  C   UNL     1      -5.587  -2.989   1.317  0.00  0.00    +0.090 C 
ATOM     20  N   UNL     1      -6.028  -3.303   2.316  0.00  0.00    -0.194 NA
ENDBRANCH  11  19
TORSDOF 3
