REMARK  Name = ZINC22195495
REMARK  2 active torsions:
REMARK  status: ('A' for Active; 'I' for Inactive)
REMARK    1  A    between atoms: C_3  and  C_7
REMARK    2  A    between atoms: C_19  and  C_22
REMARK                            x       y       z     vdW  Elec       q    Type
REMARK                         _______ _______ _______ _____ _____    ______ ____
ROOT
ATOM      1  C   UNL     1       4.546  -1.818   1.329  0.00  0.00    +0.107 C 
ATOM      2  C   UNL     1       5.138  -2.844   0.341  0.00  0.00    +0.029 C 
ATOM      3  C   UNL     1       5.504  -4.042   1.261  0.00  0.00    +0.021 C 
ATOM      4  C   UNL     1       4.357  -4.001   2.302  0.00  0.00    +0.107 C 
ATOM      5  N   UNL     1       4.095  -2.563   2.520  0.00  0.00    -0.307 N 
ATOM      6  C   UNL     1       2.746  -2.334   2.770  0.00  0.00    +0.143 A 
ATOM      7  C   UNL     1       2.340  -1.101   3.317  0.00  0.00    +0.049 A 
ATOM      8  C   UNL     1       1.024  -0.864   3.560  0.00  0.00    +0.053 A 
ATOM      9  C   UNL     1       0.081  -1.869   3.269  0.00  0.00    +0.178 A 
ATOM     10  N   UNL     1      -1.234  -1.953   3.390  0.00  0.00    -0.128 NA
ATOM     11  N   UNL     1      -1.625  -3.107   2.975  0.00  0.00    -0.123 NA
ATOM     12  C   UNL     1      -0.598  -3.814   2.572  0.00  0.00    +0.258 A 
ATOM     13  N   UNL     1       0.510  -3.062   2.742  0.00  0.00    -0.187 N 
ATOM     14  N   UNL     1       1.869  -3.271   2.498  0.00  0.00    -0.148 NA
ENDROOT
BRANCH   1  17
ATOM     15  C   UNL     1       1.258  -1.140  -0.394  0.00  0.00    +0.020 A 
ATOM     16  C   UNL     1       2.312  -1.834   0.181  0.00  0.00    +0.008 A 
ATOM     17  C   UNL     1       3.377  -1.110   0.695  0.00  0.00    -0.009 A 
ATOM     18  C   UNL     1       3.352   0.270   0.617  0.00  0.00    +0.116 A 
ATOM     19  N   UNL     1       2.333   0.896   0.063  0.00  0.00    -0.263 NA
ATOM     20  C   UNL     1       1.304   0.240  -0.436  0.00  0.00    +0.111 A 
ENDBRANCH   1  17
BRANCH  12  21
ATOM     21  C   UNL     1      -0.645  -5.215   2.018  0.00  0.00    +0.454 C 
ATOM     22  F   UNL     1      -1.964  -5.681   2.038  0.00  0.00    -0.163 F 
ATOM     23  F   UNL     1      -0.172  -5.212   0.701  0.00  0.00    -0.163 F 
ATOM     24  F   UNL     1       0.158  -6.052   2.800  0.00  0.00    -0.163 F 
ENDBRANCH  12  21
TORSDOF 2
