REMARK  Name = ZINC38799076
REMARK  4 active torsions:
REMARK  status: ('A' for Active; 'I' for Inactive)
REMARK    1  A    between atoms: C_4  and  C_7
REMARK    2  A    between atoms: C_17  and  C_19
REMARK    3  A    between atoms: C_22  and  C_25
REMARK    4  A    between atoms: C_31  and  C_33
REMARK                            x       y       z     vdW  Elec       q    Type
REMARK                         _______ _______ _______ _____ _____    ______ ____
ROOT
ATOM      1  C   UNL     1       3.537  -0.467  -0.231  0.00  0.00    -0.014 C 
ATOM      2  C   UNL     1       4.745   0.225  -0.350  0.00  0.00    +0.002 A 
ATOM      3  C   UNL     1       4.758   1.623  -0.537  0.00  0.00    +0.030 A 
ATOM      4  C   UNL     1       5.949   2.273  -0.650  0.00  0.00    +0.042 A 
ATOM      5  C   UNL     1       7.159   1.585  -0.585  0.00  0.00    +0.022 A 
ATOM      6  C   UNL     1       7.209   0.236  -0.406  0.00  0.00    +0.025 A 
ATOM      7  C   UNL     1       6.018  -0.501  -0.281  0.00  0.00    +0.041 A 
ATOM      8  N   UNL     1       6.069  -1.826  -0.105  0.00  0.00    -0.284 N 
ATOM      9  C   UNL     1       4.999  -2.586   0.019  0.00  0.00    +0.230 C 
ATOM     10  O   UNL     1       5.122  -3.787   0.177  0.00  0.00    -0.274 OA
ATOM     11  C   UNL     1       3.620  -1.968  -0.026  0.00  0.00    +0.152 C 
ATOM     12 CL   UNL     1       5.961   3.994  -0.880  0.00  0.00    -0.084 Cl
ATOM     13  H   UNL     1       6.941  -2.250  -0.068  0.00  0.00    +0.155 HD
ENDROOT
BRANCH  11  14
ATOM     14  C   UNL     1       2.858  -2.631  -1.144  0.00  0.00    +0.055 C 
ATOM     15  N   UNL     1       2.340  -2.027  -2.133  0.00  0.00    -0.185 NA
ATOM     16  N   UNL     1       1.685  -2.858  -3.039  0.00  0.00    -0.185 N 
ATOM     17  C   UNL     1       1.789  -4.248  -2.565  0.00  0.00    +0.147 C 
ATOM     18  C   UNL     1       2.601  -4.116  -1.260  0.00  0.00    +0.082 C 
ATOM     19  C   UNL     1       1.058  -2.457  -4.163  0.00  0.00    +0.250 C 
ATOM     20  O   UNL     1       0.442  -3.259  -4.833  0.00  0.00    -0.273 OA
BRANCH  17  21
ATOM     21  C   UNL     1       0.402  -4.831  -2.290  0.00  0.00    +0.199 C 
ATOM     22  C   UNL     1      -0.325  -4.035  -1.179  0.00  0.00    +0.076 C 
ATOM     23  C   UNL     1      -1.037  -5.143  -0.422  0.00  0.00    +0.014 C 
ATOM     24  C   UNL     1      -0.497  -6.283  -0.794  0.00  0.00    +0.183 C 
ATOM     25  O   UNL     1       0.500  -6.141  -1.697  0.00  0.00    -0.494 OA
ENDBRANCH  17  21
BRANCH  19  26
ATOM     26  C   UNL     1       1.124  -1.012  -4.587  0.00  0.00    +0.206 C 
ATOM     27 CL   UNL     1       0.196  -0.793  -6.117  0.00  0.00    -0.116 Cl
ENDBRANCH  19  26
ENDBRANCH  11  14
BRANCH   1  31
ATOM     28  C   UNL     1      -0.150   1.516  -0.413  0.00  0.00    +0.000 A 
ATOM     29  C   UNL     1       0.213   0.842   0.742  0.00  0.00    +0.001 A 
ATOM     30  C   UNL     1       1.422   0.187   0.812  0.00  0.00    +0.008 A 
ATOM     31  C   UNL     1       2.289   0.203  -0.293  0.00  0.00    -0.020 A 
ATOM     32  C   UNL     1       1.912   0.889  -1.459  0.00  0.00    +0.008 A 
ATOM     33  C   UNL     1       0.698   1.538  -1.509  0.00  0.00    +0.001 A 
ENDBRANCH   1  31
TORSDOF 4
