REMARK  Name = ZINC05195341
REMARK  2 active torsions:
REMARK  status: ('A' for Active; 'I' for Inactive)
REMARK    1  A    between atoms: C_6  and  N_7
REMARK    2  A    between atoms: C_9  and  N_14
REMARK                            x       y       z     vdW  Elec       q    Type
REMARK                         _______ _______ _______ _____ _____    ______ ____
ROOT
ATOM      1  N   UNL     1      -1.885   3.244  -6.215  0.00  0.00    -0.270 N 
ATOM      2  C   UNL     1      -2.033   1.857  -5.759  0.00  0.00    +0.136 C 
ATOM      3  C   UNL     1      -0.823   1.595  -4.834  0.00  0.00    +0.101 C 
ATOM      4  C   UNL     1       0.209   2.614  -5.370  0.00  0.00    +0.120 C 
ATOM      5  C   UNL     1      -0.634   3.693  -6.014  0.00  0.00    +0.222 C 
ATOM      6  O   UNL     1      -0.238   4.801  -6.307  0.00  0.00    -0.275 OA
ENDROOT
BRANCH   3   7
ATOM      7  N   UNL     1      -1.161   1.877  -3.437  0.00  0.00    -0.294 N 
ATOM      8  C   UNL     1      -0.404   1.368  -2.445  0.00  0.00    +0.302 C 
ATOM      9  O   UNL     1       0.559   0.675  -2.710  0.00  0.00    -0.253 OA
ATOM     10  N   UNL     1      -0.715   1.627  -1.159  0.00  0.00    -0.286 N 
ATOM     11  C   UNL     1       0.022   1.138   0.015  0.00  0.00    +0.109 C 
ATOM     12  C   UNL     1      -0.709   1.663   1.269  0.00  0.00    +0.020 C 
ATOM     13  C   UNL     1      -2.143   1.946   0.738  0.00  0.00    +0.020 C 
ATOM     14  C   UNL     1      -1.850   2.447  -0.698  0.00  0.00    +0.109 C 
ATOM     15  H   UNL     1      -1.929   2.430  -3.226  0.00  0.00    +0.151 HD
ENDBRANCH   3   7
BRANCH   1  21
ATOM     16  C   UNL     1      -2.712   5.346  -7.070  0.00  0.00    +0.025 A 
ATOM     17  C   UNL     1      -3.728   6.090  -7.637  0.00  0.00    +0.022 A 
ATOM     18  C   UNL     1      -4.949   5.500  -7.913  0.00  0.00    +0.041 A 
ATOM     19  C   UNL     1      -5.154   4.162  -7.625  0.00  0.00    +0.022 A 
ATOM     20  C   UNL     1      -4.140   3.412  -7.063  0.00  0.00    +0.025 A 
ATOM     21  C   UNL     1      -2.914   4.002  -6.786  0.00  0.00    +0.036 A 
ATOM     22 CL   UNL     1      -6.226   6.440  -8.620  0.00  0.00    -0.084 Cl
ENDBRANCH   1  21
TORSDOF 2
