REMARK  Name = ZINC04763581
REMARK  10 active torsions:
REMARK  status: ('A' for Active; 'I' for Inactive)
REMARK    1  A    between atoms: C_1  and  C_2
REMARK    2  A    between atoms: C_5  and  C_7
REMARK    3  A    between atoms: C_12  and  C_22
REMARK    4  A    between atoms: C_14  and  C_18
REMARK    5  A    between atoms: C_18  and  O_20
REMARK    6  A    between atoms: O_20  and  C_21
REMARK    7  A    between atoms: C_24  and  C_35
REMARK    8  A    between atoms: C_25  and  C_26
REMARK    9  A    between atoms: C_26  and  O_28
REMARK   10  A    between atoms: O_28  and  C_29
REMARK                            x       y       z     vdW  Elec       q    Type
REMARK                         _______ _______ _______ _____ _____    ______ ____
ROOT
ATOM      1  C   UNL     1      -1.031  -2.219   3.064  0.00  0.00    +0.128 C 
ATOM      2  C   UNL     1      -0.290  -1.732   1.844  0.00  0.00    +0.028 C 
ATOM      3  C   UNL     1       0.759  -2.424   1.353  0.00  0.00    +0.016 C 
ATOM      4  C   UNL     1       1.505  -1.943   0.133  0.00  0.00    +0.055 C 
ATOM      5  C   UNL     1       1.456  -0.415   0.071  0.00  0.00    +0.013 C 
ATOM      6  C   UNL     1      -0.011   0.024   0.035  0.00  0.00    +0.171 C 
ATOM      7  C   UNL     1      -0.719  -0.537   1.239  0.00  0.00    +0.176 C 
ATOM      8  O   UNL     1      -1.678   0.052   1.696  0.00  0.00    -0.291 OA
ATOM      9  C   UNL     1       2.168   0.072  -1.193  0.00  0.00    +0.009 C 
ATOM     10  N   UNL     1       1.167  -3.586   1.952  0.00  0.00    -0.321 N 
ATOM     11  C   UNL     1       0.326  -4.276   2.778  0.00  0.00    +0.016 C 
ATOM     12  C   UNL     1      -0.739  -3.667   3.329  0.00  0.00    +0.068 C 
ATOM     13  C   UNL     1       0.592  -5.729   3.074  0.00  0.00    +0.061 C 
ATOM     14  H   UNL     1       2.182  -3.971   1.770  0.00  0.00    +0.152 HD
ENDROOT
BRANCH   1  19
ATOM     15  C   UNL     1      -5.642  -2.657   1.067  0.00  0.00    +0.086 C 
ATOM     16  C   UNL     1      -4.517  -2.236   1.977  0.00  0.00    +0.102 A 
ATOM     17  C   UNL     1      -4.629  -1.420   3.040  0.00  0.00    +0.044 A 
ATOM     18  C   UNL     1      -3.336  -1.297   3.600  0.00  0.00    +0.046 A 
ATOM     19  C   UNL     1      -2.512  -2.046   2.845  0.00  0.00    +0.117 A 
ATOM     20  O   UNL     1      -3.232  -2.608   1.860  0.00  0.00    -0.464 OA
ENDBRANCH   1  19
BRANCH   6  21
ATOM     21  C   UNL     1      -0.089   1.528   0.061  0.00  0.00    +0.318 C 
ATOM     22  O   UNL     1       0.924   2.185   0.102  0.00  0.00    -0.250 OA
BRANCH  21  23
ATOM     23  O   UNL     1      -1.284   2.139   0.031  0.00  0.00    -0.467 OA
ATOM     24  C   UNL     1      -1.283   3.591   0.058  0.00  0.00    +0.280 C 
ENDBRANCH  21  23
ENDBRANCH   6  21
BRANCH  12  25
ATOM     25  C   UNL     1      -1.599  -4.404   4.175  0.00  0.00    +0.338 C 
ATOM     26  O   UNL     1      -1.438  -5.603   4.312  0.00  0.00    -0.245 OA
BRANCH  25  27
ATOM     27  O   UNL     1      -2.600  -3.780   4.830  0.00  0.00    -0.458 OA
BRANCH  27  28
ATOM     28  C   UNL     1      -3.430  -4.587   5.668  0.00  0.00    +0.177 C 
ATOM     29  C   UNL     1      -4.610  -5.121   4.853  0.00  0.00    +0.044 C 
ATOM     30  C   UNL     1      -5.500  -5.985   5.749  0.00  0.00    +0.004 C 
ATOM     31  C   UNL     1      -6.024  -5.141   6.913  0.00  0.00    +0.000 C 
ATOM     32  C   UNL     1      -4.844  -4.607   7.728  0.00  0.00    +0.004 C 
ATOM     33  C   UNL     1      -3.955  -3.743   6.831  0.00  0.00    +0.044 C 
ENDBRANCH  27  28
ENDBRANCH  25  27
ENDBRANCH  12  25
TORSDOF 6
