REMARK  Name = ZINC04959552
REMARK  5 active torsions:
REMARK  status: ('A' for Active; 'I' for Inactive)
REMARK    1  A    between atoms: C_1  and  C_2
REMARK    2  A    between atoms: C_5  and  O_28
REMARK    3  A    between atoms: C_15  and  C_18
REMARK    4  A    between atoms: C_20  and  N_25
REMARK    5  A    between atoms: O_28  and  C_29
REMARK                            x       y       z     vdW  Elec       q    Type
REMARK                         _______ _______ _______ _____ _____    ______ ____
ROOT
ATOM      1  C   UNL     1      -1.232   2.053  -3.829  0.00  0.00    +0.044 C 
ATOM      2  C   UNL     1      -1.303   3.003  -2.662  0.00  0.00    -0.045 A 
ATOM      3  C   UNL     1      -1.964   4.206  -2.800  0.00  0.00    +0.007 A 
ATOM      4  C   UNL     1      -2.035   5.085  -1.734  0.00  0.00    +0.048 A 
ATOM      5  C   UNL     1      -1.441   4.751  -0.530  0.00  0.00    +0.141 A 
ATOM      6  C   UNL     1      -0.771   3.532  -0.390  0.00  0.00    +0.074 A 
ATOM      7  C   UNL     1      -0.703   2.658  -1.456  0.00  0.00    -0.013 A 
ATOM      8  C   UNL     1      -0.002   1.327  -1.383  0.00  0.00    +0.049 C 
ATOM      9  C   UNL     1       1.166   1.357  -2.356  0.00  0.00    -0.023 C 
ATOM     10  C   UNL     1       2.275   1.667  -1.734  0.00  0.00    -0.030 C 
ATOM     11  C   UNL     1       2.012   1.890  -0.257  0.00  0.00    +0.033 C 
ATOM     12  C   UNL     1       0.685   1.130  -0.016  0.00  0.00    +0.029 C 
ATOM     13  C   UNL     1      -0.107   1.789   1.102  0.00  0.00    +0.106 C 
ATOM     14  N   UNL     1      -0.186   3.244   0.847  0.00  0.00    -0.334 N 
ATOM     15  H   UNL     1      -0.674   3.712   1.595  0.00  0.00    +0.147 HD
ENDROOT
BRANCH  13  16
ATOM     16  C   UNL     1      -1.503   1.221   1.128  0.00  0.00    -0.007 A 
ATOM     17  C   UNL     1      -1.823   0.137   0.333  0.00  0.00    +0.039 A 
ATOM     18  C   UNL     1      -3.102  -0.387   0.360  0.00  0.00    +0.127 A 
ATOM     19  C   UNL     1      -4.065   0.180   1.175  0.00  0.00    +0.034 A 
ATOM     20  C   UNL     1      -3.747   1.268   1.966  0.00  0.00    +0.022 A 
ATOM     21  C   UNL     1      -2.466   1.789   1.943  0.00  0.00    +0.046 A 
ATOM     22 CL   UNL     1      -2.066   3.155   2.937  0.00  0.00    -0.083 Cl
BRANCH  18  23
ATOM     23  N   UNL     1      -3.443  -1.551  -0.487  0.00  0.00    +0.056 N 
ATOM     24  O   UNL     1      -4.571  -2.010  -0.467  0.00  0.00    -0.126 OA
ATOM     25  O   UNL     1      -2.595  -2.051  -1.205  0.00  0.00    -0.126 OA
ENDBRANCH  18  23
ENDBRANCH  13  16
BRANCH   5  26
ATOM     26  O   UNL     1      -1.508   5.612   0.520  0.00  0.00    -0.493 OA
ATOM     27  C   UNL     1      -2.208   6.841   0.309  0.00  0.00    +0.277 C 
ENDBRANCH   5  26
TORSDOF 3
