REMARK  Name = ZINC02445255
REMARK  2 active torsions:
REMARK  status: ('A' for Active; 'I' for Inactive)
REMARK    1  A    between atoms: C_4  and  C_7
REMARK    2  A    between atoms: C_10  and  C_18
REMARK                            x       y       z     vdW  Elec       q    Type
REMARK                         _______ _______ _______ _____ _____    ______ ____
ROOT
ATOM      1  C   UNL     1       3.711  -0.707  -0.038  0.00  0.00    +0.143 C 
ATOM      2  C   UNL     1       3.817  -1.600   1.205  0.00  0.00    +0.058 C 
ATOM      3  C   UNL     1       5.012  -2.549   1.060  0.00  0.00    +0.106 C 
ATOM      4  N   UNL     1       4.779  -3.425  -0.105  0.00  0.00    -0.307 N 
ATOM      5  C   UNL     1       4.282  -2.810  -1.246  0.00  0.00    +0.215 A 
ATOM      6  N   UNL     1       3.787  -1.546  -1.233  0.00  0.00    -0.226 N 
ATOM      7  N   UNL     1       3.392  -1.259  -2.539  0.00  0.00    -0.156 NA
ATOM      8  C   UNL     1       3.656  -2.322  -3.257  0.00  0.00    +0.247 A 
ATOM      9  N   UNL     1       4.194  -3.264  -2.467  0.00  0.00    -0.202 NA
ATOM     10  H   UNL     1       4.962  -4.378  -0.074  0.00  0.00    +0.149 HD
ENDROOT
BRANCH   3  11
ATOM     11  C   UNL     1       5.148  -3.385   2.307  0.00  0.00    -0.027 A 
ATOM     12  C   UNL     1       4.342  -4.494   2.487  0.00  0.00    +0.006 A 
ATOM     13  C   UNL     1       4.468  -5.260   3.630  0.00  0.00    +0.015 A 
ATOM     14  C   UNL     1       5.399  -4.918   4.594  0.00  0.00    +0.018 A 
ATOM     15  C   UNL     1       6.206  -3.809   4.412  0.00  0.00    +0.015 A 
ATOM     16  C   UNL     1       6.083  -3.046   3.267  0.00  0.00    +0.006 A 
ATOM     17 BR   UNL     1       5.571  -5.967   6.158  0.00  0.00    -0.050 Br
ENDBRANCH   3  11
BRANCH   1  21
ATOM     18  C   UNL     1      -0.017   1.378   0.010  0.00  0.00    +0.000 A 
ATOM     19  C   UNL     1       1.171   2.086   0.002  0.00  0.00    +0.000 A 
ATOM     20  C   UNL     1       2.377   1.411  -0.013  0.00  0.00    +0.006 A 
ATOM     21  C   UNL     1       2.396   0.029  -0.020  0.00  0.00    -0.023 A 
ATOM     22  C   UNL     1       1.208  -0.679  -0.012  0.00  0.00    +0.006 A 
ATOM     23  C   UNL     1       0.002  -0.004   0.002  0.00  0.00    +0.000 A 
ENDBRANCH   1  21
TORSDOF 2
