REMARK  Name = ZINC09209511
REMARK  8 active torsions:
REMARK  status: ('A' for Active; 'I' for Inactive)
REMARK    1  A    between atoms: C_1  and  C_2
REMARK    2  A    between atoms: C_9  and  N_22
REMARK    3  A    between atoms: C_10  and  C_11
REMARK    4  A    between atoms: N_13  and  C_14
REMARK    5  A    between atoms: C_23  and  C_25
REMARK    6  A    between atoms: C_25  and  C_27
REMARK    7  A    between atoms: C_25  and  O_28
REMARK    8  A    between atoms: O_28  and  C_29
REMARK                            x       y       z     vdW  Elec       q    Type
REMARK                         _______ _______ _______ _____ _____    ______ ____
ROOT
ATOM      1  C   UNL     1      -9.720  -2.544  -0.346  0.00  0.00    +0.008 C 
ATOM      2  C   UNL     1      -8.191  -2.512  -0.324  0.00  0.00    -0.009 C 
ATOM      3  C   UNL     1      -7.672  -3.503   0.721  0.00  0.00    +0.008 C 
ATOM      4  C   UNL     1      -6.157  -3.663   0.579  0.00  0.00    +0.037 C 
ATOM      5  C   UNL     1      -5.514  -2.282   0.599  0.00  0.00    -0.023 A 
ATOM      6  C   UNL     1      -6.244  -1.172   0.358  0.00  0.00    -0.004 A 
ATOM      7  S   UNL     1      -5.092   0.166   0.495  0.00  0.00    -0.077 S 
ATOM      8  C   UNL     1      -3.658  -0.736   0.857  0.00  0.00    +0.085 A 
ATOM      9  C   UNL     1      -4.106  -2.050   0.871  0.00  0.00    +0.069 A 
ATOM     10  C   UNL     1      -7.708  -1.102   0.049  0.00  0.00    +0.046 C 
ENDROOT
BRANCH   9  11
ATOM     11  C   UNL     1      -3.192  -3.162   1.150  0.00  0.00    +0.247 C 
ATOM     12  O   UNL     1      -3.025  -3.540   2.294  0.00  0.00    -0.270 OA
ATOM     13  N   UNL     1      -2.536  -3.765   0.138  0.00  0.00    -0.307 N 
ATOM     14  H   UNL     1      -2.669  -3.463  -0.774  0.00  0.00    +0.149 HD
BRANCH  13  15
ATOM     15  C   UNL     1      -1.623  -4.876   0.416  0.00  0.00    +0.096 C 
ATOM     16  C   UNL     1      -2.420  -6.190   0.474  0.00  0.00    +0.046 C 
ATOM     17  C   UNL     1      -1.409  -7.371   0.457  0.00  0.00    +0.168 C 
ATOM     18  S   UNL     1      -0.198  -6.758  -0.790  0.00  0.00    -0.029 S 
ATOM     19  O   UNL     1      -0.571  -7.242  -2.073  0.00  0.00    -0.174 OA
ATOM     20  O   UNL     1       1.119  -6.992  -0.310  0.00  0.00    -0.174 OA
ATOM     21  C   UNL     1      -0.556  -4.957  -0.702  0.00  0.00    +0.188 C 
ENDBRANCH  13  15
ENDBRANCH   9  11
BRANCH   8  22
ATOM     22  N   UNL     1      -2.375  -0.261   1.083  0.00  0.00    -0.276 N 
ATOM     23  C   UNL     1      -2.127   1.062   1.027  0.00  0.00    +0.258 C 
ATOM     24  O   UNL     1      -3.026   1.838   0.779  0.00  0.00    -0.271 OA
ATOM     25  H   UNL     1      -1.656  -0.881   1.282  0.00  0.00    +0.155 HD
BRANCH  23  26
ATOM     26  C   UNL     1      -0.733   1.579   1.273  0.00  0.00    +0.256 C 
ATOM     27  C   UNL     1       0.198   1.080   0.167  0.00  0.00    +0.062 C 
BRANCH  26  28
ATOM     28  O   UNL     1      -0.748   3.008   1.275  0.00  0.00    -0.480 OA
BRANCH  28  29
ATOM     29  C   UNL     1       0.242   3.635   1.963  0.00  0.00    +0.122 A 
ATOM     30  C   UNL     1       1.266   2.894   2.535  0.00  0.00    +0.048 A 
ATOM     31  C   UNL     1       2.275   3.533   3.229  0.00  0.00    +0.042 A 
ATOM     32  C   UNL     1       2.258   4.911   3.365  0.00  0.00    +0.124 A 
ATOM     33  C   UNL     1       1.233   5.651   2.800  0.00  0.00    +0.042 A 
ATOM     34  C   UNL     1       0.226   5.015   2.100  0.00  0.00    +0.048 A 
ATOM     35  F   UNL     1       3.243   5.534   4.048  0.00  0.00    -0.205 F 
ENDBRANCH  28  29
ENDBRANCH  26  28
ENDBRANCH  23  26
ENDBRANCH   8  22
TORSDOF 6
