REMARK  Name = ZINC35057416
REMARK  2 active torsions:
REMARK  status: ('A' for Active; 'I' for Inactive)
REMARK    1  A    between atoms: C_1  and  C_2
REMARK    2  A    between atoms: N_8  and  C_9
REMARK                            x       y       z     vdW  Elec       q    Type
REMARK                         _______ _______ _______ _____ _____    ______ ____
ROOT
ATOM      1  C   UNL     1       4.266  -1.044   1.642  0.00  0.00    +0.070 A 
ATOM      2  C   UNL     1       4.501  -2.239   0.961  0.00  0.00    +0.031 A 
ATOM      3  C   UNL     1       5.792  -2.608   0.641  0.00  0.00    +0.052 A 
ATOM      4  C   UNL     1       6.858  -1.796   0.995  0.00  0.00    +0.173 A 
ATOM      5  C   UNL     1       6.630  -0.601   1.676  0.00  0.00    +0.175 A 
ATOM      6  C   UNL     1       5.338  -0.223   1.994  0.00  0.00    +0.077 A 
ATOM      7  O   UNL     1       7.831   0.006   1.905  0.00  0.00    -0.395 OA
ATOM      8  C   UNL     1       8.823  -1.020   1.722  0.00  0.00    +0.589 C 
ATOM      9  O   UNL     1       8.203  -1.935   0.798  0.00  0.00    -0.395 OA
ATOM     10  F   UNL     1       9.099  -1.660   2.936  0.00  0.00    -0.125 F 
ATOM     11  F   UNL     1       9.992  -0.483   1.172  0.00  0.00    -0.125 F 
ENDROOT
BRANCH   1  18
ATOM     12  C   UNL     1      -0.019   1.526   0.010  0.00  0.00    +0.028 C 
ATOM     13  C   UNL     1       0.002  -0.004   0.002  0.00  0.00    +0.079 C 
ATOM     14  C   UNL     1       0.680  -0.488  -1.302  0.00  0.00    +0.099 C 
ATOM     15  S   UNL     1       2.135  -1.383  -0.615  0.00  0.00    -0.089 S 
ATOM     16  C   UNL     1       2.028  -0.786   1.068  0.00  0.00    +0.155 C 
ATOM     17  N   UNL     1       0.692  -0.471   1.193  0.00  0.00    -0.320 N 
ATOM     18  N   UNL     1       2.984  -0.675   1.961  0.00  0.00    -0.226 NA
ATOM     19  H   UNL     1       0.232  -0.558   2.042  0.00  0.00    +0.148 HD
ENDBRANCH   1  18
TORSDOF 1
