REMARK  Name = ZINC64742505
REMARK  5 active torsions:
REMARK  status: ('A' for Active; 'I' for Inactive)
REMARK    1  A    between atoms: C_6  and  C_7
REMARK    2  A    between atoms: C_7  and  S_8
REMARK    3  A    between atoms: S_8  and  C_9
REMARK    4  A    between atoms: C_15  and  C_23
REMARK    5  A    between atoms: N_25  and  C_26
REMARK                            x       y       z     vdW  Elec       q    Type
REMARK                         _______ _______ _______ _____ _____    ______ ____
ROOT
ATOM      1  C   UNL     1      -3.337  -1.972  -1.535  0.00  0.00    +0.182 C 
ATOM      2  N   UNL     1      -3.744  -2.226  -0.303  0.00  0.00    -0.154 NA
ATOM      3  C   UNL     1      -4.901  -2.841  -0.050  0.00  0.00    +0.249 C 
ATOM      4  O   UNL     1      -5.255  -3.093   1.086  0.00  0.00    -0.273 OA
ATOM      5  C   UNL     1      -5.752  -3.208  -1.248  0.00  0.00    +0.153 C 
ATOM      6  C   UNL     1      -6.049  -4.708  -1.183  0.00  0.00    +0.103 C 
ATOM      7  C   UNL     1      -7.047  -5.057  -2.290  0.00  0.00    +0.110 C 
ATOM      8  C   UNL     1      -6.611  -4.486  -3.608  0.00  0.00    +0.219 C 
ATOM      9  O   UNL     1      -7.083  -4.949  -4.624  0.00  0.00    -0.275 OA
ATOM     10  N   UNL     1      -5.722  -3.484  -3.712  0.00  0.00    -0.273 N 
ATOM     11  C   UNL     1      -5.125  -2.958  -2.607  0.00  0.00    +0.117 C 
ATOM     12  N   UNL     1      -3.980  -2.339  -2.650  0.00  0.00    -0.212 NA
ATOM     13  H   UNL     1      -5.510  -3.120  -4.585  0.00  0.00    +0.156 HD
ENDROOT
BRANCH   6  14
ATOM     14  C   UNL     1      -4.773  -5.484  -1.385  0.00  0.00    +0.222 C 
ATOM     15  O   UNL     1      -3.727  -4.897  -1.563  0.00  0.00    -0.275 OA
ATOM     16  N   UNL     1      -4.795  -6.832  -1.367  0.00  0.00    -0.285 N 
ATOM     17  H   UNL     1      -5.617  -7.301  -1.158  0.00  0.00    +0.155 HD
BRANCH  16  18
ATOM     18  C   UNL     1      -3.629  -7.554  -1.650  0.00  0.00    +0.034 A 
ATOM     19  C   UNL     1      -3.708  -8.759  -2.337  0.00  0.00    +0.026 A 
ATOM     20  C   UNL     1      -2.557  -9.470  -2.615  0.00  0.00    +0.040 A 
ATOM     21  C   UNL     1      -1.326  -8.983  -2.210  0.00  0.00    +0.124 A 
ATOM     22  C   UNL     1      -1.245  -7.782  -1.525  0.00  0.00    +0.040 A 
ATOM     23  C   UNL     1      -2.393  -7.065  -1.250  0.00  0.00    +0.026 A 
ATOM     24  F   UNL     1      -0.201  -9.681  -2.482  0.00  0.00    -0.205 F 
ENDBRANCH  16  18
ENDBRANCH   6  14
BRANCH   1  25
ATOM     25  S   UNL     1      -1.833  -1.074  -1.724  0.00  0.00    -0.084 S 
BRANCH  25  26
ATOM     26  C   UNL     1      -1.285  -0.772  -0.022  0.00  0.00    +0.112 C 
BRANCH  26  32
ATOM     27  C   UNL     1      -0.009   1.381  -0.034  0.00  0.00    +0.007 A 
ATOM     28  C   UNL     1       1.178   2.089  -0.051  0.00  0.00    +0.038 A 
ATOM     29  C   UNL     1       2.386   1.413  -0.074  0.00  0.00    +0.123 A 
ATOM     30  C   UNL     1       2.404   0.029  -0.080  0.00  0.00    +0.038 A 
ATOM     31  C   UNL     1       1.216  -0.677  -0.063  0.00  0.00    +0.007 A 
ATOM     32  C   UNL     1       0.010  -0.002  -0.040  0.00  0.00    -0.037 A 
ATOM     33  F   UNL     1       3.547   2.104  -0.091  0.00  0.00    -0.205 F 
ENDBRANCH  26  32
ENDBRANCH  25  26
ENDBRANCH   1  25
TORSDOF 5
