REMARK  Name = ZINC64981907
REMARK  8 active torsions:
REMARK  status: ('A' for Active; 'I' for Inactive)
REMARK    1  A    between atoms: C_1  and  C_2
REMARK    2  A    between atoms: C_2  and  C_3
REMARK    3  A    between atoms: C_6  and  O_9
REMARK    4  A    between atoms: O_9  and  C_10
REMARK    5  A    between atoms: C_10  and  C_12
REMARK    6  A    between atoms: C_10  and  C_13
REMARK    7  A    between atoms: N_15  and  C_16
REMARK    8  A    between atoms: C_19  and  N_23
REMARK                            x       y       z     vdW  Elec       q    Type
REMARK                         _______ _______ _______ _____ _____    ______ ____
ROOT
ATOM      1  C   UNL     1      -7.405  -1.765  -1.056  0.00  0.00    +0.258 C 
ATOM      2  O   UNL     1      -7.842  -1.462   0.034  0.00  0.00    -0.271 OA
ATOM      3  N   UNL     1      -8.226  -1.807  -2.124  0.00  0.00    -0.282 N 
ATOM      4  H   UNL     1      -7.891  -2.110  -2.982  0.00  0.00    +0.155 HD
ENDROOT
BRANCH   3   5
ATOM      5  C   UNL     1      -9.563  -1.413  -1.994  0.00  0.00    +0.048 A 
ATOM      6  C   UNL     1     -10.251  -1.662  -0.814  0.00  0.00    +0.026 A 
ATOM      7  C   UNL     1     -11.570  -1.272  -0.689  0.00  0.00    +0.034 A 
ATOM      8  C   UNL     1     -12.206  -0.634  -1.738  0.00  0.00    +0.127 A 
ATOM      9  C   UNL     1     -11.525  -0.384  -2.915  0.00  0.00    +0.049 A 
ATOM     10  C   UNL     1     -10.203  -0.766  -3.044  0.00  0.00    +0.041 A 
ATOM     11 BR   UNL     1      -9.269  -0.417  -4.651  0.00  0.00    -0.048 Br
BRANCH   8  12
ATOM     12  N   UNL     1     -13.620  -0.218  -1.601  0.00  0.00    +0.056 N 
ATOM     13  O   UNL     1     -14.217  -0.436  -0.573  0.00  0.00    -0.126 OA
ATOM     14  O   UNL     1     -14.178   0.340  -2.517  0.00  0.00    -0.126 OA
ENDBRANCH   8  12
ENDBRANCH   3   5
BRANCH   1  15
ATOM     15  C   UNL     1      -5.943  -2.095  -1.216  0.00  0.00    +0.256 C 
ATOM     16  C   UNL     1      -5.798  -3.525  -1.739  0.00  0.00    +0.062 C 
BRANCH  15  17
ATOM     17  O   UNL     1      -5.288  -1.981   0.048  0.00  0.00    -0.480 OA
BRANCH  17  21
ATOM     18  C   UNL     1      -1.382  -0.652   0.020  0.00  0.00    -0.047 A 
ATOM     19  C   UNL     1      -2.033  -0.906  -1.173  0.00  0.00    +0.007 A 
ATOM     20  C   UNL     1      -3.341  -1.351  -1.166  0.00  0.00    +0.046 A 
ATOM     21  C   UNL     1      -4.001  -1.544   0.039  0.00  0.00    +0.122 A 
ATOM     22  C   UNL     1      -3.345  -1.289   1.235  0.00  0.00    +0.046 A 
ATOM     23  C   UNL     1      -2.036  -0.849   1.223  0.00  0.00    +0.007 A 
BRANCH  18  25
ATOM     24  C   UNL     1       0.992  -1.367   0.036  0.00  0.00    +0.009 C 
ATOM     25  C   UNL     1       0.044  -0.167   0.010  0.00  0.00    +0.032 C 
ENDBRANCH  18  25
ENDBRANCH  17  21
ENDBRANCH  15  17
ENDBRANCH   1  15
TORSDOF 6
