REMARK  Name = ZINC00290797
REMARK  3 active torsions:
REMARK  status: ('A' for Active; 'I' for Inactive)
REMARK    1  A    between atoms: C_4  and  C_7
REMARK    2  A    between atoms: N_9  and  N_10
REMARK    3  A    between atoms: C_11  and  C_13
REMARK                            x       y       z     vdW  Elec       q    Type
REMARK                         _______ _______ _______ _____ _____    ______ ____
ROOT
ATOM      1  C   UNL     1      -0.070   5.323   0.029  0.00  0.00    +0.260 C 
ATOM      2  O   UNL     1       0.974   5.945   0.021  0.00  0.00    -0.269 OA
ATOM      3  N   UNL     1      -1.246   5.981   0.043  0.00  0.00    -0.230 N 
ATOM      4  H   UNL     1      -2.080   5.485   0.049  0.00  0.00    +0.173 HD
ENDROOT
BRANCH   1   8
ATOM      5  C   UNL     1      -0.013   1.076   0.008  0.00  0.00    +0.000 A 
ATOM      6  C   UNL     1      -1.222   1.748   0.017  0.00  0.00    +0.001 A 
ATOM      7  C   UNL     1      -1.248   3.127   0.030  0.00  0.00    +0.013 A 
ATOM      8  C   UNL     1      -0.050   3.845   0.022  0.00  0.00    +0.038 A 
ATOM      9  C   UNL     1       1.166   3.160   0.007  0.00  0.00    +0.013 A 
ATOM     10  C   UNL     1       1.178   1.781   0.000  0.00  0.00    +0.001 A 
ENDBRANCH   1   8
BRANCH   3  11
ATOM     11  N   UNL     1      -1.265   7.382   0.049  0.00  0.00    -0.228 N 
ATOM     12  C   UNL     1      -2.442   8.040   0.063  0.00  0.00    +0.295 C 
ATOM     13  O   UNL     1      -3.487   7.417   0.071  0.00  0.00    -0.265 OA
ATOM     14  H   UNL     1      -0.432   7.878   0.043  0.00  0.00    +0.173 HD
BRANCH  12  15
ATOM     15  C   UNL     1      -2.462   9.505   0.070  0.00  0.00    +0.192 A 
ATOM     16  C   UNL     1      -3.578  10.293   0.079  0.00  0.00    +0.056 A 
ATOM     17  C   UNL     1      -3.133  11.623   0.086  0.00  0.00    +0.058 A 
ATOM     18  C   UNL     1      -1.780  11.591   0.072  0.00  0.00    +0.171 A 
ATOM     19  O   UNL     1      -1.380  10.313   0.063  0.00  0.00    -0.444 OA
ATOM     20 BR   UNL     1      -0.643  13.102   0.067  0.00  0.00    -0.008 Br
ENDBRANCH  12  15
ENDBRANCH   3  11
TORSDOF 3
