REMARK  Name = ZINC60381758
REMARK  3 active torsions:
REMARK  status: ('A' for Active; 'I' for Inactive)
REMARK    1  A    between atoms: C_1  and  C_2
REMARK    2  A    between atoms: C_4  and  C_7
REMARK    3  A    between atoms: C_7  and  N_8
REMARK                            x       y       z     vdW  Elec       q    Type
REMARK                         _______ _______ _______ _____ _____    ______ ____
ROOT
ATOM      1  N   UNL     1      -1.894  -3.632  -1.390  0.00  0.00    -0.195 N 
ATOM      2  C   UNL     1      -2.892  -3.091  -2.218  0.00  0.00    +0.061 A 
ATOM      3  C   UNL     1      -3.804  -2.083  -1.910  0.00  0.00    +0.025 A 
ATOM      4  C   UNL     1      -4.736  -1.657  -2.848  0.00  0.00    +0.002 A 
ATOM      5  C   UNL     1      -4.810  -2.192  -4.101  0.00  0.00    +0.009 A 
ATOM      6  C   UNL     1      -3.911  -3.211  -4.457  0.00  0.00    -0.014 A 
ATOM      7  C   UNL     1      -2.969  -3.637  -3.498  0.00  0.00    +0.031 A 
ATOM      8  C   UNL     1      -2.057  -4.650  -3.815  0.00  0.00    +0.118 A 
ATOM      9  C   UNL     1      -2.070  -5.225  -5.031  0.00  0.00    +0.029 A 
ATOM     10  C   UNL     1      -3.001  -4.809  -5.991  0.00  0.00    +0.003 A 
ATOM     11  C   UNL     1      -3.907  -3.826  -5.720  0.00  0.00    +0.009 A 
ATOM     12  S   UNL     1      -1.124  -4.797  -2.318  0.00  0.00    +0.076 S 
ATOM     13  O   UNL     1      -1.416  -6.067  -1.750  0.00  0.00    -0.150 OA
ATOM     14  O   UNL     1       0.196  -4.340  -2.580  0.00  0.00    -0.150 OA
ENDROOT
BRANCH   1  15
ATOM     15  C   UNL     1      -1.588  -3.254  -0.008  0.00  0.00    +0.211 C 
BRANCH  15  19
ATOM     16  C   UNL     1      -0.018   1.503   0.010  0.00  0.00    +0.112 C 
ATOM     17  C   UNL     1       0.002  -0.004   0.002  0.00  0.00    +0.224 A 
ATOM     18  N   UNL     1      -1.044  -0.783   0.003  0.00  0.00    -0.195 NA
ATOM     19  C   UNL     1      -0.663  -2.065  -0.006  0.00  0.00    +0.191 A 
ATOM     20  N   UNL     1       0.638  -2.118  -0.012  0.00  0.00    -0.060 NA
ATOM     21  O   UNL     1       1.097  -0.774  -0.013  0.00  0.00    -0.338 OA
ENDBRANCH  15  19
ENDBRANCH   1  15
TORSDOF 2
