REMARK  Name = ZINC43129809
REMARK  1 active torsions:
REMARK  status: ('A' for Active; 'I' for Inactive)
REMARK    1  A    between atoms: C_4  and  C_7
REMARK                            x       y       z     vdW  Elec       q    Type
REMARK                         _______ _______ _______ _____ _____    ______ ____
ROOT
ATOM      1  C   UNL     1       3.713  -0.703  -0.040  0.00  0.00    +0.067 C 
ATOM      2  C   UNL     1       3.792  -1.562  -1.300  0.00  0.00    +0.122 C 
ATOM      3  N   UNL     1       4.931  -2.483  -1.150  0.00  0.00    -0.280 N 
ATOM      4  C   UNL     1       4.854  -3.479  -0.076  0.00  0.00    +0.144 C 
ATOM      5  C   UNL     1       4.350  -2.826   1.186  0.00  0.00    -0.026 A 
ATOM      6  C   UNL     1       3.819  -1.556   1.197  0.00  0.00    -0.034 A 
ATOM      7  C   UNL     1       3.360  -1.017   2.393  0.00  0.00    +0.004 A 
ATOM      8  C   UNL     1       3.437  -1.741   3.564  0.00  0.00    +0.000 A 
ATOM      9  C   UNL     1       3.976  -3.014   3.552  0.00  0.00    +0.000 A 
ATOM     10  C   UNL     1       4.430  -3.551   2.367  0.00  0.00    +0.005 A 
ATOM     11  C   UNL     1       6.001  -2.413  -1.966  0.00  0.00    +0.308 C 
ATOM     12  O   UNL     1       6.001  -1.639  -2.904  0.00  0.00    -0.252 OA
ATOM     13  N   UNL     1       7.071  -3.201  -1.744  0.00  0.00    -0.247 N 
ATOM     14  C   UNL     1       8.216  -3.055  -2.519  0.00  0.00    +0.189 A 
ATOM     15  N   UNL     1       8.451  -2.211  -3.505  0.00  0.00    -0.126 NA
ATOM     16  N   UNL     1       9.553  -2.196  -4.123  0.00  0.00    -0.148 NA
ATOM     17  C   UNL     1      10.496  -3.049  -3.774  0.00  0.00    +0.183 A 
ATOM     18  S   UNL     1       9.669  -3.907  -2.441  0.00  0.00    -0.039 S 
ATOM     19  H   UNL     1       7.043  -3.870  -1.042  0.00  0.00    +0.158 HD
ENDROOT
BRANCH   1  23
ATOM     20  C   UNL     1      -0.016   1.381   0.006  0.00  0.00    +0.000 A 
ATOM     21  C   UNL     1       1.171   2.089  -0.004  0.00  0.00    +0.000 A 
ATOM     22  C   UNL     1       2.378   1.414  -0.019  0.00  0.00    +0.004 A 
ATOM     23  C   UNL     1       2.397   0.032  -0.022  0.00  0.00    -0.038 A 
ATOM     24  C   UNL     1       1.210  -0.676  -0.011  0.00  0.00    +0.004 A 
ATOM     25  C   UNL     1       0.003  -0.002   0.002  0.00  0.00    +0.000 A 
ENDBRANCH   1  23
TORSDOF 1
