REMARK  Name = ZINC49904203
REMARK  6 active torsions:
REMARK  status: ('A' for Active; 'I' for Inactive)
REMARK    1  A    between atoms: C_1  and  C_2
REMARK    2  A    between atoms: C_5  and  C_9
REMARK    3  A    between atoms: C_7  and  C_8
REMARK    4  A    between atoms: C_10  and  C_20
REMARK    5  A    between atoms: C_15  and  C_19
REMARK    6  A    between atoms: C_20  and  C_21
REMARK                            x       y       z     vdW  Elec       q    Type
REMARK                         _______ _______ _______ _____ _____    ______ ____
ROOT
ATOM      1  C   UNL     1       0.059  -4.256  -0.021  0.00  0.00    +0.068 A 
ATOM      2  C   UNL     1      -0.707  -5.064  -0.803  0.00  0.00    +0.055 A 
ATOM      3  N   UNL     1      -0.368  -6.344  -0.488  0.00  0.00    -0.332 N 
ATOM      4  C   UNL     1       0.590  -6.291   0.469  0.00  0.00    +0.088 A 
ATOM      5  N   UNL     1       0.845  -5.046   0.741  0.00  0.00    -0.343 N 
ATOM      6  C   UNL     1       1.235  -7.510   1.087  0.00  0.00    +0.075 C 
ATOM      7  C   UNL     1       0.930  -8.719   0.192  0.00  0.00    -0.005 C 
ATOM      8  C   UNL     1      -0.568  -8.747  -0.126  0.00  0.00    +0.025 C 
ATOM      9  C   UNL     1      -0.915  -7.579  -1.056  0.00  0.00    +0.123 C 
ATOM     10  C   UNL     1       1.323 -10.005   0.920  0.00  0.00    +0.008 C 
ATOM     11  H   UNL     1       1.494  -4.733   1.390  0.00  0.00    +0.167 HD
ENDROOT
BRANCH   1  16
ATOM     12  C   UNL     1      -0.018   1.503   0.010  0.00  0.00    +0.044 C 
ATOM     13  C   UNL     1       0.002  -0.004   0.002  0.00  0.00    -0.047 A 
ATOM     14  C   UNL     1       0.006  -0.687  -1.201  0.00  0.00    +0.004 A 
ATOM     15  C   UNL     1       0.024  -2.066  -1.215  0.00  0.00    +0.010 A 
ATOM     16  C   UNL     1       0.040  -2.772  -0.013  0.00  0.00    +0.000 A 
ATOM     17  C   UNL     1       0.036  -2.080   1.196  0.00  0.00    +0.013 A 
ATOM     18  C   UNL     1       0.023  -0.699   1.197  0.00  0.00    -0.047 A 
ATOM     19  C   UNL     1       0.025   0.051   2.504  0.00  0.00    +0.044 C 
ENDBRANCH   1  16
BRANCH   2  20
ATOM     20  C   UNL     1      -1.732  -4.627  -1.818  0.00  0.00    +0.180 C 
BRANCH  20  21
ATOM     21  C   UNL     1      -3.077  -4.500  -1.151  0.00  0.00    +0.362 C 
ATOM     22  O   UNL     1      -3.193  -4.743   0.038  0.00  0.00    -0.246 OA
ATOM     23  O   UNL     1      -4.050  -4.156  -1.801  0.00  0.00    -0.246 OA
ENDBRANCH  20  21
ENDBRANCH   2  20
TORSDOF 3
