REMARK  Name = ZINC25667246
REMARK  4 active torsions:
REMARK  status: ('A' for Active; 'I' for Inactive)
REMARK    1  A    between atoms: C_3  and  N_18
REMARK    2  A    between atoms: C_6  and  C_7
REMARK    3  A    between atoms: N_8  and  N_9
REMARK    4  A    between atoms: C_10  and  C_11
REMARK                            x       y       z     vdW  Elec       q    Type
REMARK                         _______ _______ _______ _____ _____    ______ ____
ROOT
ATOM      1  C   UNL     1      -0.214   5.372   0.328  0.00  0.00    +0.142 C 
ATOM      2  N   UNL     1      -0.205   4.077   0.142  0.00  0.00    -0.157 NA
ENDROOT
BRANCH   1   8
ATOM      3  C   UNL     1       2.270   5.448   0.223  0.00  0.00    +0.012 A 
ATOM      4  C   UNL     1       3.455   6.146   0.322  0.00  0.00    +0.033 A 
ATOM      5  C   UNL     1       3.445   7.493   0.640  0.00  0.00    +0.126 A 
ATOM      6  C   UNL     1       2.247   8.151   0.857  0.00  0.00    +0.033 A 
ATOM      7  C   UNL     1       1.053   7.469   0.757  0.00  0.00    +0.012 A 
ATOM      8  C   UNL     1       1.055   6.107   0.436  0.00  0.00    -0.005 A 
BRANCH   5   9
ATOM      9  N   UNL     1       4.722   8.233   0.750  0.00  0.00    +0.056 N 
ATOM     10  O   UNL     1       4.716   9.419   1.030  0.00  0.00    -0.126 OA
ATOM     11  O   UNL     1       5.778   7.657   0.560  0.00  0.00    -0.126 OA
ENDBRANCH   5   9
ENDBRANCH   1   8
BRANCH   2  12
ATOM     12  N   UNL     1      -1.316   3.421   0.128  0.00  0.00    -0.157 NA
ATOM     13  C   UNL     1      -1.302   2.116   0.044  0.00  0.00    +0.142 C 
BRANCH  13  14
ATOM     14  C   UNL     1      -0.024   1.390   0.083  0.00  0.00    -0.005 A 
ATOM     15  C   UNL     1      -0.011  -0.008   0.148  0.00  0.00    +0.010 A 
ATOM     16  C   UNL     1       1.191  -0.681   0.189  0.00  0.00    +0.016 A 
ATOM     17  C   UNL     1       2.384   0.022   0.167  0.00  0.00    +0.018 A 
ATOM     18  C   UNL     1       2.379   1.406   0.102  0.00  0.00    +0.016 A 
ATOM     19  C   UNL     1       1.185   2.093   0.060  0.00  0.00    +0.010 A 
ATOM     20 BR   UNL     1       4.028  -0.911   0.224  0.00  0.00    -0.050 Br
ENDBRANCH  13  14
ENDBRANCH   2  12
TORSDOF 4
