REMARK  Name = ZINC15030178
REMARK  9 active torsions:
REMARK  status: ('A' for Active; 'I' for Inactive)
REMARK    1  A    between atoms: C_1  and  C_2
REMARK    2  A    between atoms: C_5  and  N_9
REMARK    3  A    between atoms: C_7  and  C_8
REMARK    4  A    between atoms: C_10  and  S_14
REMARK    5  A    between atoms: S_14  and  C_15
REMARK    6  A    between atoms: C_15  and  C_17
REMARK    7  A    between atoms: C_15  and  C_18
REMARK    8  A    between atoms: N_20  and  C_21
REMARK    9  A    between atoms: C_22  and  C_31
REMARK                            x       y       z     vdW  Elec       q    Type
REMARK                         _______ _______ _______ _____ _____    ______ ____
ROOT
ATOM      1  C   UNL     1      -0.013   1.086   0.008  0.00  0.00    +0.137 C 
ATOM      2  C   UNL     1      -0.729   1.579   1.267  0.00  0.00    +0.029 C 
ENDROOT
BRANCH   1   3
ATOM      3  C   UNL     1      -0.742   1.585  -1.213  0.00  0.00    +0.231 C 
ATOM      4  O   UNL     1      -0.328   2.555  -1.812  0.00  0.00    -0.274 OA
ATOM      5  N   UNL     1      -1.854   0.954  -1.639  0.00  0.00    -0.278 N 
ATOM      6  H   UNL     1      -2.185   0.178  -1.160  0.00  0.00    +0.155 HD
BRANCH   5   7
ATOM      7  C   UNL     1      -2.525   1.414  -2.763  0.00  0.00    +0.090 A 
ATOM      8  C   UNL     1      -3.672   0.905  -3.349  0.00  0.00    +0.084 A 
ATOM      9  C   UNL     1      -4.184   1.578  -4.535  0.00  0.00    -0.018 A 
ATOM     10  C   UNL     1      -3.459   2.642  -4.943  0.00  0.00    -0.004 A 
ATOM     11  S   UNL     1      -2.136   2.768  -3.771  0.00  0.00    -0.077 S 
ATOM     12  C   UNL     1      -3.713   3.524  -6.125  0.00  0.00    +0.043 C 
ATOM     13  C   UNL     1      -5.183   3.963  -6.121  0.00  0.00    +0.005 C 
ATOM     14  C   UNL     1      -5.998   2.934  -6.898  0.00  0.00    +0.001 C 
ATOM     15  C   UNL     1      -5.397   1.541  -6.716  0.00  0.00    +0.005 C 
ATOM     16  C   UNL     1      -5.450   1.124  -5.250  0.00  0.00    +0.037 C 
BRANCH   8  17
ATOM     17  C   UNL     1      -4.333  -0.244  -2.807  0.00  0.00    +0.102 C 
ATOM     18  N   UNL     1      -4.857  -1.156  -2.377  0.00  0.00    -0.191 NA
ENDBRANCH   8  17
ENDBRANCH   5   7
ENDBRANCH   1   3
BRANCH   1  19
ATOM     19  S   UNL     1       1.685   1.712  -0.005  0.00  0.00    -0.072 S 
BRANCH  19  21
ATOM     20  N   UNL     1       3.595   0.969   1.890  0.00  0.00    -0.187 N 
ATOM     21  C   UNL     1       2.330   0.877   1.406  0.00  0.00    +0.215 A 
ATOM     22  N   UNL     1       1.676   0.050   2.193  0.00  0.00    -0.101 NA
ATOM     23  N   UNL     1       2.443  -0.386   3.126  0.00  0.00    -0.022 NA
ATOM     24  N   UNL     1       3.621   0.126   3.015  0.00  0.00    -0.038 NA
BRANCH  20  29
ATOM     25  C   UNL     1       7.861   4.087  -0.181  0.00  0.00    +0.044 C 
ATOM     26  C   UNL     1       6.728   3.260   0.369  0.00  0.00    -0.047 A 
ATOM     27  C   UNL     1       5.814   2.682  -0.493  0.00  0.00    +0.006 A 
ATOM     28  C   UNL     1       4.774   1.923   0.008  0.00  0.00    +0.028 A 
ATOM     29  C   UNL     1       4.649   1.739   1.378  0.00  0.00    +0.070 A 
ATOM     30  C   UNL     1       5.565   2.324   2.241  0.00  0.00    +0.031 A 
ATOM     31  C   UNL     1       6.606   3.078   1.734  0.00  0.00    -0.046 A 
ATOM     32  C   UNL     1       7.604   3.709   2.670  0.00  0.00    +0.044 C 
ENDBRANCH  20  29
ENDBRANCH  19  21
ENDBRANCH   1  19
TORSDOF 6
