REMARK  Name = ZINC37523800
REMARK  7 active torsions:
REMARK  status: ('A' for Active; 'I' for Inactive)
REMARK    1  A    between atoms: C_1  and  C_2
REMARK    2  A    between atoms: C_5  and  C_23
REMARK    3  A    between atoms: C_6  and  N_8
REMARK    4  A    between atoms: C_12  and  C_16
REMARK    5  A    between atoms: N_19  and  C_20
REMARK    6  A    between atoms: C_20  and  C_21
REMARK    7  A    between atoms: C_20  and  C_22
REMARK                            x       y       z     vdW  Elec       q    Type
REMARK                         _______ _______ _______ _____ _____    ______ ____
ROOT
ATOM      1  N   UNL     1      -0.085  -2.674   2.369  0.00  0.00    -0.268 N 
ATOM      2  C   UNL     1       1.251  -3.012   2.840  0.00  0.00    +0.133 C 
ATOM      3  C   UNL     1       1.227  -3.372   4.327  0.00  0.00    +0.129 C 
ATOM      4  N   UNL     1       0.110  -4.304   4.557  0.00  0.00    -0.273 N 
ATOM      5  C   UNL     1      -1.246  -3.818   4.259  0.00  0.00    +0.161 C 
ATOM      6  C   UNL     1      -1.217  -3.053   2.965  0.00  0.00    +0.240 C 
ATOM      7  O   UNL     1      -2.271  -2.772   2.436  0.00  0.00    -0.273 OA
ATOM      8  C   UNL     1      -2.201  -5.007   4.138  0.00  0.00    +0.038 C 
ATOM      9  C   UNL     1       0.322  -5.551   5.021  0.00  0.00    +0.303 C 
ATOM     10  O   UNL     1      -0.622  -6.266   5.297  0.00  0.00    -0.253 OA
ATOM     11  N   UNL     1       1.581  -6.006   5.179  0.00  0.00    -0.297 N 
ATOM     12  H   UNL     1       2.333  -5.414   5.028  0.00  0.00    +0.150 HD
ENDROOT
BRANCH   1  18
ATOM     13  C   UNL     1      -0.357   1.764   0.271  0.00  0.00    +0.044 C 
ATOM     14  C   UNL     1      -0.323   0.261   0.167  0.00  0.00    -0.049 A 
ATOM     15  C   UNL     1      -0.394  -0.347  -1.073  0.00  0.00    +0.004 A 
ATOM     16  C   UNL     1      -0.363  -1.726  -1.173  0.00  0.00    +0.005 A 
ATOM     17  C   UNL     1      -0.260  -2.500  -0.034  0.00  0.00    -0.029 A 
ATOM     18  C   UNL     1      -0.189  -1.893   1.213  0.00  0.00    +0.040 A 
ATOM     19  C   UNL     1      -0.215  -0.507   1.309  0.00  0.00    +0.027 A 
ATOM     20  C   UNL     1      -0.227  -4.003  -0.144  0.00  0.00    +0.045 C 
ENDBRANCH   1  18
BRANCH  11  21
ATOM     21  C   UNL     1       1.812  -7.397   5.580  0.00  0.00    +0.068 C 
ATOM     22  C   UNL     1       3.196  -7.841   5.104  0.00  0.00    +0.027 C 
ATOM     23  C   UNL     1       1.736  -7.508   7.104  0.00  0.00    +0.027 C 
ENDBRANCH  11  21
TORSDOF 2
