REMARK  Name = ZINC52994037
REMARK  9 active torsions:
REMARK  status: ('A' for Active; 'I' for Inactive)
REMARK    1  A    between atoms: C_1  and  C_2
REMARK    2  A    between atoms: C_2  and  O_3
REMARK    3  A    between atoms: O_3  and  C_4
REMARK    4  A    between atoms: C_4  and  C_6
REMARK    5  A    between atoms: C_7  and  C_29
REMARK    6  A    between atoms: C_8  and  C_13
REMARK    7  A    between atoms: C_11  and  C_12
REMARK    8  A    between atoms: C_18  and  C_21
REMARK    9  A    between atoms: C_21  and  N_22
REMARK                            x       y       z     vdW  Elec       q    Type
REMARK                         _______ _______ _______ _____ _____    ______ ____
ROOT
ATOM      1  C   UNL     1      -6.030  -3.553  -1.263  0.00  0.00    +0.263 C 
ATOM      2  O   UNL     1      -5.959  -3.386  -2.466  0.00  0.00    -0.268 OA
ATOM      3  N   UNL     1      -7.094  -4.186  -0.732  0.00  0.00    -0.296 N 
ATOM      4  C   UNL     1      -7.250  -4.295   0.725  0.00  0.00    +0.108 C 
ATOM      5  C   UNL     1      -7.445  -5.769   1.092  0.00  0.00    +0.021 C 
ATOM      6  C   UNL     1      -8.617  -6.340   0.290  0.00  0.00    -0.025 C 
ATOM      7  C   UNL     1      -8.305  -6.251  -1.205  0.00  0.00    +0.021 C 
ATOM      8  C   UNL     1      -8.123  -4.777  -1.598  0.00  0.00    +0.108 C 
ENDROOT
BRANCH   1  11
ATOM      9  C   UNL     1      -3.767  -1.852   1.061  0.00  0.00    +0.083 A 
ATOM     10  C   UNL     1      -5.009  -1.947   0.392  0.00  0.00    -0.006 A 
ATOM     11  C   UNL     1      -4.956  -3.063  -0.390  0.00  0.00    +0.106 A 
ATOM     12  N   UNL     1      -3.722  -3.652  -0.220  0.00  0.00    -0.354 N 
ATOM     13  H   UNL     1      -3.421  -4.462  -0.661  0.00  0.00    +0.166 HD
ATOM     14  C   UNL     1      -3.000  -2.925   0.647  0.00  0.00    +0.028 A 
ATOM     15  C   UNL     1      -1.594  -3.230   1.096  0.00  0.00    +0.064 C 
ATOM     16  C   UNL     1      -6.171  -0.997   0.520  0.00  0.00    +0.047 C 
BRANCH   9  17
ATOM     17  C   UNL     1      -3.365  -0.805   2.015  0.00  0.00    +0.341 C 
ATOM     18  O   UNL     1      -2.820   0.205   1.614  0.00  0.00    -0.245 OA
BRANCH  17  19
ATOM     19  O   UNL     1      -3.601  -0.965   3.332  0.00  0.00    -0.461 OA
BRANCH  19  21
ATOM     20  C   UNL     1      -3.533  -0.269   5.645  0.00  0.00    +0.048 C 
ATOM     21  C   UNL     1      -3.184   0.091   4.199  0.00  0.00    +0.229 C 
ENDBRANCH  19  21
ENDBRANCH  17  19
ENDBRANCH   9  17
ENDBRANCH   1  11
BRANCH   6  22
ATOM     22  C   UNL     1      -8.837  -7.803   0.680  0.00  0.00    -0.075 C 
BRANCH  22  23
ATOM     23  N   UNL     1     -10.002  -8.332  -0.041  0.00  0.00    +0.380 N 
ATOM     24  C   UNL     1     -11.201  -7.582   0.383  0.00  0.00    -0.079 C 
ATOM     25  C   UNL     1     -12.227  -7.668  -0.719  0.00  0.00    -0.019 C 
ATOM     26  C   UNL     1     -13.237  -8.802  -0.462  0.00  0.00    -0.002 C 
ATOM     27  C   UNL     1     -12.548 -10.067   0.091  0.00  0.00    -0.002 C 
ATOM     28  C   UNL     1     -11.240 -10.356  -0.600  0.00  0.00    -0.019 C 
ATOM     29  C   UNL     1     -10.093  -9.704   0.200  0.00  0.00    -0.079 C 
ATOM     30  H   UNL     1      -9.864  -8.185  -1.030  0.00  0.00    -0.082 HD
ENDBRANCH  22  23
ENDBRANCH   6  22
TORSDOF 6
