REMARK  Name = ZINC54727423
REMARK  11 active torsions:
REMARK  status: ('A' for Active; 'I' for Inactive)
REMARK    1  A    between atoms: C_1  and  C_2
REMARK    2  A    between atoms: C_5  and  C_30
REMARK    3  A    between atoms: N_8  and  C_10
REMARK    4  A    between atoms: C_10  and  C_11
REMARK    5  A    between atoms: C_10  and  C_12
REMARK    6  A    between atoms: C_10  and  C_13
REMARK    7  A    between atoms: C_13  and  N_14
REMARK    8  A    between atoms: N_17  and  C_18
REMARK    9  A    between atoms: N_17  and  C_27
REMARK   10  A    between atoms: C_18  and  C_19
REMARK   11  A    between atoms: N_23  and  C_24
REMARK                            x       y       z     vdW  Elec       q    Type
REMARK                         _______ _______ _______ _____ _____    ______ ____
ROOT
ATOM      1  N   UNL     1       1.625   1.427   3.634  0.00  0.00    -0.301 N 
ATOM      2  C   UNL     1       1.387   2.357   4.579  0.00  0.00    +0.303 C 
ATOM      3  O   UNL     1       1.293   2.029   5.746  0.00  0.00    -0.253 OA
ATOM      4  N   UNL     1       1.254   3.653   4.230  0.00  0.00    -0.275 N 
ATOM      5  H   UNL     1       1.628   1.677   2.696  0.00  0.00    +0.150 HD
ENDROOT
BRANCH   4   6
ATOM      6  C   UNL     1       1.258   4.035   2.816  0.00  0.00    +0.078 C 
ATOM      7  C   UNL     1       0.160   4.987   2.338  0.00  0.00    +0.024 C 
ATOM      8  C   UNL     1       0.120   3.510   1.938  0.00  0.00    +0.024 C 
ENDBRANCH   4   6
BRANCH   1   9
ATOM      9  C   UNL     1       1.879   0.037   4.022  0.00  0.00    +0.093 C 
BRANCH   9  10
ATOM     10  C   UNL     1       2.234  -0.783   2.780  0.00  0.00    -0.055 C 
ATOM     11  C   UNL     1       2.466  -2.241   3.180  0.00  0.00    -0.008 C 
ATOM     12  C   UNL     1       3.507  -0.220   2.145  0.00  0.00    -0.008 C 
BRANCH  10  18
ATOM     13  C   UNL     1      -1.506   0.308   1.159  0.00  0.00    +0.005 C 
ATOM     14  C   UNL     1      -1.243  -1.176   1.424  0.00  0.00    -0.031 C 
ATOM     15  C   UNL     1      -0.898  -1.877   0.107  0.00  0.00    +0.003 C 
ATOM     16  C   UNL     1       0.396  -1.282  -0.454  0.00  0.00    -0.031 C 
ATOM     17  C   UNL     1       1.509  -1.424   0.587  0.00  0.00    -0.075 C 
ATOM     18  N   UNL     1       1.131  -0.710   1.813  0.00  0.00    +0.384 N 
ATOM     19  C   UNL     1      -0.070  -1.321   2.396  0.00  0.00    -0.075 C 
ATOM     20  C   UNL     1       0.791  -2.028  -1.730  0.00  0.00    +0.005 C 
ATOM     21  H   UNL     1       0.942   0.257   1.593  0.00  0.00    -0.081 HD
ENDBRANCH  10  18
ENDBRANCH   9  10
ENDBRANCH   1   9
BRANCH   4  22
ATOM     22  C   UNL     1       1.104   4.678   5.266  0.00  0.00    +0.184 C 
BRANCH  22  23
ATOM     23  C   UNL     1       2.463   5.077   5.779  0.00  0.00    +0.131 A 
ATOM     24  N   UNL     1       3.149   4.442   6.690  0.00  0.00    -0.239 NA
ATOM     25  C   UNL     1       4.310   5.081   6.895  0.00  0.00    +0.130 A 
ATOM     26  C   UNL     1       4.346   6.152   6.079  0.00  0.00    +0.112 A 
ATOM     27  N   UNL     1       3.177   6.147   5.367  0.00  0.00    -0.277 N 
BRANCH  27  28
ATOM     28  C   UNL     1       2.775   7.121   4.350  0.00  0.00    +0.449 C 
ATOM     29  F   UNL     1       3.904   7.561   3.652  0.00  0.00    -0.185 F 
ATOM     30  F   UNL     1       1.879   6.521   3.458  0.00  0.00    -0.185 F 
ENDBRANCH  27  28
ENDBRANCH  22  23
ENDBRANCH   4  22
TORSDOF 7
