REMARK  Name = ZINC05561208
REMARK  4 active torsions:
REMARK  status: ('A' for Active; 'I' for Inactive)
REMARK    1  A    between atoms: C_2  and  C_3
REMARK    2  A    between atoms: C_3  and  N_4
REMARK    3  A    between atoms: C_5  and  O_20
REMARK    4  A    between atoms: C_6  and  C_10
REMARK                            x       y       z     vdW  Elec       q    Type
REMARK                         _______ _______ _______ _____ _____    ______ ____
ROOT
ATOM      1  N   UNL     1      -0.020   1.337  -0.029  0.00  0.00    -0.261 N 
ATOM      2  C   UNL     1       0.000  -0.006  -0.023  0.00  0.00    +0.211 A 
ATOM      3  C   UNL     1       1.250  -0.626  -0.028  0.00  0.00    +0.077 A 
ATOM      4  S   UNL     1       2.343   0.785  -0.043  0.00  0.00    -0.023 S 
ATOM      5  C   UNL     1       1.137   2.032  -0.041  0.00  0.00    +0.295 A 
ATOM      6  O   UNL     1       1.295   3.239  -0.048  0.00  0.00    -0.259 OA
ENDROOT
BRANCH   3   7
ATOM      7  C   UNL     1       1.562  -1.984  -0.023  0.00  0.00    +0.030 C 
ATOM      8  C   UNL     1       2.893  -2.397  -0.143  0.00  0.00    +0.003 C 
ATOM      9  C   UNL     1       4.045  -1.582  -0.173  0.00  0.00    +0.120 C 
ATOM     10  N   UNL     1       5.110  -2.335  -0.294  0.00  0.00    -0.254 NA
ATOM     11  C   UNL     1       4.801  -3.649  -0.363  0.00  0.00    +0.072 A 
ATOM     12  C   UNL     1       3.396  -3.775  -0.273  0.00  0.00    +0.009 A 
ATOM     13  C   UNL     1       2.800  -5.030  -0.319  0.00  0.00    +0.010 A 
ATOM     14  C   UNL     1       3.587  -6.154  -0.452  0.00  0.00    +0.001 A 
ATOM     15  C   UNL     1       4.968  -6.039  -0.540  0.00  0.00    +0.002 A 
ATOM     16  C   UNL     1       5.577  -4.807  -0.497  0.00  0.00    +0.028 A 
ENDBRANCH   3   7
BRANCH   2  17
ATOM     17  O   UNL     1      -1.142  -0.725  -0.011  0.00  0.00    -0.493 OA
ATOM     18  H   UNL     1      -1.004  -1.682  -0.007  0.00  0.00    +0.294 HD
ENDBRANCH   2  17
BRANCH   1  19
ATOM     19  C   UNL     1      -1.300   2.049  -0.030  0.00  0.00    +0.217 C 
BRANCH  19  21
ATOM     20  C   UNL     1      -2.066   2.490   2.464  0.00  0.00    +0.005 C 
ATOM     21  C   UNL     1      -1.726   2.295   1.357  0.00  0.00    -0.084 C 
ENDBRANCH  19  21
ENDBRANCH   1  19
TORSDOF 4
