REMARK  Name = ZINC65417735
REMARK  6 active torsions:
REMARK  status: ('A' for Active; 'I' for Inactive)
REMARK    1  A    between atoms: C_1  and  C_2
REMARK    2  A    between atoms: C_2  and  C_3
REMARK    3  A    between atoms: C_2  and  C_4
REMARK    4  A    between atoms: C_4  and  C_5
REMARK    5  A    between atoms: C_8  and  C_11
REMARK    6  A    between atoms: C_22  and  C_24
REMARK                            x       y       z     vdW  Elec       q    Type
REMARK                         _______ _______ _______ _____ _____    ______ ____
ROOT
ATOM      1  C   UNL     1      -0.723   0.725   6.079  0.00  0.00    +0.260 C 
ATOM      2  O   UNL     1      -0.901   1.888   6.372  0.00  0.00    -0.271 OA
ATOM      3  N   UNL     1      -0.181  -0.121   6.976  0.00  0.00    -0.285 N 
ATOM      4  C   UNL     1       0.049  -1.534   6.638  0.00  0.00    +0.115 C 
ATOM      5  C   UNL     1       1.556  -1.818   6.658  0.00  0.00    +0.074 C 
ATOM      6  C   UNL     1       2.152  -1.199   7.897  0.00  0.00    +0.040 A 
ATOM      7  H   UNL     1       2.239   0.723  10.356  0.00  0.00    +0.167 HD
ATOM      8  C   UNL     1       1.554  -0.238   8.633  0.00  0.00    +0.062 A 
ATOM      9  N   UNL     1       2.393   0.066   9.659  0.00  0.00    -0.348 N 
ATOM     10  C   UNL     1       3.484  -0.724   9.524  0.00  0.00    +0.171 A 
ATOM     11  N   UNL     1       3.329  -1.477   8.467  0.00  0.00    -0.349 N 
ATOM     12  C   UNL     1       0.203   0.347   8.321  0.00  0.00    +0.156 C 
ATOM     13  H   UNL     1       3.967  -2.133   8.147  0.00  0.00    +0.166 HD
ENDROOT
BRANCH  12  14
ATOM     14  C   UNL     1      -0.804  -0.128   9.336  0.00  0.00    -0.003 A 
ATOM     15  C   UNL     1      -0.994  -1.484   9.555  0.00  0.00    +0.009 A 
ATOM     16  C   UNL     1      -1.931  -1.875  10.499  0.00  0.00    +0.020 A 
ATOM     17  C   UNL     1      -2.640  -0.907  11.186  0.00  0.00    +0.111 A 
ATOM     18  N   UNL     1      -2.433   0.374  10.951  0.00  0.00    -0.263 NA
ATOM     19  C   UNL     1      -1.545   0.782  10.065  0.00  0.00    +0.116 A 
ENDBRANCH  12  14
BRANCH   1  23
ATOM     20  C   UNL     1      -0.280   0.393   2.474  0.00  0.00    +0.062 C 
ATOM     21  N   UNL     1      -1.323   1.119   2.597  0.00  0.00    -0.093 NA
ATOM     22  O   UNL     1      -1.743   1.267   3.939  0.00  0.00    -0.381 OA
ATOM     23  C   UNL     1      -1.109   0.226   4.710  0.00  0.00    +0.295 C 
ATOM     24  C   UNL     1       0.142  -0.078   3.853  0.00  0.00    +0.111 C 
BRANCH  20  25
ATOM     25  C   UNL     1       0.411   0.057   1.178  0.00  0.00    +0.057 C 
BRANCH  25  27
ATOM     26  C   UNL     1      -0.215   2.247   0.153  0.00  0.00    +0.007 C 
ATOM     27  C   UNL     1      -0.327   0.727   0.018  0.00  0.00    -0.012 C 
ATOM     28  C   UNL     1       0.298   0.286  -1.307  0.00  0.00    +0.007 C 
ENDBRANCH  25  27
ENDBRANCH  20  25
ENDBRANCH   1  23
TORSDOF 4
