REMARK  Name = ZINC67482749
REMARK  6 active torsions:
REMARK  status: ('A' for Active; 'I' for Inactive)
REMARK    1  A    between atoms: C_1  and  O_2
REMARK    2  A    between atoms: O_2  and  C_3
REMARK    3  A    between atoms: C_8  and  C_9
REMARK    4  A    between atoms: N_11  and  N_12
REMARK    5  A    between atoms: C_18  and  C_21
REMARK    6  A    between atoms: C_24  and  O_27
REMARK                            x       y       z     vdW  Elec       q    Type
REMARK                         _______ _______ _______ _____ _____    ______ ____
ROOT
ATOM      1  N   UNL     1       1.108  -4.931  -0.035  0.00  0.00    -0.218 N 
ATOM      2  C   UNL     1       1.044  -6.273  -0.143  0.00  0.00    +0.319 C 
ATOM      3  O   UNL     1       2.067  -6.931  -0.157  0.00  0.00    -0.251 OA
ATOM      4  N   UNL     1      -0.152  -6.886  -0.237  0.00  0.00    -0.280 N 
ATOM      5  C   UNL     1      -0.263  -8.355  -0.240  0.00  0.00    +0.114 C 
ATOM      6  C   UNL     1      -1.074  -8.770   0.990  0.00  0.00    +0.054 C 
ATOM      7  C   UNL     1      -2.290  -7.904   1.131  0.00  0.00    -0.041 C 
ATOM      8  C   UNL     1      -2.437  -6.734   0.558  0.00  0.00    -0.004 C 
ATOM      9  C   UNL     1      -1.401  -6.115  -0.333  0.00  0.00    +0.137 C 
ATOM     10  H   UNL     1       0.292  -4.412   0.050  0.00  0.00    +0.174 HD
ENDROOT
BRANCH   7  11
ATOM     11  C   UNL     1      -3.397  -8.403   1.974  0.00  0.00    -0.022 A 
ATOM     12  C   UNL     1      -3.210  -8.573   3.346  0.00  0.00    +0.012 A 
ATOM     13  C   UNL     1      -4.245  -9.039   4.129  0.00  0.00    +0.046 A 
ATOM     14  C   UNL     1      -5.473  -9.338   3.553  0.00  0.00    +0.117 A 
ATOM     15  C   UNL     1      -5.663  -9.170   2.188  0.00  0.00    +0.046 A 
ATOM     16  C   UNL     1      -4.634  -8.699   1.399  0.00  0.00    +0.012 A 
BRANCH  14  17
ATOM     17  O   UNL     1      -6.491  -9.796   4.327  0.00  0.00    -0.507 OA
ATOM     18  H   UNL     1      -7.053  -9.098   4.691  0.00  0.00    +0.292 HD
ENDBRANCH  14  17
ENDBRANCH   7  11
BRANCH   1  21
ATOM     19  C   UNL     1       2.411  -2.939  -0.037  0.00  0.00    +0.264 C 
ATOM     20  O   UNL     1       1.386  -2.285  -0.023  0.00  0.00    -0.269 OA
ATOM     21  N   UNL     1       2.351  -4.285  -0.044  0.00  0.00    -0.229 N 
ATOM     22  H   UNL     1       3.168  -4.807  -0.055  0.00  0.00    +0.173 HD
BRANCH  19  28
ATOM     23  C   UNL     1       3.788  -0.859  -0.040  0.00  0.00    +0.132 A 
ATOM     24  C   UNL     1       5.024  -0.231  -0.044  0.00  0.00    +0.046 A 
ATOM     25  C   UNL     1       6.182  -0.982  -0.060  0.00  0.00    +0.004 A 
ATOM     26  C   UNL     1       6.120  -2.366  -0.073  0.00  0.00    +0.001 A 
ATOM     27  C   UNL     1       4.900  -3.007  -0.069  0.00  0.00    +0.017 A 
ATOM     28  C   UNL     1       3.720  -2.259  -0.047  0.00  0.00    +0.080 A 
BRANCH  23  30
ATOM     29  C   UNL     1       2.796   1.299  -0.018  0.00  0.00    +0.277 C 
ATOM     30  O   UNL     1       2.649  -0.122  -0.024  0.00  0.00    -0.494 OA
ENDBRANCH  23  30
ENDBRANCH  19  28
ENDBRANCH   1  21
TORSDOF 5
