REMARK  Name = ZINC09968874
REMARK  1 active torsions:
REMARK  status: ('A' for Active; 'I' for Inactive)
REMARK    1  A    between atoms: C_11  and  C_13
REMARK                            x       y       z     vdW  Elec       q    Type
REMARK                         _______ _______ _______ _____ _____    ______ ____
ROOT
ATOM      1  C   UNL     1      -4.656  -4.334   0.024  0.00  0.00    +0.001 A 
ATOM      2  C   UNL     1      -3.414  -4.956   0.009  0.00  0.00    +0.002 A 
ATOM      3  C   UNL     1      -2.261  -4.224   0.001  0.00  0.00    +0.028 A 
ATOM      4  C   UNL     1      -2.325  -2.827   0.010  0.00  0.00    +0.078 A 
ATOM      5  C   UNL     1      -3.587  -2.193   0.026  0.00  0.00    +0.065 A 
ATOM      6  C   UNL     1      -4.751  -2.960   0.033  0.00  0.00    +0.015 A 
ATOM      7  C   UNL     1      -3.627  -0.723   0.034  0.00  0.00    +0.259 A 
ATOM      8  O   UNL     1      -4.683  -0.119   0.048  0.00  0.00    -0.267 OA
ATOM      9  N   UNL     1      -2.443  -0.067   0.026  0.00  0.00    -0.306 N 
ATOM     10  H   UNL     1      -2.423   1.033   0.032  0.00  0.00    +0.170 HD
ATOM     11  C   UNL     1      -1.265  -0.764   0.011  0.00  0.00    +0.143 A 
ATOM     12  N   UNL     1      -1.209  -2.071  -0.002  0.00  0.00    -0.229 NA
ENDROOT
BRANCH  11  13
ATOM     13  C   UNL     1       0.002  -0.004   0.002  0.00  0.00    +0.036 A 
ATOM     14  C   UNL     1      -0.017   1.392   0.010  0.00  0.00    +0.013 A 
ATOM     15  C   UNL     1       1.170   2.095   0.002  0.00  0.00    +0.001 A 
ATOM     16  C   UNL     1       2.378   1.420  -0.013  0.00  0.00    +0.001 A 
ATOM     17  C   UNL     1       2.405   0.038  -0.021  0.00  0.00    +0.021 A 
ATOM     18  C   UNL     1       1.225  -0.679  -0.013  0.00  0.00    +0.052 A 
ATOM     19 CL   UNL     1       1.261  -2.415  -0.022  0.00  0.00    -0.083 Cl
ENDBRANCH  11  13
TORSDOF 1
