REMARK  Name = ZINC05602600
REMARK  3 active torsions:
REMARK  status: ('A' for Active; 'I' for Inactive)
REMARK    1  A    between atoms: C_4  and  C_7
REMARK    2  A    between atoms: N_9  and  C_15
REMARK    3  A    between atoms: C_11  and  C_13
REMARK                            x       y       z     vdW  Elec       q    Type
REMARK                         _______ _______ _______ _____ _____    ______ ____
ROOT
ATOM      1  C   UNL     1      -1.190   3.437   0.034  0.00  0.00    +0.089 C 
ATOM      2  C   UNL     1      -0.069   4.164  -0.230  0.00  0.00    +0.125 C 
ATOM      3  N   UNL     1       1.102   3.474  -0.502  0.00  0.00    -0.225 N 
ATOM      4  N   UNL     1       1.175   2.155   0.002  0.00  0.00    -0.235 N 
ATOM      5  C   UNL     1      -0.017   1.428   0.010  0.00  0.00    +0.215 C 
ATOM      6  N   UNL     1      -1.156   2.081   0.019  0.00  0.00    -0.220 NA
ATOM      7  H   UNL     1       2.007   1.776   0.326  0.00  0.00    +0.173 HD
ENDROOT
BRANCH   1  11
ATOM      8  C   UNL     1      -4.837   5.442   0.900  0.00  0.00    +0.000 A 
ATOM      9  C   UNL     1      -4.797   4.059   0.887  0.00  0.00    +0.001 A 
ATOM     10  C   UNL     1      -3.616   3.403   0.607  0.00  0.00    +0.010 A 
ATOM     11  C   UNL     1      -2.462   4.136   0.335  0.00  0.00    +0.002 A 
ATOM     12  C   UNL     1      -2.507   5.530   0.355  0.00  0.00    +0.010 A 
ATOM     13  C   UNL     1      -3.695   6.175   0.631  0.00  0.00    +0.001 A 
ENDBRANCH   1  11
BRANCH   3  14
ATOM     14  C   UNL     1       2.147   4.047  -1.230  0.00  0.00    +0.053 A 
ATOM     15  C   UNL     1       2.030   5.345  -1.712  0.00  0.00    +0.025 A 
ATOM     16  C   UNL     1       3.067   5.910  -2.427  0.00  0.00    +0.002 A 
ATOM     17  C   UNL     1       4.217   5.181  -2.674  0.00  0.00    +0.000 A 
ATOM     18  C   UNL     1       4.334   3.887  -2.201  0.00  0.00    +0.002 A 
ATOM     19  C   UNL     1       3.304   3.318  -1.480  0.00  0.00    +0.025 A 
ENDBRANCH   3  14
BRANCH   5  20
ATOM     20  C   UNL     1       0.002  -0.004   0.002  0.00  0.00    +0.137 C 
ATOM     21  N   UNL     1       0.018  -1.140  -0.004  0.00  0.00    -0.188 NA
ENDBRANCH   5  20
TORSDOF 3
