REMARK  Name = ZINC40259970
REMARK  3 active torsions:
REMARK  status: ('A' for Active; 'I' for Inactive)
REMARK    1  A    between atoms: C_2  and  C_12
REMARK    2  A    between atoms: C_12  and  C_14
REMARK    3  A    between atoms: C_12  and  O_20
REMARK                            x       y       z     vdW  Elec       q    Type
REMARK                         _______ _______ _______ _____ _____    ______ ____
ROOT
ATOM      1  C   UNL     1      -0.017   1.382   0.010  0.00  0.00    +0.057 A 
ATOM      2  C   UNL     1       1.170   2.091   0.002  0.00  0.00    +0.003 A 
ATOM      3  C   UNL     1       2.379   1.420  -0.014  0.00  0.00    +0.050 A 
ATOM      4  C   UNL     1       2.404   0.037  -0.023  0.00  0.00    +0.069 A 
ATOM      5  C   UNL     1       1.217  -0.679  -0.016  0.00  0.00    +0.163 A 
ATOM      6  C   UNL     1       0.002  -0.004   0.002  0.00  0.00    +0.162 A 
ATOM      7  O   UNL     1      -1.175  -0.688   0.017  0.00  0.00    -0.485 OA
ATOM      8  C   UNL     1      -1.123  -2.066  -0.368  0.00  0.00    +0.270 C 
ATOM      9  C   UNL     1       0.060  -2.723   0.357  0.00  0.00    +0.270 C 
ATOM     10  O   UNL     1       1.258  -2.040  -0.029  0.00  0.00    -0.485 OA
ATOM     11 CL   UNL     1       3.867   2.314  -0.023  0.00  0.00    -0.083 Cl
ENDROOT
BRANCH   2  12
ATOM     12  C   UNL     1       1.146   3.598   0.011  0.00  0.00    +0.149 C 
BRANCH  12  13
ATOM     13  C   UNL     1       1.278   4.102   1.450  0.00  0.00    +0.022 C 
ATOM     14  C   UNL     1       2.599   3.610   2.044  0.00  0.00    +0.006 C 
ATOM     15  C   UNL     1       2.730   4.113   3.482  0.00  0.00    +0.000 C 
ATOM     16  C   UNL     1       2.706   5.643   3.491  0.00  0.00    +0.000 C 
ATOM     17  C   UNL     1       1.385   6.136   2.897  0.00  0.00    +0.000 C 
ATOM     18  C   UNL     1       1.253   5.632   1.458  0.00  0.00    +0.006 C 
ENDBRANCH  12  13
BRANCH  12  19
ATOM     19  O   UNL     1      -0.088   4.058  -0.544  0.00  0.00    -0.387 OA
ATOM     20  H   UNL     1      -0.872   3.758  -0.064  0.00  0.00    +0.210 HD
ENDBRANCH  12  19
ENDBRANCH   2  12
TORSDOF 3
