REMARK  Name = ZINC40460614
REMARK  5 active torsions:
REMARK  status: ('A' for Active; 'I' for Inactive)
REMARK    1  A    between atoms: C_7  and  C_11
REMARK    2  A    between atoms: N_12  and  N_13
REMARK    3  A    between atoms: C_18  and  C_21
REMARK    4  A    between atoms: C_21  and  C_22
REMARK    5  A    between atoms: C_22  and  C_24
REMARK                            x       y       z     vdW  Elec       q    Type
REMARK                         _______ _______ _______ _____ _____    ______ ____
ROOT
ATOM      1  N   UNL     1      -1.467  -4.167  -0.006  0.00  0.00    -0.127 NA
ATOM      2  C   UNL     1      -2.768  -3.978   0.007  0.00  0.00    +0.183 C 
ATOM      3  N   UNL     1      -3.455  -2.780   0.014  0.00  0.00    -0.263 N 
ATOM      4  C   UNL     1      -4.776  -2.721   0.028  0.00  0.00    +0.232 C 
ATOM      5  O   UNL     1      -5.373  -1.666   0.033  0.00  0.00    -0.274 OA
ATOM      6  C   UNL     1      -5.498  -4.059   0.035  0.00  0.00    +0.147 C 
ATOM      7  S   UNL     1      -4.062  -5.209   0.013  0.00  0.00    -0.075 S 
ATOM      8  H   UNL     1      -2.951  -1.952   0.009  0.00  0.00    +0.157 HD
ENDROOT
BRANCH   1  10
ATOM      9  C   UNL     1       0.693  -3.255  -0.022  0.00  0.00    +0.145 C 
ATOM     10  N   UNL     1      -0.599  -3.067  -0.009  0.00  0.00    -0.155 NA
BRANCH   9  17
ATOM     11  C   UNL     1      -0.017   1.373   0.010  0.00  0.00    +0.001 A 
ATOM     12  C   UNL     1       1.172   2.090   0.002  0.00  0.00    +0.002 A 
ATOM     13  C   UNL     1       2.385   1.438  -0.013  0.00  0.00    +0.026 A 
ATOM     14  C   UNL     1       2.425   0.046  -0.021  0.00  0.00    +0.047 A 
ATOM     15  C   UNL     1       1.222  -0.677  -0.013  0.00  0.00    +0.008 A 
ATOM     16  C   UNL     1       0.002  -0.004   0.002  0.00  0.00    +0.010 A 
ATOM     17  C   UNL     1       1.603  -2.101  -0.024  0.00  0.00    +0.020 A 
ATOM     18  C   UNL     1       2.965  -2.138  -0.038  0.00  0.00    +0.093 A 
ATOM     19  N   UNL     1       3.458  -0.867  -0.035  0.00  0.00    -0.360 N 
ATOM     20  H   UNL     1       4.401  -0.638  -0.044  0.00  0.00    +0.165 HD
ENDBRANCH   9  17
ENDBRANCH   1  10
BRANCH   6  21
ATOM     21  C   UNL     1      -6.334  -4.230   1.306  0.00  0.00    +0.103 C 
BRANCH  21  22
ATOM     22  C   UNL     1      -7.127  -5.509   1.217  0.00  0.00    +0.165 C 
ATOM     23  O   UNL     1      -7.032  -6.214   0.234  0.00  0.00    -0.292 OA
BRANCH  22  24
ATOM     24  C   UNL     1      -8.014  -5.902   2.321  0.00  0.00    +0.018 A 
ATOM     25  C   UNL     1      -8.130  -5.088   3.453  0.00  0.00    +0.014 A 
ATOM     26  C   UNL     1      -8.963  -5.462   4.484  0.00  0.00    +0.039 A 
ATOM     27  C   UNL     1      -9.686  -6.643   4.402  0.00  0.00    +0.123 A 
ATOM     28  C   UNL     1      -9.576  -7.454   3.282  0.00  0.00    +0.039 A 
ATOM     29  C   UNL     1      -8.752  -7.089   2.241  0.00  0.00    +0.014 A 
ATOM     30  F   UNL     1     -10.501  -7.004   5.417  0.00  0.00    -0.205 F 
ENDBRANCH  22  24
ENDBRANCH  21  22
ENDBRANCH   6  21
TORSDOF 5
