REMARK  Name = ZINC40143652
REMARK  6 active torsions:
REMARK  status: ('A' for Active; 'I' for Inactive)
REMARK    1  A    between atoms: C_1  and  C_2
REMARK    2  A    between atoms: C_5  and  O_9
REMARK    3  A    between atoms: O_9  and  C_10
REMARK    4  A    between atoms: C_10  and  C_12
REMARK    5  A    between atoms: C_10  and  C_13
REMARK    6  A    between atoms: N_15  and  N_16
REMARK                            x       y       z     vdW  Elec       q    Type
REMARK                         _______ _______ _______ _____ _____    ______ ____
ROOT
ATOM      1  C   UNL     1      -0.840  -6.049  -1.146  0.00  0.00    +0.270 C 
ATOM      2  O   UNL     1      -1.266  -6.376  -0.059  0.00  0.00    -0.270 OA
ATOM      3  N   UNL     1      -1.071  -6.827  -2.222  0.00  0.00    -0.221 N 
ATOM      4  H   UNL     1      -0.731  -6.565  -3.092  0.00  0.00    +0.174 HD
ENDROOT
BRANCH   3   5
ATOM      5  N   UNL     1      -1.803  -8.013  -2.084  0.00  0.00    -0.137 N 
ATOM      6  C   UNL     1      -1.257  -9.247  -2.092  0.00  0.00    +0.263 C 
ATOM      7  O   UNL     1      -0.085  -9.529  -2.216  0.00  0.00    -0.271 OA
ATOM      8  C   UNL     1      -2.415 -10.202  -1.915  0.00  0.00    +0.114 C 
ATOM      9  C   UNL     1      -2.245 -11.012  -0.635  0.00  0.00    +0.035 C 
ATOM     10  C   UNL     1      -3.441 -11.950  -0.459  0.00  0.00    +0.003 C 
ATOM     11  C   UNL     1      -3.535 -12.886  -1.665  0.00  0.00    +0.000 C 
ATOM     12  C   UNL     1      -3.729 -12.061  -2.939  0.00  0.00    +0.003 C 
ATOM     13  C   UNL     1      -2.534 -11.123  -3.125  0.00  0.00    +0.035 C 
ATOM     14  N   UNL     1      -3.589  -9.326  -1.819  0.00  0.00    -0.284 N 
ATOM     15  C   UNL     1      -3.131  -8.063  -1.923  0.00  0.00    +0.326 C 
ATOM     16  O   UNL     1      -3.845  -7.080  -1.879  0.00  0.00    -0.251 OA
ATOM     17  H   UNL     1      -4.511  -9.601  -1.699  0.00  0.00    +0.151 HD
ENDBRANCH   3   5
BRANCH   1  18
ATOM     18  C   UNL     1      -0.052  -4.772  -1.294  0.00  0.00    +0.257 C 
ATOM     19  C   UNL     1       1.346  -5.095  -1.824  0.00  0.00    +0.062 C 
BRANCH  18  20
ATOM     20  O   UNL     1       0.057  -4.130  -0.022  0.00  0.00    -0.479 OA
BRANCH  20  25
ATOM     21  C   UNL     1       0.865   1.445  -0.036  0.00  0.00    +0.044 C 
ATOM     22  C   UNL     1       0.649  -0.046  -0.032  0.00  0.00    -0.049 A 
ATOM     23  C   UNL     1       0.648  -0.747  -1.224  0.00  0.00    +0.007 A 
ATOM     24  C   UNL     1       0.450  -2.114  -1.224  0.00  0.00    +0.047 A 
ATOM     25  C   UNL     1       0.252  -2.785  -0.025  0.00  0.00    +0.136 A 
ATOM     26  C   UNL     1       0.254  -2.080   1.170  0.00  0.00    +0.060 A 
ATOM     27  C   UNL     1       0.458  -0.713   1.164  0.00  0.00    +0.022 A 
ATOM     28 BR   UNL     1      -0.015  -2.990   2.806  0.00  0.00    -0.047 Br
ENDBRANCH  20  25
ENDBRANCH  18  20
ENDBRANCH   1  18
TORSDOF 4
