REMARK  Name = ZINC23422301
REMARK  9 active torsions:
REMARK  status: ('A' for Active; 'I' for Inactive)
REMARK    1  A    between atoms: C_1  and  C_2
REMARK    2  A    between atoms: C_2  and  N_3
REMARK    3  A    between atoms: C_13  and  S_14
REMARK    4  A    between atoms: S_14  and  C_15
REMARK    5  A    between atoms: C_15  and  C_16
REMARK    6  A    between atoms: C_16  and  C_18
REMARK    7  A    between atoms: C_20  and  C_30
REMARK    8  A    between atoms: C_22  and  C_23
REMARK    9  A    between atoms: C_26  and  C_29
REMARK                            x       y       z     vdW  Elec       q    Type
REMARK                         _______ _______ _______ _____ _____    ______ ____
ROOT
ATOM      1  C   UNL     1      -3.833  -1.430  -0.542  0.00  0.00    +0.157 C 
ENDROOT
BRANCH   1   2
ATOM      2  C   UNL     1      -5.219  -1.967  -0.294  0.00  0.00    +0.175 C 
ATOM      3  O   UNL     1      -5.409  -3.165  -0.264  0.00  0.00    -0.291 OA
BRANCH   2   4
ATOM      4  C   UNL     1      -6.337  -1.043  -0.090  0.00  0.00    +0.039 A 
ATOM      5  C   UNL     1      -6.282   0.425  -0.089  0.00  0.00    +0.034 A 
ATOM      6  C   UNL     1      -7.536   0.852   0.133  0.00  0.00    +0.023 A 
ATOM      7  N   UNL     1      -8.359  -0.231   0.278  0.00  0.00    -0.299 N 
ATOM      8  C   UNL     1      -7.657  -1.374   0.147  0.00  0.00    +0.033 A 
ATOM      9  C   UNL     1      -8.216  -2.770   0.242  0.00  0.00    +0.064 C 
ATOM     10  C   UNL     1      -9.734  -0.161   0.526  0.00  0.00    +0.181 A 
ATOM     11  C   UNL     1     -10.385   0.649   1.493  0.00  0.00    +0.094 A 
ATOM     12  C   UNL     1     -11.696   0.355   1.335  0.00  0.00    +0.136 A 
ATOM     13  O   UNL     1     -11.769  -0.553   0.352  0.00  0.00    -0.358 OA
ATOM     14  N   UNL     1     -10.676  -0.825  -0.089  0.00  0.00    -0.060 NA
ATOM     15  C   UNL     1     -12.849   0.935   2.113  0.00  0.00    +0.089 C 
ATOM     16  C   UNL     1      -7.966   2.294   0.216  0.00  0.00    +0.064 C 
ENDBRANCH   2   4
ENDBRANCH   1   2
BRANCH   1  17
ATOM     17  S   UNL     1      -2.680  -2.809  -0.754  0.00  0.00    -0.080 S 
BRANCH  17  28
ATOM     18  N   UNL     1      -0.034  -2.626  -1.230  0.00  0.00    -0.288 N 
ATOM     19  C   UNL     1       1.138  -1.983  -1.441  0.00  0.00    +0.262 A 
ATOM     20  O   UNL     1       2.171  -2.599  -1.629  0.00  0.00    -0.267 OA
ATOM     21  C   UNL     1       1.117  -0.514  -1.433  0.00  0.00    +0.065 A 
ATOM     22  C   UNL     1       2.271   0.240  -1.639  0.00  0.00    +0.015 A 
ATOM     23  C   UNL     1       2.196   1.606  -1.621  0.00  0.00    +0.001 A 
ATOM     24  C   UNL     1       0.983   2.247  -1.400  0.00  0.00    +0.002 A 
ATOM     25  C   UNL     1      -0.163   1.532  -1.195  0.00  0.00    +0.028 A 
ATOM     26  C   UNL     1      -0.118   0.135  -1.208  0.00  0.00    +0.079 A 
ATOM     27  N   UNL     1      -1.225  -0.610  -1.010  0.00  0.00    -0.223 NA
ATOM     28  C   UNL     1      -1.183  -1.919  -1.021  0.00  0.00    +0.173 A 
BRANCH  18  30
ATOM     29  C   UNL     1       0.174  -4.604   0.192  0.00  0.00    +0.027 C 
ATOM     30  C   UNL     1      -0.070  -4.091  -1.228  0.00  0.00    +0.124 C 
ENDBRANCH  18  30
ENDBRANCH  17  28
ENDBRANCH   1  17
TORSDOF 5
