REMARK  Name = ZINC58647367
REMARK  1 active torsions:
REMARK  status: ('A' for Active; 'I' for Inactive)
REMARK    1  A    between atoms: C_10  and  C_12
REMARK                            x       y       z     vdW  Elec       q    Type
REMARK                         _______ _______ _______ _____ _____    ______ ____
ROOT
ATOM      1  C   UNL     1       4.657   0.049  -0.973  0.00  0.00    +0.228 C 
ATOM      2  O   UNL     1       4.212   0.550  -1.984  0.00  0.00    -0.275 OA
ATOM      3  N   UNL     1       5.971   0.151  -0.692  0.00  0.00    -0.260 N 
ATOM      4  C   UNL     1       6.553  -0.532   0.474  0.00  0.00    +0.209 C 
ATOM      5  C   UNL     1       7.527   0.397   1.152  0.00  0.00    +0.235 C 
ATOM      6  O   UNL     1       7.718   0.297   2.346  0.00  0.00    -0.274 OA
ATOM      7  N   UNL     1       8.188   1.336   0.449  0.00  0.00    -0.283 N 
ATOM      8  C   UNL     1       7.950   1.505  -0.919  0.00  0.00    +0.055 A 
ATOM      9  C   UNL     1       6.829   0.907  -1.505  0.00  0.00    +0.058 A 
ATOM     10  C   UNL     1       6.578   1.065  -2.855  0.00  0.00    +0.025 A 
ATOM     11  C   UNL     1       7.445   1.813  -3.632  0.00  0.00    +0.002 A 
ATOM     12  C   UNL     1       8.559   2.401  -3.060  0.00  0.00    +0.002 A 
ATOM     13  C   UNL     1       8.813   2.255  -1.702  0.00  0.00    +0.025 A 
ATOM     14  H   UNL     1       8.836   1.902   0.896  0.00  0.00    +0.155 HD
ENDROOT
BRANCH   1  24
ATOM     15  C   UNL     1      -0.082   1.229  -0.128  0.00  0.00    +0.000 A 
ATOM     16  C   UNL     1       1.083   1.973  -0.121  0.00  0.00    +0.000 A 
ATOM     17  C   UNL     1       2.304   1.333  -0.092  0.00  0.00    +0.004 A 
ATOM     18  C   UNL     1       2.373  -0.055  -0.070  0.00  0.00    -0.032 A 
ATOM     19  C   UNL     1       1.213  -0.795  -0.082  0.00  0.00    -0.043 A 
ATOM     20  C   UNL     1      -0.016  -0.148  -0.108  0.00  0.00    +0.004 A 
ATOM     21  C   UNL     1       1.213  -2.302  -0.077  0.00  0.00    +0.035 C 
ATOM     22  C   UNL     1       2.568  -2.838   0.380  0.00  0.00    +0.006 C 
ATOM     23  C   UNL     1       3.663  -2.156  -0.448  0.00  0.00    +0.018 C 
ATOM     24  C   UNL     1       3.740  -0.689  -0.031  0.00  0.00    +0.106 C 
ENDBRANCH   1  24
TORSDOF 1
