REMARK  Name = ZINC16156502
REMARK  4 active torsions:
REMARK  status: ('A' for Active; 'I' for Inactive)
REMARK    1  A    between atoms: C_3  and  C_10
REMARK    2  A    between atoms: C_5  and  N_7
REMARK    3  A    between atoms: C_10  and  N_11
REMARK    4  A    between atoms: C_15  and  C_16
REMARK                            x       y       z     vdW  Elec       q    Type
REMARK                         _______ _______ _______ _____ _____    ______ ____
ROOT
ATOM      1  N   UNL     1       2.218   0.791  -0.090  0.00  0.00    -0.224 N 
ATOM      2  C   UNL     1       1.394  -0.239  -0.181  0.00  0.00    +0.261 C 
ATOM      3  O   UNL     1       1.810  -1.353  -0.447  0.00  0.00    -0.269 OA
ATOM      4  C   UNL     1       0.004  -0.007   0.041  0.00  0.00    +0.080 C 
ATOM      5  C   UNL     1      -1.038  -0.886   0.008  0.00  0.00    +0.035 C 
ATOM      6  S   UNL     1       0.001   1.749   0.377  0.00  0.00    -0.026 S 
ATOM      7  C   UNL     1       1.757   2.026   0.205  0.00  0.00    +0.286 C 
ATOM      8  O   UNL     1       2.380   3.065   0.323  0.00  0.00    -0.262 OA
ENDROOT
BRANCH   5   9
ATOM      9  C   UNL     1      -0.790  -2.272  -0.108  0.00  0.00    +0.014 A 
ATOM     10  C   UNL     1      -1.546  -3.248  -0.751  0.00  0.00    +0.017 A 
ATOM     11  C   UNL     1      -1.066  -4.532  -0.713  0.00  0.00    +0.023 A 
ATOM     12  C   UNL     1       0.096  -4.789  -0.053  0.00  0.00    +0.055 A 
ATOM     13  S   UNL     1       0.570  -3.229   0.537  0.00  0.00    -0.082 S 
ATOM     14 BR   UNL     1       0.980  -6.446   0.167  0.00  0.00    -0.043 Br
ENDBRANCH   5   9
BRANCH   1  15
ATOM     15  C   UNL     1       3.652   0.590  -0.313  0.00  0.00    +0.152 C 
BRANCH  15  18
ATOM     16  C   UNL     1       4.205  -0.111  -3.981  0.00  0.00    +0.003 A 
ATOM     17  C   UNL     1       3.921  -0.291  -2.640  0.00  0.00    +0.005 A 
ATOM     18  C   UNL     1       3.966   0.785  -1.774  0.00  0.00    -0.027 A 
ATOM     19  C   UNL     1       4.304   2.040  -2.246  0.00  0.00    +0.038 A 
ATOM     20  C   UNL     1       4.592   2.219  -3.586  0.00  0.00    +0.127 A 
ATOM     21  C   UNL     1       4.543   1.144  -4.454  0.00  0.00    +0.033 A 
BRANCH  20  22
ATOM     22  N   UNL     1       4.953   3.562  -4.092  0.00  0.00    +0.056 N 
ATOM     23  O   UNL     1       4.997   4.510  -3.328  0.00  0.00    -0.126 OA
ATOM     24  O   UNL     1       5.207   3.720  -5.273  0.00  0.00    -0.126 OA
ENDBRANCH  20  22
ENDBRANCH  15  18
ENDBRANCH   1  15
TORSDOF 4
