REMARK  Name = ZINC40011099
REMARK  7 active torsions:
REMARK  status: ('A' for Active; 'I' for Inactive)
REMARK    1  A    between atoms: C_1  and  C_2
REMARK    2  A    between atoms: C_2  and  N_3
REMARK    3  A    between atoms: C_11  and  S_14
REMARK    4  A    between atoms: N_12  and  C_13
REMARK    5  A    between atoms: S_14  and  C_15
REMARK    6  A    between atoms: C_15  and  C_16
REMARK    7  A    between atoms: N_28  and  C_31
REMARK                            x       y       z     vdW  Elec       q    Type
REMARK                         _______ _______ _______ _____ _____    ______ ____
ROOT
ATOM      1  N   UNL     1       0.711  -0.489   1.189  0.00  0.00    -0.224 N 
ATOM      2  C   UNL     1       2.039  -0.676   1.098  0.00  0.00    +0.247 C 
ATOM      3  O   UNL     1       2.622  -0.446   0.060  0.00  0.00    -0.273 OA
ATOM      4  C   UNL     1       2.796  -1.177   2.310  0.00  0.00    +0.204 C 
ATOM      5  C   UNL     1       1.940  -1.446   3.576  0.00  0.00    +0.226 C 
ATOM      6  N   UNL     1       2.448  -0.477   4.556  0.00  0.00    -0.238 NA
ATOM      7  C   UNL     1       3.393   0.235   4.033  0.00  0.00    +0.154 C 
ATOM      8  N   UNL     1       3.696  -0.087   2.721  0.00  0.00    -0.298 N 
ATOM      9  C   UNL     1       4.718   0.541   1.880  0.00  0.00    +0.132 C 
ATOM     10  N   UNL     1       0.494  -1.210   3.438  0.00  0.00    -0.264 N 
ATOM     11  C   UNL     1      -0.002  -0.714   2.295  0.00  0.00    +0.313 C 
ATOM     12  O   UNL     1      -1.198  -0.504   2.245  0.00  0.00    -0.252 OA
ATOM     13  C   UNL     1      -0.395  -1.445   4.579  0.00  0.00    +0.136 C 
ENDROOT
BRANCH   1  15
ATOM     14  C   UNL     1      -0.019   1.526   0.010  0.00  0.00    +0.025 C 
ATOM     15  C   UNL     1       0.002  -0.004   0.002  0.00  0.00    +0.114 C 
ENDBRANCH   1  15
BRANCH   7  16
ATOM     16  S   UNL     1       4.238   1.502   4.920  0.00  0.00    -0.086 S 
BRANCH  16  17
ATOM     17  C   UNL     1       3.462   1.481   6.559  0.00  0.00    +0.113 C 
BRANCH  17  18
ATOM     18  C   UNL     1       4.101   2.533   7.430  0.00  0.00    -0.023 A 
ATOM     19  C   UNL     1       3.449   3.688   7.712  0.00  0.00    +0.075 A 
ATOM     20  C   UNL     1       4.057   4.666   8.529  0.00  0.00    +0.249 A 
ATOM     21  O   UNL     1       3.453   5.697   8.770  0.00  0.00    -0.268 OA
ATOM     22  N   UNL     1       5.285   4.488   9.047  0.00  0.00    -0.322 N 
ATOM     23  H   UNL     1       5.673   5.181   9.605  0.00  0.00    +0.169 HD
ATOM     24  C   UNL     1       6.000   3.336   8.799  0.00  0.00    +0.049 A 
ATOM     25  C   UNL     1       5.436   2.327   7.995  0.00  0.00    +0.003 A 
ATOM     26  C   UNL     1       6.154   1.154   7.744  0.00  0.00    +0.010 A 
ATOM     27  C   UNL     1       7.398   0.992   8.286  0.00  0.00    +0.001 A 
ATOM     28  C   UNL     1       7.955   1.982   9.084  0.00  0.00    +0.002 A 
ATOM     29  C   UNL     1       7.269   3.152   9.335  0.00  0.00    +0.026 A 
ENDBRANCH  17  18
ENDBRANCH  16  17
ENDBRANCH   7  16
TORSDOF 4
