REMARK  Name = ZINC08295824
REMARK  6 active torsions:
REMARK  status: ('A' for Active; 'I' for Inactive)
REMARK    1  A    between atoms: C_4  and  C_7
REMARK    2  A    between atoms: C_7  and  N_8
REMARK    3  A    between atoms: C_11  and  O_33
REMARK    4  A    between atoms: C_13  and  O_32
REMARK    5  A    between atoms: C_16  and  C_29
REMARK    6  A    between atoms: N_22  and  C_23
REMARK                            x       y       z     vdW  Elec       q    Type
REMARK                         _______ _______ _______ _____ _____    ______ ____
ROOT
ATOM      1  N   UNL     1       2.394   0.972   0.392  0.00  0.00    -0.299 N 
ATOM      2  C   UNL     1       1.265   1.846   0.562  0.00  0.00    +0.121 C 
ATOM      3  C   UNL     1       0.045   1.214   1.158  0.00  0.00    +0.164 C 
ATOM      4  C   UNL     1      -0.137   1.560   2.633  0.00  0.00    +0.146 C 
ATOM      5  C   UNL     1      -0.162   3.087   2.767  0.00  0.00    +0.048 C 
ATOM      6  C   UNL     1       1.209   3.631   2.390  0.00  0.00    +0.092 C 
ATOM      7  C   UNL     1       1.603   3.265   0.971  0.00  0.00    +0.089 C 
ATOM      8  S   UNL     1       3.439   3.216   0.884  0.00  0.00    -0.084 S 
ATOM      9  C   UNL     1       3.659   1.497   0.469  0.00  0.00    +0.158 C 
ATOM     10  N   UNL     1       4.795   0.865   0.278  0.00  0.00    -0.226 NA
ENDROOT
BRANCH  10  11
ATOM     11  C   UNL     1       5.982   1.538   0.393  0.00  0.00    +0.066 A 
ATOM     12  C   UNL     1       6.136   2.794  -0.198  0.00  0.00    +0.028 A 
ATOM     13  C   UNL     1       7.332   3.470  -0.073  0.00  0.00    +0.002 A 
ATOM     14  C   UNL     1       8.381   2.901   0.627  0.00  0.00    +0.000 A 
ATOM     15  C   UNL     1       8.238   1.654   1.210  0.00  0.00    +0.002 A 
ATOM     16  C   UNL     1       7.045   0.970   1.098  0.00  0.00    +0.028 A 
ENDBRANCH  10  11
BRANCH   6  17
ATOM     17  C   UNL     1       1.192   5.133   2.520  0.00  0.00    +0.215 C 
ATOM     18  O   UNL     1       1.468   5.827   1.565  0.00  0.00    -0.276 OA
ATOM     19  N   UNL     1       0.868   5.703   3.698  0.00  0.00    -0.329 N 
ATOM     20  H   UNL     1       0.647   5.147   4.461  0.00  0.00    +0.145 HD
ATOM     21  H   UNL     1       0.857   6.669   3.782  0.00  0.00    +0.145 HD
ENDBRANCH   6  17
BRANCH   4  22
ATOM     22  O   UNL     1      -1.370   1.015   3.107  0.00  0.00    -0.389 OA
ATOM     23  H   UNL     1      -1.548   1.199   4.040  0.00  0.00    +0.210 HD
ENDBRANCH   4  22
BRANCH   3  24
ATOM     24  O   UNL     1       0.150  -0.205   1.027  0.00  0.00    -0.387 OA
ATOM     25  H   UNL     1      -0.604  -0.691   1.390  0.00  0.00    +0.210 HD
ENDBRANCH   3  24
BRANCH   1  26
ATOM     26  C   UNL     1       2.195  -0.458   0.140  0.00  0.00    +0.142 C 
BRANCH  26  30
ATOM     27  C   UNL     1       5.125  -1.832  -2.649  0.00  0.00    +0.000 A 
ATOM     28  C   UNL     1       5.390  -1.872  -1.292  0.00  0.00    +0.000 A 
ATOM     29  C   UNL     1       4.442  -1.427  -0.390  0.00  0.00    +0.005 A 
ATOM     30  C   UNL     1       3.229  -0.943  -0.844  0.00  0.00    -0.030 A 
ATOM     31  C   UNL     1       2.963  -0.908  -2.200  0.00  0.00    +0.005 A 
ATOM     32  C   UNL     1       3.913  -1.348  -3.103  0.00  0.00    +0.000 A 
ENDBRANCH  26  30
ENDBRANCH   1  26
TORSDOF 6
