REMARK  Name = ZINC04046665
REMARK  5 active torsions:
REMARK  status: ('A' for Active; 'I' for Inactive)
REMARK    1  A    between atoms: C_7  and  C_11
REMARK    2  A    between atoms: C_11  and  C_12
REMARK    3  A    between atoms: C_12  and  N_13
REMARK    4  A    between atoms: C_14  and  C_16
REMARK    5  A    between atoms: N_22  and  C_23
REMARK                            x       y       z     vdW  Elec       q    Type
REMARK                         _______ _______ _______ _____ _____    ______ ____
ROOT
ATOM      1  N   UNL     1      -2.911   3.384   1.472  0.00  0.00    -0.313 N 
ATOM      2  C   UNL     1      -3.511   3.688   2.639  0.00  0.00    +0.234 C 
ATOM      3  O   UNL     1      -3.067   3.254   3.681  0.00  0.00    -0.274 OA
ATOM      4  H   UNL     1      -3.266   3.731   0.639  0.00  0.00    +0.149 HD
ENDROOT
BRANCH   2   5
ATOM      5  C   UNL     1      -4.735   4.568   2.650  0.00  0.00    +0.166 C 
ATOM      6  C   UNL     1      -4.396   5.962   2.077  0.00  0.00    +0.041 C 
ATOM      7  C   UNL     1      -5.282   6.884   2.946  0.00  0.00    +0.098 C 
ATOM      8  C   UNL     1      -5.495   6.100   4.222  0.00  0.00    +0.219 C 
ATOM      9  O   UNL     1      -5.894   6.568   5.267  0.00  0.00    -0.275 OA
ATOM     10  N   UNL     1      -5.176   4.808   4.029  0.00  0.00    -0.251 N 
BRANCH  10  11
ATOM     11  C   UNL     1      -5.257   3.774   5.063  0.00  0.00    +0.301 C 
ATOM     12  C   UNL     1      -4.269   4.064   6.165  0.00  0.00    +0.025 A 
ATOM     13  C   UNL     1      -2.899   4.181   6.198  0.00  0.00    +0.010 A 
ATOM     14  C   UNL     1      -2.257   4.460   7.394  0.00  0.00    +0.000 A 
ATOM     15  C   UNL     1      -2.991   4.624   8.556  0.00  0.00    +0.001 A 
ATOM     16  C   UNL     1      -4.366   4.510   8.534  0.00  0.00    +0.015 A 
ATOM     17  C   UNL     1      -5.019   4.228   7.332  0.00  0.00    +0.067 A 
ATOM     18  C   UNL     1      -6.442   4.048   6.990  0.00  0.00    +0.342 C 
ATOM     19  O   UNL     1      -7.362   4.125   7.779  0.00  0.00    -0.245 OA
ATOM     20  O   UNL     1      -6.574   3.786   5.679  0.00  0.00    -0.435 OA
ENDBRANCH  10  11
ENDBRANCH   2   5
BRANCH   1  21
ATOM     21  C   UNL     1      -1.722   2.528   1.461  0.00  0.00    +0.109 C 
BRANCH  21  22
ATOM     22  C   UNL     1      -1.241   2.341   0.021  0.00  0.00    +0.056 C 
BRANCH  22  29
ATOM     23  C   UNL     1      -0.634  -2.308  -0.004  0.00  0.00    +0.001 A 
ATOM     24  C   UNL     1       0.704  -2.678  -0.019  0.00  0.00    +0.002 A 
ATOM     25  C   UNL     1       1.697  -1.724  -0.023  0.00  0.00    +0.026 A 
ATOM     26  C   UNL     1       1.359  -0.374  -0.013  0.00  0.00    +0.047 A 
ATOM     27  C   UNL     1       0.002  -0.004   0.002  0.00  0.00    +0.003 A 
ATOM     28  C   UNL     1      -0.989  -0.988   0.007  0.00  0.00    +0.010 A 
ATOM     29  C   UNL     1      -0.018   1.461   0.010  0.00  0.00    -0.021 A 
ATOM     30  C   UNL     1       1.260   1.871   0.000  0.00  0.00    +0.087 A 
ATOM     31  N   UNL     1       2.097   0.788  -0.014  0.00  0.00    -0.360 N 
ATOM     32  H   UNL     1       3.066   0.833  -0.023  0.00  0.00    +0.165 HD
ENDBRANCH  22  29
ENDBRANCH  21  22
ENDBRANCH   1  21
TORSDOF 5
