REMARK  Name = ZINC24482016
REMARK  5 active torsions:
REMARK  status: ('A' for Active; 'I' for Inactive)
REMARK    1  A    between atoms: C_1  and  O_2
REMARK    2  A    between atoms: O_2  and  C_3
REMARK    3  A    between atoms: C_3  and  C_5
REMARK    4  A    between atoms: N_16  and  S_17
REMARK    5  A    between atoms: S_17  and  C_20
REMARK                            x       y       z     vdW  Elec       q    Type
REMARK                         _______ _______ _______ _____ _____    ______ ____
ROOT
ATOM      1  C   UNL     1       0.679  -2.115   1.088  0.00  0.00    +0.189 C 
ATOM      2  C   UNL     1       1.451  -2.663  -0.143  0.00  0.00    +0.037 C 
ATOM      3  C   UNL     1       2.241  -3.828   0.475  0.00  0.00    +0.010 C 
ATOM      4  C   UNL     1       3.534  -4.184  -0.240  0.00  0.00    +0.005 C 
ATOM      5  C   UNL     1       4.218  -5.287   0.608  0.00  0.00    +0.000 C 
ATOM      6  C   UNL     1       4.489  -4.807   2.031  0.00  0.00    +0.002 C 
ATOM      7  C   UNL     1       3.203  -4.301   2.706  0.00  0.00    +0.021 C 
ATOM      8  C   UNL     1       2.641  -3.197   1.836  0.00  0.00    +0.084 C 
ATOM      9  N   UNL     1       1.426  -2.543   2.295  0.00  0.00    -0.160 NA
ENDROOT
BRANCH   9  10
ATOM     10  S   UNL     1       0.963  -2.319   3.869  0.00  0.00    +0.062 S 
ATOM     11  O   UNL     1       2.150  -2.352   4.650  0.00  0.00    -0.153 OA
ATOM     12  O   UNL     1       0.075  -1.210   3.878  0.00  0.00    -0.153 OA
BRANCH  10  13
ATOM     13  C   UNL     1       0.013  -3.727   4.338  0.00  0.00    +0.111 A 
ATOM     14  C   UNL     1      -1.357  -3.728   4.156  0.00  0.00    +0.067 A 
ATOM     15  C   UNL     1      -2.103  -4.836   4.520  0.00  0.00    +0.128 A 
ATOM     16  C   UNL     1      -1.478  -5.939   5.076  0.00  0.00    +0.076 A 
ATOM     17  C   UNL     1      -0.107  -5.935   5.263  0.00  0.00    +0.128 A 
ATOM     18  C   UNL     1       0.638  -4.828   4.894  0.00  0.00    +0.067 A 
ATOM     19  F   UNL     1       0.504  -7.011   5.805  0.00  0.00    -0.205 F 
ATOM     20  F   UNL     1      -3.442  -4.839   4.337  0.00  0.00    -0.205 F 
ENDBRANCH  10  13
ENDBRANCH   9  10
BRANCH   1  21
ATOM     21  C   UNL     1       0.618  -0.611   1.029  0.00  0.00    +0.326 C 
ATOM     22  O   UNL     1       1.124   0.049   1.905  0.00  0.00    -0.249 OA
BRANCH  21  24
ATOM     23  C   UNL     1      -0.018   1.448   0.010  0.00  0.00    +0.280 C 
ATOM     24  O   UNL     1       0.002  -0.004   0.002  0.00  0.00    -0.467 OA
ENDBRANCH  21  24
ENDBRANCH   1  21
TORSDOF 4
