REMARK  Name = ZINC36859960
REMARK  4 active torsions:
REMARK  status: ('A' for Active; 'I' for Inactive)
REMARK    1  A    between atoms: C_1  and  C_2
REMARK    2  A    between atoms: C_5  and  C_21
REMARK    3  A    between atoms: C_10  and  C_12
REMARK    4  A    between atoms: N_16  and  C_17
REMARK                            x       y       z     vdW  Elec       q    Type
REMARK                         _______ _______ _______ _____ _____    ______ ____
ROOT
ATOM      1  C   UNL     1       0.290   1.044  -1.339  0.00  0.00    +0.009 C 
ATOM      2  C   UNL     1       0.258  -0.432  -0.935  0.00  0.00    +0.004 C 
ATOM      3  C   UNL     1      -1.196  -0.902  -0.834  0.00  0.00    +0.009 C 
ATOM      4  C   UNL     1      -1.229  -2.386  -0.462  0.00  0.00    +0.004 C 
ATOM      5  C   UNL     1      -0.562  -2.581   0.903  0.00  0.00    +0.111 C 
ATOM      6  N   UNL     1       0.787  -2.000   0.858  0.00  0.00    -0.296 N 
ATOM      7  C   UNL     1       0.942  -0.605   0.425  0.00  0.00    +0.111 C 
ATOM      8  C   UNL     1       1.862  -2.733   1.208  0.00  0.00    +0.263 C 
ATOM      9  O   UNL     1       1.736  -3.919   1.452  0.00  0.00    -0.268 OA
ATOM     10  C   UNL     1      -0.475  -3.195  -1.519  0.00  0.00    +0.009 C 
ENDROOT
BRANCH   8  11
ATOM     11  C   UNL     1       3.183  -2.103   1.293  0.00  0.00    +0.106 A 
ATOM     12  C   UNL     1       3.435  -0.756   1.452  0.00  0.00    +0.047 A 
ATOM     13  C   UNL     1       4.825  -0.599   1.484  0.00  0.00    +0.036 A 
ATOM     14  C   UNL     1       5.385  -1.825   1.347  0.00  0.00    +0.102 A 
ATOM     15  N   UNL     1       4.398  -2.748   1.236  0.00  0.00    -0.339 N 
ATOM     16 BR   UNL     1       5.756   1.035   1.683  0.00  0.00    -0.049 Br
BRANCH  15  17
ATOM     17  C   UNL     1       4.592  -4.191   1.077  0.00  0.00    +0.088 C 
ATOM     18  C   UNL     1       6.028  -4.718   1.103  0.00  0.00    +0.027 C 
ATOM     19  C   UNL     1       5.252  -4.678  -0.214  0.00  0.00    +0.027 C 
ENDBRANCH  15  17
ENDBRANCH   8  11
TORSDOF 2
