REMARK  Name = ZINC53550156
REMARK  7 active torsions:
REMARK  status: ('A' for Active; 'I' for Inactive)
REMARK    1  A    between atoms: C_1  and  C_2
REMARK    2  A    between atoms: C_2  and  C_3
REMARK    3  A    between atoms: C_13  and  C_15
REMARK    4  A    between atoms: C_15  and  S_16
REMARK    5  A    between atoms: S_16  and  C_17
REMARK    6  A    between atoms: C_20  and  C_24
REMARK    7  A    between atoms: C_21  and  N_23
REMARK                            x       y       z     vdW  Elec       q    Type
REMARK                         _______ _______ _______ _____ _____    ______ ____
ROOT
ATOM      1  C   UNL     1       0.718  -0.497  -1.257  0.00  0.00    -0.006 C 
ATOM      2  C   UNL     1       0.845  -2.023  -1.210  0.00  0.00    +0.010 C 
ATOM      3  C   UNL     1       1.767  -2.509  -2.331  0.00  0.00    +0.056 C 
ATOM      4  C   UNL     1       1.278  -1.930  -3.651  0.00  0.00    +0.054 A 
ATOM      5  C   UNL     1       0.446  -0.856  -3.668  0.00  0.00    +0.015 A 
ATOM      6  S   UNL     1       0.188  -0.596  -5.401  0.00  0.00    -0.057 S 
ATOM      7  C   UNL     1       1.151  -1.861  -5.959  0.00  0.00    +0.165 A 
ATOM      8  N   UNL     1       1.606  -2.402  -4.850  0.00  0.00    -0.229 NA
ATOM      9  N   UNL     1       1.403  -2.240  -7.272  0.00  0.00    -0.264 N 
ATOM     10  C   UNL     1       2.209  -3.291  -7.527  0.00  0.00    +0.229 C 
ATOM     11  O   UNL     1       2.713  -3.905  -6.611  0.00  0.00    -0.275 OA
ATOM     12  C   UNL     1      -0.095  -0.102  -2.500  0.00  0.00    +0.048 C 
ATOM     13  H   UNL     1       1.000  -1.750  -8.005  0.00  0.00    +0.157 HD
ENDROOT
BRANCH   1  15
ATOM     14  C   UNL     1      -0.019   1.526   0.010  0.00  0.00    +0.004 C 
ATOM     15  C   UNL     1       0.002  -0.004   0.002  0.00  0.00    +0.000 C 
ENDBRANCH   1  15
BRANCH  10  16
ATOM     16  C   UNL     1       2.483  -3.702  -8.951  0.00  0.00    +0.173 C 
BRANCH  16  17
ATOM     17  S   UNL     1       3.593  -5.136  -8.963  0.00  0.00    -0.077 S 
BRANCH  17  18
ATOM     18  C   UNL     1       3.814  -5.490 -10.675  0.00  0.00    +0.190 A 
ATOM     19  N   UNL     1       3.202  -4.728 -11.573  0.00  0.00    -0.229 NA
ATOM     20  C   UNL     1       3.337  -4.955 -12.867  0.00  0.00    +0.136 A 
ATOM     21  C   UNL     1       4.141  -6.019 -13.290  0.00  0.00    +0.109 A 
ATOM     22  C   UNL     1       4.776  -6.808 -12.305  0.00  0.00    +0.138 A 
ATOM     23  N   UNL     1       4.590  -6.506 -11.026  0.00  0.00    -0.206 NA
BRANCH  22  24
ATOM     24  N   UNL     1       5.580  -7.870 -12.666  0.00  0.00    -0.342 N 
ATOM     25  H   UNL     1       5.713  -8.080 -13.604  0.00  0.00    +0.144 HD
ATOM     26  H   UNL     1       6.011  -8.406 -11.983  0.00  0.00    +0.144 HD
ENDBRANCH  22  24
BRANCH  21  27
ATOM     27  C   UNL     1       4.316  -6.301 -14.683  0.00  0.00    +0.104 C 
ATOM     28  N   UNL     1       4.454  -6.525 -15.788  0.00  0.00    -0.191 NA
ENDBRANCH  21  27
ENDBRANCH  17  18
ENDBRANCH  16  17
ENDBRANCH  10  16
TORSDOF 6
