REMARK  Name = ZINC40156506
REMARK  5 active torsions:
REMARK  status: ('A' for Active; 'I' for Inactive)
REMARK    1  A    between atoms: C_1  and  C_2
REMARK    2  A    between atoms: C_2  and  N_3
REMARK    3  A    between atoms: C_4  and  C_15
REMARK    4  A    between atoms: C_18  and  C_22
REMARK    5  A    between atoms: C_20  and  C_21
REMARK                            x       y       z     vdW  Elec       q    Type
REMARK                         _______ _______ _______ _____ _____    ______ ____
ROOT
ATOM      1  N   UNL     1       0.750  -0.369   1.123  0.00  0.00    -0.281 N 
ATOM      2  C   UNL     1       2.134  -0.846   1.238  0.00  0.00    +0.176 C 
ATOM      3  N   UNL     1       2.175  -1.707   2.443  0.00  0.00    -0.281 NA
ATOM      4  C   UNL     1       1.077  -1.169   3.276  0.00  0.00    +0.098 C 
ATOM      5  C   UNL     1       0.115  -0.533   2.302  0.00  0.00    +0.237 C 
ATOM      6  O   UNL     1      -1.033  -0.223   2.539  0.00  0.00    -0.274 OA
ATOM      7  C   UNL     1       0.398  -2.302   4.039  0.00  0.00    +0.031 C 
ATOM      8  C   UNL     1      -0.744  -1.736   4.886  0.00  0.00    +0.002 C 
ATOM      9  C   UNL     1      -0.186  -0.703   5.868  0.00  0.00    +0.000 C 
ATOM     10  C   UNL     1       0.474   0.437   5.089  0.00  0.00    +0.002 C 
ATOM     11  C   UNL     1       1.620  -0.121   4.242  0.00  0.00    +0.031 C 
ATOM     12  H   UNL     1       2.007  -2.673   2.203  0.00  0.00    +0.125 HD
ENDROOT
BRANCH   2  13
ATOM     13  C   UNL     1       2.512  -1.643   0.017  0.00  0.00    -0.010 A 
ATOM     14  C   UNL     1       1.533  -2.283  -0.721  0.00  0.00    +0.007 A 
ATOM     15  C   UNL     1       1.879  -3.014  -1.841  0.00  0.00    +0.004 A 
ATOM     16  C   UNL     1       3.204  -3.106  -2.225  0.00  0.00    -0.050 A 
ATOM     17  C   UNL     1       4.183  -2.466  -1.488  0.00  0.00    +0.007 A 
ATOM     18  C   UNL     1       3.836  -1.731  -0.370  0.00  0.00    -0.044 A 
ATOM     19  C   UNL     1       4.902  -1.028   0.431  0.00  0.00    +0.044 C 
ATOM     20  C   UNL     1       3.582  -3.904  -3.446  0.00  0.00    +0.044 C 
ENDBRANCH   2  13
BRANCH   1  22
ATOM     21  C   UNL     1       0.248   1.728  -0.031  0.00  0.00    +0.024 C 
ATOM     22  C   UNL     1       0.152   0.202  -0.086  0.00  0.00    +0.106 C 
ENDBRANCH   1  22
TORSDOF 2
