REMARK  Name = ZINC67536073
REMARK  7 active torsions:
REMARK  status: ('A' for Active; 'I' for Inactive)
REMARK    1  A    between atoms: C_1  and  C_2
REMARK    2  A    between atoms: C_3  and  C_9
REMARK    3  A    between atoms: C_4  and  C_8
REMARK    4  A    between atoms: N_5  and  C_7
REMARK    5  A    between atoms: C_9  and  C_11
REMARK    6  A    between atoms: C_9  and  N_12
REMARK    7  A    between atoms: N_15  and  C_16
REMARK                            x       y       z     vdW  Elec       q    Type
REMARK                         _______ _______ _______ _____ _____    ______ ____
ROOT
ATOM      1  N   UNL     1      -0.616   0.845  -2.745  0.00  0.00    -0.293 N 
ATOM      2  C   UNL     1      -1.168   1.100  -3.947  0.00  0.00    +0.301 C 
ATOM      3  O   UNL     1      -0.975   0.342  -4.878  0.00  0.00    -0.253 OA
ATOM      4  N   UNL     1      -1.935   2.195  -4.118  0.00  0.00    -0.293 N 
ATOM      5  H   UNL     1      -0.769   1.450  -2.002  0.00  0.00    +0.151 HD
ATOM      6  H   UNL     1      -2.088   2.800  -3.375  0.00  0.00    +0.151 HD
ENDROOT
BRANCH   4   7
ATOM      7  C   UNL     1      -2.535   2.473  -5.425  0.00  0.00    +0.105 C 
ATOM      8  C   UNL     1      -3.782   3.369  -5.262  0.00  0.00    +0.032 C 
ATOM      9  C   UNL     1      -3.728   4.244  -6.532  0.00  0.00    +0.037 C 
ATOM     10  C   UNL     1      -2.266   4.293  -6.919  0.00  0.00    -0.042 A 
ATOM     11  C   UNL     1      -1.579   3.272  -6.283  0.00  0.00    -0.024 A 
ATOM     12  C   UNL     1      -0.219   3.121  -6.492  0.00  0.00    +0.006 A 
ATOM     13  C   UNL     1       0.456   3.984  -7.333  0.00  0.00    +0.000 A 
ATOM     14  C   UNL     1      -0.228   5.002  -7.969  0.00  0.00    +0.000 A 
ATOM     15  C   UNL     1      -1.589   5.158  -7.761  0.00  0.00    +0.004 A 
ENDBRANCH   4   7
BRANCH   1  16
ATOM     16  C   UNL     1       0.218  -0.346  -2.559  0.00  0.00    +0.105 C 
ATOM     17  C   UNL     1       1.648  -0.043  -3.010  0.00  0.00    +0.033 C 
BRANCH  16  20
ATOM     18  C   UNL     1      -0.183  -3.272  -1.411  0.00  0.00    +0.068 C 
ATOM     19  C   UNL     1       0.045  -2.026  -0.595  0.00  0.00    +0.065 A 
ATOM     20  C   UNL     1       0.222  -0.734  -1.103  0.00  0.00    +0.016 A 
ATOM     21  C   UNL     1       0.397   0.104  -0.056  0.00  0.00    +0.041 A 
ATOM     22  N   UNL     1       0.334  -0.630   1.075  0.00  0.00    -0.271 N 
ATOM     23  N   UNL     1       0.107  -1.963   0.710  0.00  0.00    -0.176 NA
ATOM     24  C   UNL     1       0.473  -0.122   2.442  0.00  0.00    +0.172 C 
ATOM     25  C   UNL     1       0.623   1.592  -0.137  0.00  0.00    +0.065 C 
ENDBRANCH  16  20
ENDBRANCH   1  16
TORSDOF 3
