REMARK  Name = ZINC13702874
REMARK  6 active torsions:
REMARK  status: ('A' for Active; 'I' for Inactive)
REMARK    1  A    between atoms: C_1  and  C_2
REMARK    2  A    between atoms: C_2  and  N_3
REMARK    3  A    between atoms: C_6  and  C_8
REMARK    4  A    between atoms: C_8  and  N_10
REMARK    5  A    between atoms: N_12  and  C_21
REMARK    6  A    between atoms: C_21  and  C_22
REMARK                            x       y       z     vdW  Elec       q    Type
REMARK                         _______ _______ _______ _____ _____    ______ ____
ROOT
ATOM      1  N   UNL     1       2.337   3.208  -0.003  0.00  0.00    -0.151 NA
ATOM      2  C   UNL     1       1.690   2.048  -0.003  0.00  0.00    +0.168 A 
ATOM      3  N   UNL     1       2.211   0.791  -0.015  0.00  0.00    -0.310 N 
ATOM      4  C   UNL     1       1.371  -0.307  -0.013  0.00  0.00    +0.059 A 
ATOM      5  C   UNL     1       1.717  -1.668  -0.025  0.00  0.00    +0.028 A 
ATOM      6  C   UNL     1       0.746  -2.641  -0.021  0.00  0.00    +0.022 A 
ATOM      7  C   UNL     1      -0.600  -2.311  -0.006  0.00  0.00    +0.042 A 
ATOM      8  C   UNL     1      -0.969  -0.977   0.005  0.00  0.00    +0.037 A 
ATOM      9  C   UNL     1       0.002  -0.004   0.002  0.00  0.00    +0.040 A 
ATOM     10  S   UNL     1      -0.022   1.771   0.012  0.00  0.00    -0.052 S 
ATOM     11 CL   UNL     1      -1.809  -3.557  -0.003  0.00  0.00    -0.084 Cl
ENDROOT
BRANCH   1  12
ATOM     12  C   UNL     1       1.651   4.356   0.010  0.00  0.00    +0.290 C 
ATOM     13  O   UNL     1       0.432   4.338   0.022  0.00  0.00    -0.266 OA
BRANCH  12  17
ATOM     14  N   UNL     1       3.961   7.071   0.002  0.00  0.00    -0.271 N 
ATOM     15  C   UNL     1       2.828   7.805   0.018  0.00  0.00    +0.109 A 
ATOM     16  C   UNL     1       1.788   6.937   0.023  0.00  0.00    +0.054 A 
ATOM     17  C   UNL     1       2.372   5.649   0.010  0.00  0.00    +0.149 A 
ATOM     18  N   UNL     1       3.678   5.818   0.004  0.00  0.00    -0.167 NA
BRANCH  14  20
ATOM     19  C   UNL     1       6.113   7.043   1.163  0.00  0.00    +0.029 C 
ATOM     20  C   UNL     1       5.317   7.624  -0.007  0.00  0.00    +0.140 C 
ENDBRANCH  14  20
ENDBRANCH  12  17
ENDBRANCH   1  12
BRANCH   3  21
ATOM     21  C   UNL     1       3.664   0.602  -0.030  0.00  0.00    +0.212 C 
BRANCH  21  22
ATOM     22  C   UNL     1       4.137   0.546  -1.423  0.00  0.00    -0.084 C 
ATOM     23  C   UNL     1       4.514   0.502  -2.534  0.00  0.00    +0.005 C 
ENDBRANCH  21  22
ENDBRANCH   3  21
TORSDOF 5
