REMARK  Name = ZINC63822612
REMARK  6 active torsions:
REMARK  status: ('A' for Active; 'I' for Inactive)
REMARK    1  A    between atoms: C_1  and  O_2
REMARK    2  A    between atoms: O_2  and  C_3
REMARK    3  A    between atoms: C_8  and  O_9
REMARK    4  A    between atoms: O_9  and  C_10
REMARK    5  A    between atoms: C_13  and  S_16
REMARK    6  A    between atoms: S_16  and  C_17
REMARK                            x       y       z     vdW  Elec       q    Type
REMARK                         _______ _______ _______ _____ _____    ______ ____
ROOT
ATOM      1  S   UNL     1       4.764  -0.961  -5.364  0.00  0.00    -0.077 S 
ENDROOT
BRANCH   1   2
ATOM      2  C   UNL     1       5.134  -2.324  -6.418  0.00  0.00    +0.182 C 
ATOM      3  N   UNL     1       4.134  -3.066  -6.861  0.00  0.00    -0.151 NA
ATOM      4  C   UNL     1       4.316  -4.112  -7.665  0.00  0.00    +0.272 C 
ATOM      5  O   UNL     1       3.370  -4.778  -8.054  0.00  0.00    -0.268 OA
ATOM      6  C   UNL     1       5.717  -4.448  -8.079  0.00  0.00    +0.071 C 
ATOM      7  C   UNL     1       6.117  -5.411  -8.925  0.00  0.00    -0.042 C 
ATOM      8  C   UNL     1       5.163  -6.254  -9.767  0.00  0.00    +0.033 C 
ATOM      9  C   UNL     1       5.607  -6.100 -11.228  0.00  0.00    +0.004 C 
ATOM     10  C   UNL     1       7.092  -6.427 -11.366  0.00  0.00    +0.002 C 
ATOM     11  C   UNL     1       7.945  -5.435 -10.568  0.00  0.00    +0.019 C 
ATOM     12  C   UNL     1       7.623  -5.601  -9.081  0.00  0.00    +0.079 C 
ATOM     13  S   UNL     1       8.286  -4.179  -8.133  0.00  0.00    -0.097 S 
ATOM     14  C   UNL     1       6.747  -3.551  -7.510  0.00  0.00    +0.112 C 
ATOM     15  N   UNL     1       6.409  -2.554  -6.734  0.00  0.00    -0.217 NA
ENDBRANCH   1   2
BRANCH   1  24
ATOM     16  C   UNL     1       0.605  -0.606  -1.054  0.00  0.00    +0.162 A 
ATOM     17  C   UNL     1       1.172   0.163  -2.061  0.00  0.00    +0.053 A 
ATOM     18  C   UNL     1       1.787  -0.441  -3.139  0.00  0.00    -0.032 A 
ATOM     19  C   UNL     1       1.842  -1.834  -3.222  0.00  0.00    +0.025 A 
ATOM     20  C   UNL     1       1.266  -2.611  -2.201  0.00  0.00    +0.061 A 
ATOM     21  C   UNL     1       0.660  -1.998  -1.125  0.00  0.00    +0.162 A 
ATOM     22  C   UNL     1       2.539  -2.253  -4.446  0.00  0.00    +0.177 C 
ATOM     23  O   UNL     1       2.742  -3.398  -4.792  0.00  0.00    -0.291 OA
ATOM     24  C   UNL     1       2.958  -1.013  -5.197  0.00  0.00    +0.129 C 
ATOM     25  C   UNL     1       2.467   0.165  -4.343  0.00  0.00    +0.058 C 
BRANCH  16  27
ATOM     26  C   UNL     1      -0.017   1.425   0.010  0.00  0.00    +0.277 C 
ATOM     27  O   UNL     1       0.002  -0.004   0.002  0.00  0.00    -0.491 OA
ENDBRANCH  16  27
BRANCH  21  28
ATOM     28  O   UNL     1       0.109  -2.752  -0.136  0.00  0.00    -0.491 OA
ATOM     29  C   UNL     1       0.201  -4.171  -0.274  0.00  0.00    +0.277 C 
ENDBRANCH  21  28
ENDBRANCH   1  24
TORSDOF 4
