REMARK  Name = ZINC18324416
REMARK  5 active torsions:
REMARK  status: ('A' for Active; 'I' for Inactive)
REMARK    1  A    between atoms: C_1  and  C_2
REMARK    2  A    between atoms: C_2  and  S_3
REMARK    3  A    between atoms: S_3  and  C_4
REMARK    4  A    between atoms: C_15  and  C_17
REMARK    5  A    between atoms: C_15  and  C_18
REMARK                            x       y       z     vdW  Elec       q    Type
REMARK                         _______ _______ _______ _____ _____    ______ ____
ROOT
ATOM      1  C   UNL     1       0.818  -2.359   1.317  0.00  0.00    +0.171 A 
ATOM      2  N   UNL     1       0.218  -2.893   0.274  0.00  0.00    -0.185 NA
ATOM      3  C   UNL     1       0.134  -4.214   0.095  0.00  0.00    +0.282 A 
ATOM      4  C   UNL     1       0.736  -5.123   1.100  0.00  0.00    +0.075 A 
ATOM      5  C   UNL     1       0.765  -6.583   1.113  0.00  0.00    -0.018 A 
ATOM      6  C   UNL     1       1.384  -7.176   2.157  0.00  0.00    +0.021 A 
ATOM      7  S   UNL     1       1.955  -5.838   3.166  0.00  0.00    -0.073 S 
ATOM      8  C   UNL     1       1.356  -4.491   2.179  0.00  0.00    +0.093 A 
ATOM      9  N   UNL     1       1.397  -3.134   2.277  0.00  0.00    -0.328 N 
ATOM     10  C   UNL     1       1.534  -8.649   2.380  0.00  0.00    +0.203 C 
ATOM     11  O   UNL     1       0.644  -9.324   1.477  0.00  0.00    -0.368 OA
ATOM     12  C   UNL     1       0.735  -8.854   0.129  0.00  0.00    +0.068 C 
ATOM     13  C   UNL     1       0.141  -7.447   0.019  0.00  0.00    +0.071 C 
ATOM     14  C   UNL     1       2.204  -8.819  -0.297  0.00  0.00    +0.041 C 
ATOM     15  C   UNL     1      -0.035  -9.803  -0.792  0.00  0.00    +0.041 C 
ATOM     16  O   UNL     1      -0.432  -4.669  -0.887  0.00  0.00    -0.265 OA
ATOM     17  H   UNL     1       1.838  -2.717   3.035  0.00  0.00    +0.168 HD
ENDROOT
BRANCH   1  18
ATOM     18  S   UNL     1       0.879  -0.605   1.472  0.00  0.00    -0.088 S 
BRANCH  18  20
ATOM     19  C   UNL     1      -0.019   1.526   0.010  0.00  0.00    +0.016 C 
ATOM     20  C   UNL     1       0.002  -0.004   0.002  0.00  0.00    +0.074 C 
ENDBRANCH  18  20
ENDBRANCH   1  18
TORSDOF 2
