REMARK  Name = ZINC04853416
REMARK  10 active torsions:
REMARK  status: ('A' for Active; 'I' for Inactive)
REMARK    1  A    between atoms: C_1  and  C_2
REMARK    2  A    between atoms: C_4  and  C_29
REMARK    3  A    between atoms: C_5  and  N_9
REMARK    4  A    between atoms: C_6  and  C_8
REMARK    5  A    between atoms: C_10  and  C_12
REMARK    6  A    between atoms: C_12  and  N_13
REMARK    7  A    between atoms: C_16  and  C_28
REMARK    8  A    between atoms: C_17  and  C_27
REMARK    9  A    between atoms: C_21  and  C_26
REMARK   10  A    between atoms: C_23  and  C_25
REMARK                            x       y       z     vdW  Elec       q    Type
REMARK                         _______ _______ _______ _____ _____    ______ ____
ROOT
ATOM      1  N   UNL     1      -5.179   2.489   0.083  0.00  0.00    -0.268 N 
ATOM      2  C   UNL     1      -5.424   2.098  -1.186  0.00  0.00    +0.259 A 
ATOM      3  O   UNL     1      -4.860   2.640  -2.123  0.00  0.00    -0.267 OA
ATOM      4  C   UNL     1      -6.338   1.051  -1.407  0.00  0.00    +0.035 A 
ATOM      5  C   UNL     1      -6.952   0.477  -0.333  0.00  0.00    +0.050 A 
ATOM      6  N   UNL     1      -6.679   0.903   0.899  0.00  0.00    -0.217 NA
ATOM      7  C   UNL     1      -5.822   1.877   1.113  0.00  0.00    +0.235 A 
ATOM      8  N   UNL     1      -5.569   2.288   2.410  0.00  0.00    -0.204 N 
ATOM      9  C   UNL     1      -6.040   1.699   3.544  0.00  0.00    +0.045 A 
ATOM     10  C   UNL     1      -5.564   2.401   4.596  0.00  0.00    +0.048 A 
ATOM     11  C   UNL     1      -4.781   3.450   4.097  0.00  0.00    +0.061 A 
ATOM     12  N   UNL     1      -4.779   3.380   2.792  0.00  0.00    -0.169 NA
ATOM     13  C   UNL     1      -4.058   4.481   4.925  0.00  0.00    +0.067 C 
ATOM     14  C   UNL     1      -6.929   0.484   3.613  0.00  0.00    +0.066 C 
ATOM     15  C   UNL     1      -7.940  -0.642  -0.540  0.00  0.00    +0.066 C 
ATOM     16  C   UNL     1      -6.638   0.577  -2.805  0.00  0.00    +0.051 C 
ENDROOT
BRANCH   1  17
ATOM     17  C   UNL     1      -4.229   3.572   0.349  0.00  0.00    +0.224 C 
BRANCH  17  19
ATOM     18  N   UNL     1      -4.301   6.018   0.711  0.00  0.00    -0.284 N 
ATOM     19  C   UNL     1      -4.975   4.876   0.466  0.00  0.00    +0.237 C 
ATOM     20  O   UNL     1      -6.181   4.899   0.340  0.00  0.00    -0.274 OA
ATOM     21  H   UNL     1      -3.332   6.009   0.755  0.00  0.00    +0.155 HD
BRANCH  18  26
ATOM     22  C   UNL     1      -7.133  10.873   1.481  0.00  0.00    +0.044 C 
ATOM     23  C   UNL     1      -6.381   9.583   1.276  0.00  0.00    -0.050 A 
ATOM     24  C   UNL     1      -6.701   8.470   2.031  0.00  0.00    +0.008 A 
ATOM     25  C   UNL     1      -6.010   7.288   1.850  0.00  0.00    -0.029 A 
ATOM     26  C   UNL     1      -4.999   7.215   0.901  0.00  0.00    +0.039 A 
ATOM     27  C   UNL     1      -4.680   8.335   0.143  0.00  0.00    -0.029 A 
ATOM     28  C   UNL     1      -5.372   9.515   0.333  0.00  0.00    +0.008 A 
ATOM     29  C   UNL     1      -3.580   8.261  -0.884  0.00  0.00    +0.045 C 
ATOM     30  C   UNL     1      -6.356   6.077   2.678  0.00  0.00    +0.045 C 
ENDBRANCH  18  26
ENDBRANCH  17  19
ENDBRANCH   1  17
TORSDOF 3
