REMARK  Name = ZINC58481006
REMARK  6 active torsions:
REMARK  status: ('A' for Active; 'I' for Inactive)
REMARK    1  A    between atoms: C_1  and  C_2
REMARK    2  A    between atoms: C_2  and  C_3
REMARK    3  A    between atoms: C_2  and  N_4
REMARK    4  A    between atoms: C_5  and  C_7
REMARK    5  A    between atoms: C_12  and  N_13
REMARK    6  A    between atoms: C_14  and  C_16
REMARK                            x       y       z     vdW  Elec       q    Type
REMARK                         _______ _______ _______ _____ _____    ______ ____
ROOT
ATOM      1  N   UNL     1      -2.328  -4.212  -1.704  0.00  0.00    -0.281 N 
ATOM      2  C   UNL     1      -2.605  -4.929  -2.811  0.00  0.00    +0.248 C 
ATOM      3  O   UNL     1      -3.707  -4.857  -3.321  0.00  0.00    -0.270 OA
ATOM      4  H   UNL     1      -1.429  -4.209  -1.340  0.00  0.00    +0.155 HD
ENDROOT
BRANCH   2   5
ATOM      5  C   UNL     1      -1.573  -5.801  -3.403  0.00  0.00    +0.041 A 
ATOM      6  C   UNL     1      -0.309  -5.888  -2.814  0.00  0.00    +0.015 A 
ATOM      7  C   UNL     1       0.656  -6.702  -3.367  0.00  0.00    +0.028 A 
ATOM      8  C   UNL     1       0.373  -7.436  -4.510  0.00  0.00    +0.076 A 
ATOM      9  C   UNL     1      -0.888  -7.353  -5.104  0.00  0.00    +0.143 A 
ATOM     10  C   UNL     1      -1.860  -6.544  -4.552  0.00  0.00    +0.060 A 
ATOM     11  O   UNL     1      -1.148  -8.077  -6.226  0.00  0.00    -0.481 OA
ATOM     12  C   UNL     1      -0.053  -8.288  -7.122  0.00  0.00    +0.325 C 
ATOM     13  C   UNL     1       1.163  -8.715  -6.341  0.00  0.00    +0.255 C 
ATOM     14  O   UNL     1       1.978  -9.460  -6.843  0.00  0.00    -0.272 OA
ATOM     15  N   UNL     1       1.342  -8.266  -5.080  0.00  0.00    -0.280 N 
ATOM     16  H   UNL     1       2.133  -8.516  -4.577  0.00  0.00    +0.155 HD
ENDBRANCH   2   5
BRANCH   1  22
ATOM     17  C   UNL     1      -3.031  -2.249  -0.470  0.00  0.00    +0.058 A 
ATOM     18  C   UNL     1      -4.049  -1.516   0.146  0.00  0.00    +0.016 A 
ATOM     19  C   UNL     1      -5.337  -2.003   0.155  0.00  0.00    +0.021 A 
ATOM     20  C   UNL     1      -5.631  -3.219  -0.445  0.00  0.00    +0.043 A 
ATOM     21  C   UNL     1      -4.635  -3.954  -1.058  0.00  0.00    +0.044 A 
ATOM     22  C   UNL     1      -3.332  -3.476  -1.081  0.00  0.00    +0.047 A 
ATOM     23 CL   UNL     1      -7.260  -3.820  -0.425  0.00  0.00    -0.083 Cl
BRANCH  17  25
ATOM     24  N   UNL     1      -1.382  -0.511   0.017  0.00  0.00    -0.309 N 
ATOM     25  C   UNL     1      -1.650  -1.734  -0.482  0.00  0.00    +0.246 C 
ATOM     26  O   UNL     1      -0.752  -2.412  -0.943  0.00  0.00    -0.270 OA
ATOM     27  H   UNL     1      -2.098   0.031   0.384  0.00  0.00    +0.149 HD
BRANCH  24  29
ATOM     28  C   UNL     1      -0.036   1.531   0.015  0.00  0.00    +0.027 C 
ATOM     29  C   UNL     1      -0.010   0.002   0.004  0.00  0.00    +0.067 C 
ATOM     30  C   UNL     1       0.735  -0.505   1.241  0.00  0.00    +0.027 C 
ENDBRANCH  24  29
ENDBRANCH  17  25
ENDBRANCH   1  22
TORSDOF 4
