REMARK  Name = ZINC65440463
REMARK  8 active torsions:
REMARK  status: ('A' for Active; 'I' for Inactive)
REMARK    1  A    between atoms: C_1  and  C_2
REMARK    2  A    between atoms: C_2  and  C_3
REMARK    3  A    between atoms: N_15  and  C_16
REMARK    4  A    between atoms: C_16  and  C_17
REMARK    5  A    between atoms: C_17  and  C_19
REMARK    6  A    between atoms: C_17  and  N_20
REMARK    7  A    between atoms: N_20  and  C_21
REMARK    8  A    between atoms: N_20  and  C_22
REMARK                            x       y       z     vdW  Elec       q    Type
REMARK                         _______ _______ _______ _____ _____    ______ ____
ROOT
ATOM      1  C   UNL     1      -1.018  -0.860  -2.692  0.00  0.00    +0.108 C 
ATOM      2  C   UNL     1      -1.815  -0.986  -1.395  0.00  0.00    -0.017 A 
ATOM      3  C   UNL     1      -3.116  -1.485  -1.343  0.00  0.00    +0.013 A 
ATOM      4  C   UNL     1      -3.760  -1.572  -0.157  0.00  0.00    +0.046 A 
ATOM      5  S   UNL     1      -2.533  -0.938   0.976  0.00  0.00    -0.101 S 
ATOM      6  C   UNL     1      -1.260  -0.603  -0.213  0.00  0.00    -0.004 A 
ATOM      7  C   UNL     1       0.100  -0.031   0.021  0.00  0.00    +0.062 C 
ATOM      8  C   UNL     1       0.967  -0.300  -1.220  0.00  0.00    +0.115 C 
ATOM      9  N   UNL     1       0.158  -0.024  -2.418  0.00  0.00    -0.278 N 
ATOM     10  C   UNL     1       0.491   0.982  -3.251  0.00  0.00    +0.303 C 
ATOM     11  O   UNL     1       1.411   1.725  -2.970  0.00  0.00    -0.253 OA
ATOM     12  N   UNL     1      -0.196   1.163  -4.396  0.00  0.00    -0.301 N 
ATOM     13  H   UNL     1      -0.975   0.617  -4.587  0.00  0.00    +0.150 HD
ENDROOT
BRANCH   1  15
ATOM     14  C   UNL     1       0.135  -2.122  -4.514  0.00  0.00    +0.006 C 
ATOM     15  C   UNL     1      -0.571  -2.246  -3.162  0.00  0.00    +0.024 C 
ENDBRANCH   1  15
BRANCH  12  16
ATOM     16  C   UNL     1       0.233   2.186  -5.354  0.00  0.00    +0.090 C 
BRANCH  16  17
ATOM     17  C   UNL     1      -0.784   2.275  -6.494  0.00  0.00    -0.055 C 
ATOM     18  C   UNL     1      -0.397   3.419  -7.434  0.00  0.00    -0.012 C 
BRANCH  17  19
ATOM     19  N   UNL     1      -2.120   2.527  -5.940  0.00  0.00    +0.379 N 
ATOM     20  C   UNL     1      -2.148   3.856  -5.313  0.00  0.00    -0.096 C 
ATOM     21  C   UNL     1      -3.116   2.474  -7.019  0.00  0.00    -0.096 C 
ATOM     22  H   UNL     1      -2.336   1.825  -5.249  0.00  0.00    -0.082 HD
ENDBRANCH  17  19
ENDBRANCH  16  17
ENDBRANCH  12  16
TORSDOF 4
