REMARK  Name = ZINC39557907
REMARK  4 active torsions:
REMARK  status: ('A' for Active; 'I' for Inactive)
REMARK    1  A    between atoms: C_1  and  C_2
REMARK    2  A    between atoms: C_6  and  S_7
REMARK    3  A    between atoms: S_7  and  N_10
REMARK    4  A    between atoms: C_16  and  C_20
REMARK                            x       y       z     vdW  Elec       q    Type
REMARK                         _______ _______ _______ _____ _____    ______ ____
ROOT
ATOM      1  N   UNL     1      -0.736  -1.218   3.760  0.00  0.00    -0.172 NA
ATOM      2  C   UNL     1      -2.190  -1.161   3.978  0.00  0.00    +0.116 C 
ATOM      3  C   UNL     1      -2.844  -2.408   3.374  0.00  0.00    +0.074 C 
ATOM      4  C   UNL     1      -2.047  -3.627   3.780  0.00  0.00    +0.067 C 
ATOM      5  C   UNL     1      -0.789  -3.567   4.229  0.00  0.00    -0.005 C 
ATOM      6  C   UNL     1       0.016  -2.316   4.399  0.00  0.00    +0.144 C 
ATOM      7  C   UNL     1      -0.402  -4.997   4.501  0.00  0.00    +0.160 C 
ATOM      8  N   UNL     1      -1.625  -5.737   4.133  0.00  0.00    -0.179 NA
ATOM      9  N   UNL     1      -2.464  -4.913   3.754  0.00  0.00    -0.158 NA
ENDROOT
BRANCH   7  10
ATOM     10  C   UNL     1      -0.066  -5.196   5.981  0.00  0.00    +0.020 C 
ATOM     11  C   UNL     1       1.156  -4.338   6.365  0.00  0.00    +0.006 C 
ATOM     12  C   UNL     1       1.941  -5.222   7.367  0.00  0.00    +0.000 C 
ATOM     13  C   UNL     1       1.774  -6.642   6.773  0.00  0.00    +0.000 C 
ATOM     14  C   UNL     1       0.326  -6.661   6.240  0.00  0.00    +0.006 C 
ENDBRANCH   7  10
BRANCH   1  15
ATOM     15  S   UNL     1       0.031  -0.091   2.820  0.00  0.00    +0.068 S 
ATOM     16  O   UNL     1       1.389  -0.070   3.238  0.00  0.00    -0.152 OA
ATOM     17  O   UNL     1      -0.787   1.071   2.830  0.00  0.00    -0.152 OA
BRANCH  15  23
ATOM     18  C   UNL     1      -0.018   1.503   0.010  0.00  0.00    +0.046 C 
ATOM     19  C   UNL     1       0.002  -0.004   0.002  0.00  0.00    -0.017 A 
ATOM     20  C   UNL     1       0.006  -0.699  -1.193  0.00  0.00    +0.013 A 
ATOM     21  C   UNL     1       0.024  -2.054  -1.165  0.00  0.00    +0.047 A 
ATOM     22  S   UNL     1       0.037  -2.387   0.589  0.00  0.00    -0.077 S 
ATOM     23  C   UNL     1       0.023  -0.698   1.166  0.00  0.00    +0.146 A 
ENDBRANCH  15  23
ENDBRANCH   1  15
TORSDOF 3
