REMARK  Name = ZINC40358208
REMARK  6 active torsions:
REMARK  status: ('A' for Active; 'I' for Inactive)
REMARK    1  A    between atoms: C_1  and  C_2
REMARK    2  A    between atoms: C_2  and  C_3
REMARK    3  A    between atoms: C_3  and  C_4
REMARK    4  A    between atoms: C_3  and  C_5
REMARK    5  A    between atoms: C_3  and  N_7
REMARK    6  A    between atoms: C_8  and  C_10
REMARK                            x       y       z     vdW  Elec       q    Type
REMARK                         _______ _______ _______ _____ _____    ______ ____
ROOT
ATOM      1  N   UNL     1       0.738  -1.962  -1.265  0.00  0.00    -0.297 N 
ATOM      2  C   UNL     1       1.321  -2.623  -2.285  0.00  0.00    +0.220 C 
ATOM      3  O   UNL     1       1.829  -2.004  -3.196  0.00  0.00    -0.275 OA
ATOM      4  H   UNL     1       0.332  -2.457  -0.536  0.00  0.00    +0.150 HD
ENDROOT
BRANCH   2   5
ATOM      5  C   UNL     1       1.341  -4.130  -2.293  0.00  0.00    +0.048 C 
ATOM      6  C   UNL     1       2.082  -4.636  -1.054  0.00  0.00    +0.019 C 
ATOM      7  C   UNL     1       2.102  -6.166  -1.062  0.00  0.00    -0.009 C 
ATOM      8  C   UNL     1       2.818  -6.660  -2.321  0.00  0.00    +0.007 C 
ATOM      9  C   UNL     1       2.078  -6.153  -3.560  0.00  0.00    -0.009 C 
ATOM     10  C   UNL     1       2.058  -4.623  -3.552  0.00  0.00    +0.019 C 
ATOM     11  C   UNL     1       0.643  -6.682  -3.550  0.00  0.00    +0.007 C 
ATOM     12  C   UNL     1      -0.073  -6.189  -2.291  0.00  0.00    -0.009 C 
ATOM     13  C   UNL     1       0.667  -6.696  -1.051  0.00  0.00    +0.007 C 
ATOM     14  C   UNL     1      -0.094  -4.659  -2.282  0.00  0.00    +0.019 C 
ENDBRANCH   2   5
BRANCH   1  15
ATOM     15  C   UNL     1       0.718  -0.497  -1.257  0.00  0.00    +0.118 C 
ATOM     16  C   UNL     1       2.154   0.032  -1.268  0.00  0.00    +0.048 C 
BRANCH  15  18
ATOM     17  C   UNL     1      -0.019   1.526   0.010  0.00  0.00    +0.007 C 
ATOM     18  C   UNL     1       0.002  -0.004   0.002  0.00  0.00    +0.037 C 
ENDBRANCH  15  18
BRANCH  15  19
ATOM     19  C   UNL     1       0.006  -0.010  -2.449  0.00  0.00    +0.088 C 
ATOM     20  N   UNL     1      -0.543   0.366  -3.370  0.00  0.00    -0.194 NA
ENDBRANCH  15  19
ENDBRANCH   1  15
TORSDOF 4
