REMARK  Name = ZINC39674471
REMARK  12 active torsions:
REMARK  status: ('A' for Active; 'I' for Inactive)
REMARK    1  A    between atoms: C_1  and  C_2
REMARK    2  A    between atoms: C_2  and  C_3
REMARK    3  A    between atoms: C_3  and  C_4
REMARK    4  A    between atoms: C_4  and  C_5
REMARK    5  A    between atoms: C_5  and  C_7
REMARK    6  A    between atoms: C_5  and  C_8
REMARK    7  A    between atoms: C_12  and  C_21
REMARK    8  A    between atoms: N_23  and  C_24
REMARK    9  A    between atoms: C_24  and  C_26
REMARK   10  A    between atoms: C_24  and  C_27
REMARK   11  A    between atoms: C_28  and  C_34
REMARK   12  A    between atoms: C_31  and  C_33
REMARK                            x       y       z     vdW  Elec       q    Type
REMARK                         _______ _______ _______ _____ _____    ______ ____
ROOT
ATOM      1  C   UNL     1      -2.865  -3.340  -0.119  0.00  0.00    +0.218 C 
ATOM      2  O   UNL     1      -1.809  -3.937  -0.110  0.00  0.00    -0.275 OA
ATOM      3  N   UNL     1      -4.024  -4.021  -0.029  0.00  0.00    -0.300 N 
ATOM      4  C   UNL     1      -5.402  -3.474  -0.029  0.00  0.00    +0.121 C 
ATOM      5  C   UNL     1      -6.219  -4.477  -0.874  0.00  0.00    +0.100 C 
ATOM      6  C   UNL     1      -5.434  -5.796  -0.787  0.00  0.00    -0.004 C 
ATOM      7  C   UNL     1      -4.210  -5.487   0.088  0.00  0.00    +0.115 C 
ATOM      8  C   UNL     1      -4.983  -6.235  -2.177  0.00  0.00    -0.010 C 
ATOM      9  C   UNL     1      -4.253  -7.577  -2.071  0.00  0.00    -0.082 C 
ATOM     10  N   UNL     1      -5.152  -8.580  -1.486  0.00  0.00    +0.379 N 
ATOM     11  C   UNL     1      -5.507  -8.195  -0.115  0.00  0.00    -0.082 C 
ATOM     12  C   UNL     1      -6.289  -6.879  -0.138  0.00  0.00    -0.010 C 
ATOM     13  H   UNL     1      -5.990  -8.644  -2.044  0.00  0.00    -0.086 HD
ATOM     14  H   UNL     1      -4.690  -9.477  -1.474  0.00  0.00    -0.086 HD
ENDROOT
BRANCH   5  15
ATOM     15  C   UNL     1      -6.307  -4.009  -2.304  0.00  0.00    +0.219 C 
ATOM     16  O   UNL     1      -5.402  -3.362  -2.787  0.00  0.00    -0.275 OA
ATOM     17  N   UNL     1      -7.392  -4.309  -3.046  0.00  0.00    -0.309 N 
ATOM     18  H   UNL     1      -8.116  -4.827  -2.659  0.00  0.00    +0.149 HD
BRANCH  17  19
ATOM     19  C   UNL     1      -7.478  -3.855  -4.436  0.00  0.00    +0.100 C 
ATOM     20  C   UNL     1      -6.722  -4.832  -5.339  0.00  0.00    +0.033 C 
BRANCH  19  21
ATOM     21  C   UNL     1      -8.923  -3.796  -4.857  0.00  0.00    -0.001 C 
ATOM     22  C   UNL     1      -9.610  -2.738  -5.294  0.00  0.00    +0.063 C 
ATOM     23  N   UNL     1     -10.887  -3.079  -5.576  0.00  0.00    -0.159 NA
ATOM     24  N   UNL     1     -11.156  -4.266  -5.378  0.00  0.00    -0.180 NA
ATOM     25  C   UNL     1      -9.935  -4.928  -4.889  0.00  0.00    +0.154 C 
ATOM     26  C   UNL     1     -10.156  -5.496  -3.486  0.00  0.00    +0.039 C 
ATOM     27  C   UNL     1      -9.039  -1.353  -5.452  0.00  0.00    +0.067 C 
ENDBRANCH  19  21
ENDBRANCH  17  19
ENDBRANCH   5  15
BRANCH   1  28
ATOM     28  C   UNL     1      -2.880  -1.837  -0.232  0.00  0.00    +0.072 C 
ATOM     29  C   UNL     1      -3.564  -1.240   0.999  0.00  0.00    +0.017 C 
BRANCH  28  30
ATOM     30  C   UNL     1      -1.444  -1.318  -0.320  0.00  0.00    +0.012 C 
BRANCH  30  31
ATOM     31  C   UNL     1      -1.462   0.193  -0.560  0.00  0.00    +0.000 C 
BRANCH  31  33
ATOM     32  C   UNL     1      -0.044   2.224  -0.888  0.00  0.00    +0.004 C 
ATOM     33  C   UNL     1      -0.026   0.713  -0.648  0.00  0.00    -0.003 C 
ENDBRANCH  31  33
ENDBRANCH  30  31
ENDBRANCH  28  30
ENDBRANCH   1  28
TORSDOF 7
