REMARK  Name = ZINC67316876
REMARK  4 active torsions:
REMARK  status: ('A' for Active; 'I' for Inactive)
REMARK    1  A    between atoms: C_1  and  N_2
REMARK    2  A    between atoms: N_2  and  C_3
REMARK    3  A    between atoms: C_13  and  C_15
REMARK    4  A    between atoms: N_17  and  C_18
REMARK                            x       y       z     vdW  Elec       q    Type
REMARK                         _______ _______ _______ _____ _____    ______ ____
ROOT
ATOM      1  C   UNL     1      -0.017   1.460   0.011  0.00  0.00    +0.139 C 
ATOM      2  N   UNL     1       0.006  -0.004   0.002  0.00  0.00    -0.266 N 
ATOM      3  C   UNL     1      -0.102  -0.673  -1.163  0.00  0.00    +0.305 C 
ATOM      4  O   UNL     1      -0.124  -0.064  -2.213  0.00  0.00    -0.265 OA
ENDROOT
BRANCH   2   5
ATOM      5  C   UNL     1       0.140  -0.706   1.198  0.00  0.00    +0.044 A 
ATOM      6  C   UNL     1      -0.978  -1.081   1.914  0.00  0.00    +0.024 A 
ATOM      7  C   UNL     1      -0.856  -1.782   3.109  0.00  0.00    +0.002 A 
ATOM      8  C   UNL     1       0.367  -2.117   3.606  0.00  0.00    +0.008 A 
ATOM      9  C   UNL     1       1.532  -1.755   2.907  0.00  0.00    -0.016 A 
ATOM     10  C   UNL     1       1.420  -1.045   1.686  0.00  0.00    +0.004 A 
ATOM     11  C   UNL     1       2.584  -0.688   0.988  0.00  0.00    +0.010 A 
ATOM     12  C   UNL     1       3.803  -1.032   1.488  0.00  0.00    +0.001 A 
ATOM     13  C   UNL     1       3.913  -1.734   2.687  0.00  0.00    +0.001 A 
ATOM     14  C   UNL     1       2.807  -2.087   3.396  0.00  0.00    +0.008 A 
ENDBRANCH   2   5
BRANCH   3  15
ATOM     15  C   UNL     1      -0.194  -2.163  -1.163  0.00  0.00    +0.300 C 
ATOM     16  O   UNL     1      -0.267  -2.767  -0.113  0.00  0.00    -0.265 OA
ATOM     17  N   UNL     1      -0.196  -2.839  -2.330  0.00  0.00    -0.305 N 
ATOM     18  H   UNL     1      -0.137  -2.356  -3.169  0.00  0.00    +0.149 HD
BRANCH  17  19
ATOM     19  C   UNL     1      -0.286  -4.301  -2.329  0.00  0.00    +0.073 C 
ATOM     20  C   UNL     1      -1.766  -4.739  -2.324  0.00  0.00    +0.022 C 
ATOM     21  C   UNL     1      -2.093  -4.989  -3.817  0.00  0.00    +0.002 C 
ATOM     22  C   UNL     1      -0.788  -5.630  -4.350  0.00  0.00    +0.002 C 
ATOM     23  C   UNL     1       0.335  -4.868  -3.618  0.00  0.00    +0.022 C 
ENDBRANCH  17  19
ENDBRANCH   3  15
TORSDOF 3
