REMARK  Name = ZINC16958681
REMARK  8 active torsions:
REMARK  status: ('A' for Active; 'I' for Inactive)
REMARK    1  A    between atoms: C_1  and  C_2
REMARK    2  A    between atoms: C_3  and  O_4
REMARK    3  A    between atoms: O_4  and  C_5
REMARK    4  A    between atoms: C_7  and  C_19
REMARK    5  A    between atoms: C_15  and  C_17
REMARK    6  A    between atoms: C_15  and  C_18
REMARK    7  A    between atoms: C_23  and  C_25
REMARK    8  A    between atoms: C_23  and  C_26
REMARK                            x       y       z     vdW  Elec       q    Type
REMARK                         _______ _______ _______ _____ _____    ______ ____
ROOT
ATOM      1  C   UNL     1      -3.537   1.786   0.029  0.00  0.00    +0.237 C 
ATOM      2  C   UNL     1      -4.674   0.979   0.679  0.00  0.00    +0.196 C 
ATOM      3  O   UNL     1      -5.663   0.739  -0.333  0.00  0.00    -0.339 OA
ATOM      4  C   UNL     1      -5.552   1.785  -1.316  0.00  0.00    +0.286 C 
ATOM      5  C   UNL     1      -4.018   2.050  -1.414  0.00  0.00    +0.220 C 
ATOM      6  O   UNL     1      -3.560   0.978  -2.265  0.00  0.00    -0.337 OA
ATOM      7  C   UNL     1      -4.628   0.754  -3.199  0.00  0.00    +0.168 C 
ATOM      8  O   UNL     1      -5.855   1.213  -2.618  0.00  0.00    -0.318 OA
ATOM      9  C   UNL     1      -4.351   1.526  -4.490  0.00  0.00    +0.074 C 
ATOM     10  C   UNL     1      -4.737  -0.740  -3.507  0.00  0.00    +0.074 C 
ENDROOT
BRANCH   2  11
ATOM     11  C   UNL     1      -4.133  -0.353   1.203  0.00  0.00    +0.180 C 
ATOM     12  C   UNL     1      -5.263  -1.182   1.862  0.00  0.00    +0.197 C 
ATOM     13  O   UNL     1      -4.520  -2.001   2.797  0.00  0.00    -0.347 OA
ATOM     14  C   UNL     1      -3.463  -1.149   3.272  0.00  0.00    +0.165 C 
ATOM     15  O   UNL     1      -3.211  -0.136   2.290  0.00  0.00    -0.341 OA
ATOM     16  C   UNL     1      -3.883  -0.495   4.590  0.00  0.00    +0.074 C 
ATOM     17  C   UNL     1      -2.196  -1.978   3.493  0.00  0.00    +0.074 C 
ENDBRANCH   2  11
BRANCH   1  18
ATOM     18  O   UNL     1      -2.328   1.024   0.019  0.00  0.00    -0.491 OA
BRANCH  18  21
ATOM     19  C   UNL     1       1.282   1.847  -0.000  0.00  0.00    +0.038 C 
ATOM     20  C   UNL     1      -0.013   1.076   0.008  0.00  0.00    +0.007 C 
ATOM     21  C   UNL     1      -1.162   1.719   0.017  0.00  0.00    +0.183 C 
ENDBRANCH  18  21
ENDBRANCH   1  18
TORSDOF 3
