REMARK  Name = ZINC65608980
REMARK  5 active torsions:
REMARK  status: ('A' for Active; 'I' for Inactive)
REMARK    1  A    between atoms: C_1  and  C_2
REMARK    2  A    between atoms: C_6  and  C_8
REMARK    3  A    between atoms: C_6  and  C_9
REMARK    4  A    between atoms: C_10  and  C_12
REMARK    5  A    between atoms: C_18  and  C_20
REMARK                            x       y       z     vdW  Elec       q    Type
REMARK                         _______ _______ _______ _____ _____    ______ ____
ROOT
ATOM      1  C   UNL     1      -0.246  -2.255  -3.256  0.00  0.00    +0.078 C 
ATOM      2  C   UNL     1      -1.478  -1.432  -2.870  0.00  0.00    +0.032 C 
ATOM      3  C   UNL     1      -2.112  -0.845  -4.135  0.00  0.00    +0.109 C 
ATOM      4  N   UNL     1      -2.387  -1.938  -5.077  0.00  0.00    -0.295 N 
ATOM      5  C   UNL     1      -1.292  -2.845  -5.446  0.00  0.00    +0.109 C 
ATOM      6  C   UNL     1      -0.667  -3.410  -4.167  0.00  0.00    +0.032 C 
ATOM      7  C   UNL     1      -3.620  -2.105  -5.593  0.00  0.00    +0.282 C 
ATOM      8  O   UNL     1      -4.502  -1.306  -5.336  0.00  0.00    -0.267 OA
ENDROOT
BRANCH   1  18
ATOM      9  C   UNL     1       3.505  -2.285   1.673  0.00  0.00    +0.039 C 
ATOM     10  C   UNL     1       2.965  -1.937   0.284  0.00  0.00    +0.133 C 
ATOM     11  C   UNL     1       1.538  -2.477   0.138  0.00  0.00    +0.139 C 
ATOM     12  N   UNL     1       0.977  -1.971  -1.124  0.00  0.00    -0.296 N 
ATOM     13  C   UNL     1       1.065  -0.526  -1.391  0.00  0.00    +0.142 C 
ATOM     14  C   UNL     1       2.515  -0.082  -1.171  0.00  0.00    +0.080 C 
ATOM     15  O   UNL     1       2.950  -0.517   0.119  0.00  0.00    -0.368 OA
ATOM     16  C   UNL     1       3.408  -0.701  -2.248  0.00  0.00    +0.043 C 
ATOM     17  C   UNL     1       2.599   1.444  -1.251  0.00  0.00    +0.043 C 
ATOM     18  C   UNL     1       0.399  -2.806  -2.010  0.00  0.00    +0.219 C 
ATOM     19  O   UNL     1       0.399  -4.002  -1.806  0.00  0.00    -0.275 OA
ENDBRANCH   1  18
BRANCH   7  20
ATOM     20  C   UNL     1      -3.901  -3.251  -6.466  0.00  0.00    +0.189 A 
ATOM     21  C   UNL     1      -5.127  -3.611  -6.947  0.00  0.00    +0.054 A 
ATOM     22  C   UNL     1      -4.931  -4.757  -7.734  0.00  0.00    +0.042 A 
ATOM     23  C   UNL     1      -3.610  -5.041  -7.699  0.00  0.00    +0.196 A 
ATOM     24  O   UNL     1      -2.992  -4.129  -6.938  0.00  0.00    -0.458 OA
ENDBRANCH   7  20
TORSDOF 2
