REMARK  Name = ZINC48644277
REMARK  5 active torsions:
REMARK  status: ('A' for Active; 'I' for Inactive)
REMARK    1  A    between atoms: C_1  and  N_2
REMARK    2  A    between atoms: N_5  and  C_6
REMARK    3  A    between atoms: N_5  and  C_7
REMARK    4  A    between atoms: C_7  and  C_8
REMARK    5  A    between atoms: C_7  and  C_14
REMARK                            x       y       z     vdW  Elec       q    Type
REMARK                         _______ _______ _______ _____ _____    ______ ____
ROOT
ATOM      1  C   UNL     1       1.028  -2.798  -2.091  0.00  0.00    +0.138 C 
ENDROOT
BRANCH   1   6
ATOM      2  C   UNL     1      -1.160   1.175  -0.315  0.00  0.00    +0.129 C 
ATOM      3  N   UNL     1      -0.387  -0.050  -0.100  0.00  0.00    -0.302 N 
ATOM      4  C   UNL     1      -0.050  -0.827  -1.149  0.00  0.00    +0.302 C 
ATOM      5  O   UNL     1      -0.388  -0.510  -2.273  0.00  0.00    -0.253 OA
ATOM      6  N   UNL     1       0.662  -1.954  -0.951  0.00  0.00    -0.278 N 
ATOM      7  C   UNL     1       1.069  -2.335   0.403  0.00  0.00    +0.134 C 
ATOM      8  H   UNL     1      -0.117  -0.303   0.797  0.00  0.00    +0.150 HD
ENDBRANCH   1   6
BRANCH   1   9
ATOM      9  C   UNL     1       1.895  -3.936  -1.616  0.00  0.00    -0.023 A 
ATOM     10  C   UNL     1       1.440  -4.785  -0.625  0.00  0.00    +0.006 A 
ATOM     11  C   UNL     1       2.235  -5.828  -0.189  0.00  0.00    +0.000 A 
ATOM     12  C   UNL     1       3.486  -6.022  -0.744  0.00  0.00    +0.000 A 
ATOM     13  C   UNL     1       3.941  -5.174  -1.736  0.00  0.00    +0.000 A 
ATOM     14  C   UNL     1       3.144  -4.133  -2.175  0.00  0.00    +0.006 A 
ENDBRANCH   1   9
BRANCH   1  15
ATOM     15  C   UNL     1      -0.220  -3.351  -2.729  0.00  0.00    -0.023 A 
ATOM     16  C   UNL     1      -1.280  -3.754  -1.938  0.00  0.00    +0.006 A 
ATOM     17  C   UNL     1      -2.425  -4.261  -2.522  0.00  0.00    +0.000 A 
ATOM     18  C   UNL     1      -2.511  -4.365  -3.898  0.00  0.00    +0.000 A 
ATOM     19  C   UNL     1      -1.452  -3.961  -4.689  0.00  0.00    +0.000 A 
ATOM     20  C   UNL     1      -0.308  -3.450  -4.105  0.00  0.00    +0.006 A 
ENDBRANCH   1  15
TORSDOF 3
