REMARK  Name = ZINC08704384
REMARK  9 active torsions:
REMARK  status: ('A' for Active; 'I' for Inactive)
REMARK    1  A    between atoms: C_1  and  C_2
REMARK    2  A    between atoms: C_3  and  C_14
REMARK    3  A    between atoms: C_4  and  C_12
REMARK    4  A    between atoms: C_5  and  N_7
REMARK    5  A    between atoms: N_16  and  C_17
REMARK    6  A    between atoms: C_17  and  C_18
REMARK    7  A    between atoms: C_18  and  N_19
REMARK    8  A    between atoms: N_19  and  C_20
REMARK    9  A    between atoms: C_23  and  C_25
REMARK                            x       y       z     vdW  Elec       q    Type
REMARK                         _______ _______ _______ _____ _____    ______ ____
ROOT
ATOM      1  C   UNL     1      -0.014   1.212   0.009  0.00  0.00    +0.249 C 
ATOM      2  O   UNL     1       0.002  -0.004   0.002  0.00  0.00    -0.270 OA
ATOM      3  N   UNL     1       1.143   1.902   0.001  0.00  0.00    -0.310 N 
ATOM      4  H   UNL     1       1.130   2.872   0.007  0.00  0.00    +0.149 HD
ENDROOT
BRANCH   1   7
ATOM      5  C   UNL     1      -1.609   2.097   2.542  0.00  0.00    +0.087 C 
ATOM      6  C   UNL     1      -2.011   2.326   1.108  0.00  0.00    +0.118 A 
ATOM      7  C   UNL     1      -1.299   1.931   0.019  0.00  0.00    +0.097 A 
ATOM      8  C   UNL     1      -2.082   2.379  -1.155  0.00  0.00    +0.127 A 
ATOM      9  C   UNL     1      -3.201   2.996  -0.632  0.00  0.00    +0.223 A 
ATOM     10  O   UNL     1      -3.124   2.950   0.705  0.00  0.00    -0.442 OA
BRANCH   9  11
ATOM     11  N   UNL     1      -4.228   3.573  -1.367  0.00  0.00    -0.293 N 
ATOM     12  C   UNL     1      -4.302   3.624  -2.732  0.00  0.00    +0.094 A 
ATOM     13  C   UNL     1      -5.444   4.256  -3.068  0.00  0.00    +0.020 A 
ATOM     14  C   UNL     1      -6.096   4.618  -1.872  0.00  0.00    +0.020 A 
ATOM     15  C   UNL     1      -5.333   4.189  -0.847  0.00  0.00    +0.094 A 
ENDBRANCH   9  11
BRANCH   8  16
ATOM     16  C   UNL     1      -1.751   2.208  -2.537  0.00  0.00    +0.105 C 
ATOM     17  N   UNL     1      -1.488   2.071  -3.634  0.00  0.00    -0.191 NA
ENDBRANCH   8  16
ENDBRANCH   1   7
BRANCH   3  18
ATOM     18  C   UNL     1       2.422   1.187  -0.015  0.00  0.00    +0.123 C 
BRANCH  18  19
ATOM     19  C   UNL     1       3.571   2.197  -0.020  0.00  0.00    +0.121 C 
BRANCH  19  20
ATOM     20  N   UNL     1       4.850   1.482  -0.036  0.00  0.00    -0.328 N 
ATOM     21  H   UNL     1       4.863   0.512  -0.042  0.00  0.00    +0.147 HD
BRANCH  20  22
ATOM     22  C   UNL     1       6.045   2.193  -0.044  0.00  0.00    +0.115 A 
ATOM     23  C   UNL     1       7.256   1.507  -0.053  0.00  0.00    +0.079 A 
ATOM     24  C   UNL     1       8.437   2.229  -0.067  0.00  0.00    +0.037 A 
ATOM     25  C   UNL     1       8.366   3.616  -0.058  0.00  0.00    +0.072 A 
ATOM     26  C   UNL     1       7.130   4.230  -0.043  0.00  0.00    +0.096 A 
ATOM     27 CL   UNL     1       7.285  -0.229  -0.055  0.00  0.00    -0.080 Cl
ATOM     28  N   UNL     1       5.950   3.554  -0.036  0.00  0.00    -0.348 N 
ATOM     29  H   UNL     1       5.045   4.038  -0.024  0.00  0.00    +0.167 HD
BRANCH  25  30
ATOM     30  C   UNL     1       9.627   4.442  -0.067  0.00  0.00    +0.419 C 
ATOM     31  F   UNL     1       9.293   5.801  -0.056  0.00  0.00    -0.166 F 
ATOM     32  F   UNL     1      10.389   4.140   1.067  0.00  0.00    -0.166 F 
ATOM     33  F   UNL     1      10.367   4.152  -1.218  0.00  0.00    -0.166 F 
ENDBRANCH  25  30
ENDBRANCH  20  22
ENDBRANCH  19  20
ENDBRANCH  18  19
ENDBRANCH   3  18
TORSDOF 8
