REMARK  Name = ZINC13296453
REMARK  7 active torsions:
REMARK  status: ('A' for Active; 'I' for Inactive)
REMARK    1  A    between atoms: C_1  and  C_2
REMARK    2  A    between atoms: C_2  and  C_4
REMARK    3  A    between atoms: C_2  and  S_18
REMARK    4  A    between atoms: C_4  and  C_6
REMARK    5  A    between atoms: C_15  and  C_17
REMARK    6  A    between atoms: S_18  and  C_19
REMARK    7  A    between atoms: N_23  and  C_28
REMARK                            x       y       z     vdW  Elec       q    Type
REMARK                         _______ _______ _______ _____ _____    ______ ____
ROOT
ATOM      1  S   UNL     1       1.690   1.708   0.002  0.00  0.00    -0.094 S 
ENDROOT
BRANCH   1   2
ATOM      2  C   UNL     1       2.310   0.886  -1.428  0.00  0.00    +0.112 A 
ATOM      3  C   UNL     1       3.640   1.079  -1.852  0.00  0.00    +0.071 A 
ATOM      4  C   UNL     1       4.735   1.831  -1.375  0.00  0.00    +0.147 A 
ATOM      5  N   UNL     1       5.752   1.629  -2.164  0.00  0.00    -0.172 NA
ATOM      6  N   UNL     1       5.388   0.742  -3.185  0.00  0.00    -0.214 N 
ATOM      7  C   UNL     1       4.081   0.391  -2.999  0.00  0.00    +0.167 A 
ATOM      8  N   UNL     1       3.225  -0.402  -3.641  0.00  0.00    -0.216 NA
ATOM      9  C   UNL     1       1.991  -0.546  -3.211  0.00  0.00    +0.224 A 
ATOM     10  N   UNL     1       1.533   0.074  -2.137  0.00  0.00    -0.228 NA
BRANCH   6  11
ATOM     11  C   UNL     1       6.221   0.291  -4.218  0.00  0.00    +0.068 A 
ATOM     12  C   UNL     1       6.097  -1.007  -4.695  0.00  0.00    +0.030 A 
ATOM     13  C   UNL     1       6.915  -1.448  -5.716  0.00  0.00    +0.040 A 
ATOM     14  C   UNL     1       7.866  -0.599  -6.258  0.00  0.00    +0.124 A 
ATOM     15  C   UNL     1       7.995   0.694  -5.780  0.00  0.00    +0.040 A 
ATOM     16  C   UNL     1       7.175   1.140  -4.762  0.00  0.00    +0.030 A 
ATOM     17  F   UNL     1       8.669  -1.033  -7.254  0.00  0.00    -0.205 F 
ENDBRANCH   6  11
ENDBRANCH   1   2
BRANCH   1  19
ATOM     18  C   UNL     1      -0.746   1.587  -1.228  0.00  0.00    +0.028 C 
ATOM     19  C   UNL     1      -0.008   1.082   0.013  0.00  0.00    +0.121 C 
BRANCH  19  20
ATOM     20  C   UNL     1      -0.715   1.569   1.251  0.00  0.00    +0.176 C 
ATOM     21  O   UNL     1      -0.345   2.586   1.800  0.00  0.00    -0.291 OA
BRANCH  20  22
ATOM     22  C   UNL     1      -1.852   0.814   1.792  0.00  0.00    +0.019 A 
ATOM     23  C   UNL     1      -2.284  -0.360   1.163  0.00  0.00    +0.013 A 
ATOM     24  C   UNL     1      -3.339  -1.060   1.667  0.00  0.00    +0.024 A 
ATOM     25  C   UNL     1      -4.004  -0.618   2.817  0.00  0.00    +0.040 A 
ATOM     26  C   UNL     1      -3.578   0.547   3.443  0.00  0.00    -0.024 A 
ATOM     27  C   UNL     1      -2.510   1.259   2.946  0.00  0.00    +0.017 A 
ATOM     28  C   UNL     1      -4.458   0.794   4.648  0.00  0.00    +0.056 C 
ATOM     29  C   UNL     1      -5.454  -0.377   4.643  0.00  0.00    +0.118 C 
ATOM     30  N   UNL     1      -5.090  -1.187   3.478  0.00  0.00    -0.271 N 
ATOM     31  C   UNL     1      -5.715  -2.320   3.101  0.00  0.00    +0.217 C 
ATOM     32  O   UNL     1      -5.399  -2.872   2.068  0.00  0.00    -0.276 OA
ATOM     33  C   UNL     1      -6.806  -2.901   3.962  0.00  0.00    +0.109 C 
ENDBRANCH  20  22
ENDBRANCH  19  20
ENDBRANCH   1  19
TORSDOF 5
