REMARK  Name = ZINC48524761
REMARK  3 active torsions:
REMARK  status: ('A' for Active; 'I' for Inactive)
REMARK    1  A    between atoms: C_5  and  O_7
REMARK    2  A    between atoms: O_7  and  C_8
REMARK    3  A    between atoms: C_8  and  C_10
REMARK                            x       y       z     vdW  Elec       q    Type
REMARK                         _______ _______ _______ _____ _____    ______ ____
ROOT
ATOM      1  C   UNL     1       0.063  -2.689   0.089  0.00  0.00    +0.354 C 
ATOM      2  O   UNL     1      -0.973  -2.068   0.102  0.00  0.00    -0.246 OA
ENDROOT
BRANCH   1   3
ATOM      3  C   UNL     1       0.043  -4.192   0.199  0.00  0.00    +0.286 C 
ATOM      4  C   UNL     1       0.661  -4.652   1.540  0.00  0.00    +0.095 C 
ATOM      5  C   UNL     1      -0.205  -5.846   1.891  0.00  0.00    -0.000 A 
ATOM      6  C   UNL     1      -0.043  -6.873   2.795  0.00  0.00    +0.027 A 
ATOM      7  C   UNL     1      -1.010  -7.857   2.905  0.00  0.00    +0.041 A 
ATOM      8  C   UNL     1      -2.138  -7.803   2.106  0.00  0.00    +0.023 A 
ATOM      9  C   UNL     1      -2.304  -6.773   1.203  0.00  0.00    +0.047 A 
ATOM     10  C   UNL     1      -1.337  -5.778   1.088  0.00  0.00    +0.125 A 
ATOM     11  O   UNL     1      -1.308  -4.678   0.283  0.00  0.00    -0.477 OA
ATOM     12 CL   UNL     1      -0.809  -9.153   4.043  0.00  0.00    -0.084 Cl
ENDBRANCH   1   3
BRANCH   1  13
ATOM     13  O   UNL     1       1.233  -2.040  -0.022  0.00  0.00    -0.420 OA
BRANCH  13  18
ATOM     14  C   UNL     1       1.250   1.411  -1.177  0.00  0.00    +0.004 A 
ATOM     15  C   UNL     1       1.174   2.087   0.027  0.00  0.00    +0.003 A 
ATOM     16  C   UNL     1       1.118   1.383   1.216  0.00  0.00    +0.042 A 
ATOM     17  C   UNL     1       1.137   0.000   1.203  0.00  0.00    +0.166 A 
ATOM     18  C   UNL     1       1.213  -0.680  -0.006  0.00  0.00    +0.167 A 
ATOM     19  C   UNL     1       1.270   0.029  -1.196  0.00  0.00    +0.049 A 
ATOM     20  F   UNL     1       1.083  -0.688   2.364  0.00  0.00    -0.202 F 
ENDBRANCH  13  18
ENDBRANCH   1  13
TORSDOF 3
