REMARK  Name = ZINC15678556
REMARK  7 active torsions:
REMARK  status: ('A' for Active; 'I' for Inactive)
REMARK    1  A    between atoms: C_1  and  C_2
REMARK    2  A    between atoms: C_5  and  N_8
REMARK    3  A    between atoms: N_8  and  C_9
REMARK    4  A    between atoms: C_10  and  C_12
REMARK    5  A    between atoms: C_12  and  N_13
REMARK    6  A    between atoms: C_16  and  S_24
REMARK    7  A    between atoms: S_24  and  N_27
REMARK                            x       y       z     vdW  Elec       q    Type
REMARK                         _______ _______ _______ _____ _____    ______ ____
ROOT
ATOM      1  N   UNL     1       2.389   3.919   0.003  0.00  0.00    -0.261 N 
ATOM      2  C   UNL     1       1.215   3.171  -0.021  0.00  0.00    +0.052 A 
ATOM      3  C   UNL     1      -0.013   3.823  -0.026  0.00  0.00    +0.053 A 
ATOM      4  C   UNL     1      -1.187   3.096  -0.044  0.00  0.00    +0.107 A 
ATOM      5  C   UNL     1      -1.155   1.714  -0.062  0.00  0.00    +0.030 A 
ATOM      6  C   UNL     1       0.059   1.051  -0.053  0.00  0.00    +0.018 A 
ATOM      7  C   UNL     1       1.239   1.775  -0.036  0.00  0.00    +0.030 A 
ATOM      8  S   UNL     1       2.795   0.942  -0.041  0.00  0.00    -0.114 S 
ATOM      9  C   UNL     1       3.872   2.124  -0.906  0.00  0.00    +0.170 C 
ATOM     10  C   UNL     1       3.593   3.507  -0.383  0.00  0.00    +0.230 C 
ATOM     11  O   UNL     1       4.518   4.289  -0.308  0.00  0.00    -0.274 OA
ENDROOT
BRANCH   4  12
ATOM     12  S   UNL     1      -2.736   3.936  -0.051  0.00  0.00    +0.061 S 
ATOM     13  O   UNL     1      -3.692   3.030   0.483  0.00  0.00    -0.153 OA
ATOM     14  O   UNL     1      -2.505   5.219   0.514  0.00  0.00    -0.153 OA
BRANCH  12  15
ATOM     15  N   UNL     1      -3.151   4.184  -1.635  0.00  0.00    -0.177 NA
ATOM     16  C   UNL     1      -2.803   5.365  -2.437  0.00  0.00    +0.109 C 
ATOM     17  C   UNL     1      -3.421   5.167  -3.837  0.00  0.00    +0.018 C 
ATOM     18  C   UNL     1      -4.565   4.154  -3.569  0.00  0.00    +0.018 C 
ATOM     19  C   UNL     1      -3.938   3.260  -2.471  0.00  0.00    +0.109 C 
ENDBRANCH  12  15
ENDBRANCH   4  12
BRANCH   1  20
ATOM     20  C   UNL     1       2.287   5.293   0.500  0.00  0.00    +0.209 C 
BRANCH  20  23
ATOM     21  N   UNL     1       1.991   7.561  -0.443  0.00  0.00    -0.273 N 
ATOM     22  C   UNL     1       2.155   8.097   0.911  0.00  0.00    +0.138 C 
ATOM     23  C   UNL     1       2.107   6.236  -0.662  0.00  0.00    +0.237 C 
ATOM     24  O   UNL     1       2.068   5.803  -1.794  0.00  0.00    -0.274 OA
BRANCH  21  29
ATOM     25  C   UNL     1       0.862  11.062  -4.762  0.00  0.00    +0.044 C 
ATOM     26  C   UNL     1       1.162  10.132  -3.614  0.00  0.00    -0.050 A 
ATOM     27  C   UNL     1       0.220   9.202  -3.216  0.00  0.00    +0.005 A 
ATOM     28  C   UNL     1       0.491   8.348  -2.165  0.00  0.00    +0.024 A 
ATOM     29  C   UNL     1       1.712   8.424  -1.508  0.00  0.00    +0.036 A 
ATOM     30  C   UNL     1       2.655   9.363  -1.908  0.00  0.00    +0.024 A 
ATOM     31  C   UNL     1       2.379  10.210  -2.963  0.00  0.00    +0.005 A 
ENDBRANCH  21  29
ENDBRANCH  20  23
ENDBRANCH   1  20
TORSDOF 5
