REMARK  Name = ZINC04867339
REMARK  3 active torsions:
REMARK  status: ('A' for Active; 'I' for Inactive)
REMARK    1  A    between atoms: C_1  and  C_2
REMARK    2  A    between atoms: C_2  and  C_3
REMARK    3  A    between atoms: N_8  and  C_9
REMARK                            x       y       z     vdW  Elec       q    Type
REMARK                         _______ _______ _______ _____ _____    ______ ____
ROOT
ATOM      1  C   UNL     1      -1.295   2.098   0.020  0.00  0.00    +0.298 C 
ATOM      2  C   UNL     1      -1.221   3.302  -0.885  0.00  0.00    +0.025 A 
ATOM      3  C   UNL     1      -0.989   3.460  -2.231  0.00  0.00    +0.010 A 
ATOM      4  C   UNL     1      -0.983   4.728  -2.788  0.00  0.00    +0.000 A 
ATOM      5  C   UNL     1      -1.209   5.838  -1.994  0.00  0.00    +0.001 A 
ATOM      6  C   UNL     1      -1.443   5.692  -0.642  0.00  0.00    +0.015 A 
ATOM      7  C   UNL     1      -1.451   4.417  -0.074  0.00  0.00    +0.067 A 
ATOM      8  C   UNL     1      -1.665   3.942   1.305  0.00  0.00    +0.342 C 
ATOM      9  O   UNL     1      -1.892   4.659   2.260  0.00  0.00    -0.245 OA
ATOM     10  O   UNL     1      -1.574   2.603   1.354  0.00  0.00    -0.435 OA
ENDROOT
BRANCH   1  16
ATOM     11  C   UNL     1       0.407  -2.636  -0.016  0.00  0.00    +0.103 A 
ATOM     12  N   UNL     1      -0.804  -2.117  -0.002  0.00  0.00    -0.145 NA
ATOM     13  N   UNL     1      -1.002  -0.871   0.006  0.00  0.00    -0.126 NA
ATOM     14  C   UNL     1       0.002  -0.004   0.002  0.00  0.00    +0.184 A 
ATOM     15  S   UNL     1       1.388  -1.137  -0.025  0.00  0.00    -0.036 S 
ATOM     16  N   UNL     1      -0.017   1.383   0.010  0.00  0.00    -0.283 N 
ATOM     17  H   UNL     1       0.817   1.879   0.004  0.00  0.00    +0.152 HD
BRANCH  11  19
ATOM     18  C   UNL     1       0.977  -4.559  -1.474  0.00  0.00    +0.011 C 
ATOM     19  C   UNL     1       0.843  -4.078  -0.028  0.00  0.00    +0.061 C 
ENDBRANCH  11  19
ENDBRANCH   1  16
TORSDOF 2
