REMARK  Name = ZINC15012603
REMARK  8 active torsions:
REMARK  status: ('A' for Active; 'I' for Inactive)
REMARK    1  A    between atoms: C_1  and  C_2
REMARK    2  A    between atoms: C_5  and  N_8
REMARK    3  A    between atoms: C_9  and  C_11
REMARK    4  A    between atoms: C_11  and  N_12
REMARK    5  A    between atoms: C_16  and  C_17
REMARK    6  A    between atoms: C_19  and  O_25
REMARK    7  A    between atoms: C_20  and  O_24
REMARK    8  A    between atoms: O_25  and  C_26
REMARK                            x       y       z     vdW  Elec       q    Type
REMARK                         _______ _______ _______ _____ _____    ______ ____
ROOT
ATOM      1  N   UNL     1      -2.529   8.871  -0.308  0.00  0.00    -0.219 N 
ATOM      2  C   UNL     1      -3.190   9.128   0.808  0.00  0.00    +0.261 C 
ATOM      3  O   UNL     1      -2.614   9.311   1.865  0.00  0.00    -0.269 OA
ATOM      4  C   UNL     1      -4.662   9.183   0.707  0.00  0.00    +0.080 C 
ATOM      5  C   UNL     1      -5.587   9.423   1.671  0.00  0.00    +0.028 C 
ATOM      6  S   UNL     1      -4.891   8.847  -1.033  0.00  0.00    -0.026 S 
ATOM      7  C   UNL     1      -3.171   8.676  -1.478  0.00  0.00    +0.286 C 
ATOM      8  O   UNL     1      -2.693   8.438  -2.571  0.00  0.00    -0.262 OA
ENDROOT
BRANCH   5   9
ATOM      9  C   UNL     1      -5.179   9.482   3.081  0.00  0.00    -0.019 A 
ATOM     10  C   UNL     1      -4.256   8.557   3.585  0.00  0.00    +0.057 A 
ATOM     11  C   UNL     1      -3.872   8.621   4.909  0.00  0.00    +0.163 A 
ATOM     12  C   UNL     1      -4.412   9.597   5.746  0.00  0.00    +0.177 A 
ATOM     13  C   UNL     1      -5.333  10.511   5.250  0.00  0.00    +0.087 A 
ATOM     14  C   UNL     1      -5.717  10.459   3.927  0.00  0.00    +0.032 A 
ATOM     15 CL   UNL     1      -6.000  11.723   6.299  0.00  0.00    -0.080 Cl
BRANCH  12  16
ATOM     16  O   UNL     1      -4.037   9.654   7.051  0.00  0.00    -0.502 OA
ATOM     17  H   UNL     1      -4.587   9.122   7.642  0.00  0.00    +0.292 HD
ENDBRANCH  12  16
BRANCH  11  18
ATOM     18  O   UNL     1      -2.970   7.729   5.399  0.00  0.00    -0.491 OA
ATOM     19  C   UNL     1      -2.457   6.757   4.486  0.00  0.00    +0.277 C 
ENDBRANCH  11  18
ENDBRANCH   5   9
BRANCH   1  20
ATOM     20  C   UNL     1      -1.066   8.804  -0.274  0.00  0.00    +0.213 C 
BRANCH  20  22
ATOM     21  N   UNL     1       0.676   7.088   0.095  0.00  0.00    -0.284 N 
ATOM     22  C   UNL     1      -0.635   7.390   0.016  0.00  0.00    +0.235 C 
ATOM     23  O   UNL     1      -1.468   6.523   0.178  0.00  0.00    -0.274 OA
ATOM     24  H   UNL     1       1.341   7.793   0.045  0.00  0.00    +0.155 HD
BRANCH  21  29
ATOM     25  C   UNL     1       2.311   1.691   0.722  0.00  0.00    +0.044 C 
ATOM     26  C   UNL     1       1.877   3.125   0.555  0.00  0.00    -0.050 A 
ATOM     27  C   UNL     1       2.655   4.146   1.069  0.00  0.00    +0.005 A 
ATOM     28  C   UNL     1       2.263   5.461   0.913  0.00  0.00    +0.023 A 
ATOM     29  C   UNL     1       1.080   5.757   0.249  0.00  0.00    +0.033 A 
ATOM     30  C   UNL     1       0.297   4.729  -0.261  0.00  0.00    +0.023 A 
ATOM     31  C   UNL     1       0.698   3.416  -0.106  0.00  0.00    +0.005 A 
ENDBRANCH  21  29
ENDBRANCH  20  22
ENDBRANCH   1  20
TORSDOF 6
