REMARK  Name = ZINC65995176
REMARK  6 active torsions:
REMARK  status: ('A' for Active; 'I' for Inactive)
REMARK    1  A    between atoms: C_1  and  C_2
REMARK    2  A    between atoms: C_2  and  C_3
REMARK    3  A    between atoms: C_2  and  N_15
REMARK    4  A    between atoms: C_6  and  N_9
REMARK    5  A    between atoms: N_21  and  S_24
REMARK    6  A    between atoms: S_24  and  C_27
REMARK                            x       y       z     vdW  Elec       q    Type
REMARK                         _______ _______ _______ _____ _____    ______ ____
ROOT
ATOM      1  C   UNL     1      -0.109   1.514  -0.088  0.00  0.00    +0.033 C 
ATOM      2  C   UNL     1       0.058  -0.006  -0.036  0.00  0.00    +0.102 C 
ENDROOT
BRANCH   2   3
ATOM      3  N   UNL     1      -1.247  -0.633   0.191  0.00  0.00    -0.293 N 
ATOM      4  C   UNL     1      -2.063  -0.888  -0.851  0.00  0.00    +0.303 C 
ATOM      5  O   UNL     1      -1.679  -0.686  -1.987  0.00  0.00    -0.253 OA
ATOM      6  N   UNL     1      -3.304  -1.366  -0.634  0.00  0.00    -0.283 N 
ATOM      7  C   UNL     1      -3.826  -1.498   0.733  0.00  0.00    +0.126 C 
ATOM      8  C   UNL     1      -5.151  -0.731   0.828  0.00  0.00    +0.128 C 
ATOM      9  N   UNL     1      -6.006  -1.130  -0.298  0.00  0.00    -0.178 NA
ATOM     10  C   UNL     1      -5.484  -0.998  -1.666  0.00  0.00    +0.128 C 
ATOM     11  C   UNL     1      -4.161  -1.760  -1.761  0.00  0.00    +0.126 C 
ATOM     12  H   UNL     1      -1.524  -0.865   1.091  0.00  0.00    +0.151 HD
BRANCH   9  13
ATOM     13  S   UNL     1      -7.531  -1.718  -0.032  0.00  0.00    +0.029 S 
ATOM     14  O   UNL     1      -7.806  -2.537  -1.160  0.00  0.00    -0.158 OA
ATOM     15  O   UNL     1      -7.481  -2.277   1.274  0.00  0.00    -0.158 OA
ATOM     16  C   UNL     1      -8.604  -0.255  -0.045  0.00  0.00    +0.215 C 
ENDBRANCH   9  13
ENDBRANCH   2   3
BRANCH   2  17
ATOM     17  C   UNL     1       0.993  -0.371   1.088  0.00  0.00    -0.027 A 
ATOM     18  C   UNL     1       0.523  -0.417   2.388  0.00  0.00    +0.007 A 
ATOM     19  C   UNL     1       1.378  -0.750   3.421  0.00  0.00    +0.024 A 
ATOM     20  C   UNL     1       2.709  -1.040   3.152  0.00  0.00    +0.036 A 
ATOM     21  C   UNL     1       3.177  -0.994   1.846  0.00  0.00    +0.024 A 
ATOM     22  C   UNL     1       2.317  -0.664   0.817  0.00  0.00    +0.007 A 
BRANCH  20  23
ATOM     23  N   UNL     1       3.577  -1.378   4.196  0.00  0.00    -0.271 N 
ATOM     24  C   UNL     1       4.970  -1.804   4.011  0.00  0.00    +0.114 C 
ATOM     25  C   UNL     1       5.638  -1.643   5.394  0.00  0.00    +0.029 C 
ATOM     26  C   UNL     1       4.426  -1.768   6.346  0.00  0.00    +0.098 C 
ATOM     27  C   UNL     1       3.245  -1.349   5.498  0.00  0.00    +0.220 C 
ATOM     28  O   UNL     1       2.156  -1.035   5.931  0.00  0.00    -0.275 OA
ENDBRANCH  20  23
ENDBRANCH   2  17
TORSDOF 4
