REMARK  Name = ZINC06062008
REMARK  7 active torsions:
REMARK  status: ('A' for Active; 'I' for Inactive)
REMARK    1  A    between atoms: C_1  and  C_2
REMARK    2  A    between atoms: C_2  and  C_4
REMARK    3  A    between atoms: C_2  and  N_12
REMARK    4  A    between atoms: C_13  and  C_15
REMARK    5  A    between atoms: C_15  and  O_16
REMARK    6  A    between atoms: O_16  and  C_17
REMARK    7  A    between atoms: C_20  and  N_24
REMARK                            x       y       z     vdW  Elec       q    Type
REMARK                         _______ _______ _______ _____ _____    ______ ____
ROOT
ATOM      1  N   UNL     1       3.910  -2.192  -0.049  0.00  0.00    -0.306 N 
ATOM      2  C   UNL     1       3.713  -0.859  -0.040  0.00  0.00    +0.251 C 
ATOM      3  O   UNL     1       4.664  -0.106  -0.044  0.00  0.00    -0.272 OA
ATOM      4  H   UNL     1       3.150  -2.794  -0.045  0.00  0.00    +0.149 HD
ENDROOT
BRANCH   1   6
ATOM      5  C   UNL     1       5.778  -2.794  -1.508  0.00  0.00    +0.033 C 
ATOM      6  C   UNL     1       5.272  -2.732  -0.066  0.00  0.00    +0.100 C 
BRANCH   6   7
ATOM      7  C   UNL     1       5.271  -4.117   0.527  0.00  0.00    -0.026 A 
ATOM      8  C   UNL     1       6.301  -4.514   1.359  0.00  0.00    +0.007 A 
ATOM      9  C   UNL     1       6.301  -5.785   1.903  0.00  0.00    +0.022 A 
ATOM     10  C   UNL     1       5.269  -6.660   1.615  0.00  0.00    +0.059 A 
ATOM     11  C   UNL     1       4.237  -6.263   0.783  0.00  0.00    +0.060 A 
ATOM     12  C   UNL     1       4.236  -4.989   0.244  0.00  0.00    +0.027 A 
ATOM     13 CL   UNL     1       2.941  -7.360   0.421  0.00  0.00    -0.082 Cl
ATOM     14 CL   UNL     1       5.269  -8.256   2.298  0.00  0.00    -0.082 Cl
ENDBRANCH   6   7
ENDBRANCH   1   6
BRANCH   2  15
ATOM     15  C   UNL     1       2.312  -0.304  -0.023  0.00  0.00    +0.324 C 
BRANCH  15  16
ATOM     16  O   UNL     1       2.366   1.124  -0.015  0.00  0.00    -0.481 OA
BRANCH  16  17
ATOM     17  C   UNL     1       1.179   1.786   0.000  0.00  0.00    +0.140 A 
ATOM     18  C   UNL     1      -0.013   1.076   0.008  0.00  0.00    +0.049 A 
ATOM     19  C   UNL     1      -1.218   1.751   0.017  0.00  0.00    +0.036 A 
ATOM     20  C   UNL     1      -1.238   3.133   0.030  0.00  0.00    +0.128 A 
ATOM     21  C   UNL     1      -0.052   3.844   0.023  0.00  0.00    +0.056 A 
ATOM     22  C   UNL     1       1.157   3.174   0.008  0.00  0.00    +0.085 A 
ATOM     23 CL   UNL     1       2.645   4.067  -0.002  0.00  0.00    -0.080 Cl
BRANCH  20  24
ATOM     24  N   UNL     1      -2.531   3.853   0.046  0.00  0.00    +0.056 N 
ATOM     25  O   UNL     1      -2.550   5.071   0.053  0.00  0.00    -0.126 OA
ATOM     26  O   UNL     1      -3.576   3.228   0.052  0.00  0.00    -0.126 OA
ENDBRANCH  20  24
ENDBRANCH  16  17
ENDBRANCH  15  16
ENDBRANCH   2  15
TORSDOF 6
