REMARK  Name = ZINC57580050
REMARK  4 active torsions:
REMARK  status: ('A' for Active; 'I' for Inactive)
REMARK    1  A    between atoms: C_1  and  C_2
REMARK    2  A    between atoms: C_2  and  C_3
REMARK    3  A    between atoms: N_9  and  C_10
REMARK    4  A    between atoms: C_19  and  O_21
REMARK                            x       y       z     vdW  Elec       q    Type
REMARK                         _______ _______ _______ _____ _____    ______ ____
ROOT
ATOM      1  C   UNL     1      -1.419   0.489  -2.250  0.00  0.00    +0.032 A 
ATOM      2  C   UNL     1      -1.170   0.049  -3.545  0.00  0.00    +0.023 A 
ATOM      3  C   UNL     1      -0.572   0.899  -4.456  0.00  0.00    +0.010 A 
ATOM      4  C   UNL     1      -0.225   2.178  -4.079  0.00  0.00    +0.011 A 
ATOM      5  C   UNL     1      -0.467   2.633  -2.789  0.00  0.00    +0.041 A 
ATOM      6  C   UNL     1      -1.074   1.778  -1.873  0.00  0.00    +0.046 A 
ATOM      7  N   UNL     1      -0.030   3.951  -2.652  0.00  0.00    -0.283 N 
ATOM      8  C   UNL     1       0.504   4.431  -3.788  0.00  0.00    +0.250 C 
ATOM      9  O   UNL     1       0.963   5.541  -3.956  0.00  0.00    -0.272 OA
ATOM     10  C   UNL     1       0.427   3.325  -4.818  0.00  0.00    +0.232 C 
ATOM     11  H   UNL     1      -0.103   4.463  -1.831  0.00  0.00    +0.155 HD
ENDROOT
BRANCH   1  17
ATOM     12  C   UNL     1      -1.210  -1.237  -0.468  0.00  0.00    +0.073 C 
ATOM     13  C   UNL     1      -1.694  -2.682  -0.623  0.00  0.00    +0.022 C 
ATOM     14  C   UNL     1      -3.197  -2.746  -0.338  0.00  0.00    +0.003 C 
ATOM     15  C   UNL     1      -3.946  -1.874  -1.348  0.00  0.00    +0.019 C 
ATOM     16  C   UNL     1      -3.487  -0.420  -1.201  0.00  0.00    +0.105 C 
ATOM     17  N   UNL     1      -2.024  -0.368  -1.328  0.00  0.00    -0.327 N 
BRANCH  12  19
ATOM     18  C   UNL     1       1.122  -1.935   0.097  0.00  0.00    +0.006 C 
ATOM     19  C   UNL     1       0.259  -1.141  -0.886  0.00  0.00    +0.019 C 
ENDBRANCH  12  19
ENDBRANCH   1  17
BRANCH  10  20
ATOM     20  O   UNL     1      -0.380   3.728  -5.927  0.00  0.00    -0.378 OA
ATOM     21  H   UNL     1      -0.009   4.461  -6.437  0.00  0.00    +0.211 HD
ENDBRANCH  10  20
TORSDOF 3
