REMARK  Name = ZINC14184667
REMARK  4 active torsions:
REMARK  status: ('A' for Active; 'I' for Inactive)
REMARK    1  A    between atoms: C_1  and  C_2
REMARK    2  A    between atoms: N_11  and  C_15
REMARK    3  A    between atoms: C_15  and  N_16
REMARK    4  A    between atoms: C_20  and  C_22
REMARK                            x       y       z     vdW  Elec       q    Type
REMARK                         _______ _______ _______ _____ _____    ______ ____
ROOT
ATOM      1  C   UNL     1      -0.592   1.508   0.180  0.00  0.00    +0.010 C 
ATOM      2  C   UNL     1      -0.715  -0.017   0.225  0.00  0.00    +0.018 C 
ATOM      3  C   UNL     1      -2.184  -0.404   0.411  0.00  0.00    +0.006 C 
ATOM      4  C   UNL     1      -2.304  -1.928   0.476  0.00  0.00    +0.000 C 
ATOM      5  C   UNL     1      -1.494  -2.454   1.663  0.00  0.00    +0.003 C 
ATOM      6  C   UNL     1      -0.022  -2.075   1.482  0.00  0.00    +0.035 C 
ATOM      7  C   UNL     1       0.107  -0.559   1.389  0.00  0.00    +0.115 C 
ATOM      8  C   UNL     1      -0.322   0.089   2.685  0.00  0.00    +0.248 C 
ATOM      9  O   UNL     1      -1.417   0.037   3.204  0.00  0.00    -0.273 OA
ATOM     10  N   UNL     1       0.769   0.736   3.144  0.00  0.00    -0.211 N 
ATOM     11  C   UNL     1       1.814   0.585   2.321  0.00  0.00    +0.310 C 
ATOM     12  O   UNL     1       2.908   1.075   2.520  0.00  0.00    -0.252 OA
ATOM     13  N   UNL     1       1.517  -0.171   1.247  0.00  0.00    -0.285 N 
ATOM     14  H   UNL     1       2.115  -0.413   0.522  0.00  0.00    +0.151 HD
ENDROOT
BRANCH  10  15
ATOM     15  C   UNL     1       0.806   1.509   4.388  0.00  0.00    +0.205 C 
BRANCH  15  16
ATOM     16  N   UNL     1       1.201   0.632   5.498  0.00  0.00    -0.279 NA
ATOM     17  C   UNL     1       0.040  -0.124   6.014  0.00  0.00    +0.086 C 
ATOM     18  C   UNL     1       0.306  -0.268   7.534  0.00  0.00    +0.017 C 
ATOM     19  C   UNL     1       0.956   1.100   7.869  0.00  0.00    +0.025 C 
ATOM     20  C   UNL     1       1.785   1.411   6.605  0.00  0.00    +0.088 C 
BRANCH  20  21
ATOM     21  C   UNL     1       1.710   2.883   6.292  0.00  0.00    -0.030 A 
ATOM     22  C   UNL     1       0.480   3.494   6.136  0.00  0.00    +0.005 A 
ATOM     23  C   UNL     1       0.411   4.845   5.848  0.00  0.00    +0.000 A 
ATOM     24  C   UNL     1       1.571   5.584   5.718  0.00  0.00    +0.000 A 
ATOM     25  C   UNL     1       2.801   4.972   5.875  0.00  0.00    +0.000 A 
ATOM     26  C   UNL     1       2.870   3.623   6.166  0.00  0.00    +0.005 A 
ENDBRANCH  20  21
ENDBRANCH  15  16
ENDBRANCH  10  15
TORSDOF 3
