REMARK  Name = ZINC14333434
REMARK  5 active torsions:
REMARK  status: ('A' for Active; 'I' for Inactive)
REMARK    1  A    between atoms: C_1  and  C_2
REMARK    2  A    between atoms: C_4  and  C_14
REMARK    3  A    between atoms: N_16  and  N_17
REMARK    4  A    between atoms: C_18  and  C_20
REMARK    5  A    between atoms: N_22  and  C_29
REMARK                            x       y       z     vdW  Elec       q    Type
REMARK                         _______ _______ _______ _____ _____    ______ ____
ROOT
ATOM      1  C   UNL     1      -1.479   3.204   1.712  0.00  0.00    +0.274 C 
ATOM      2  O   UNL     1      -1.444   2.079   2.164  0.00  0.00    -0.270 OA
ATOM      3  N   UNL     1      -1.568   4.262   2.543  0.00  0.00    -0.231 N 
ATOM      4  H   UNL     1      -1.670   5.156   2.181  0.00  0.00    +0.173 HD
ENDROOT
BRANCH   1   7
ATOM      5  C   UNL     1       0.102   5.379   0.554  0.00  0.00    +0.056 C 
ATOM      6  C   UNL     1      -0.072   4.038  -0.162  0.00  0.00    +0.220 C 
ATOM      7  C   UNL     1      -1.423   3.419   0.222  0.00  0.00    +0.300 C 
ATOM      8  O   UNL     1      -1.548   2.163  -0.455  0.00  0.00    -0.472 OA
ATOM      9  C   UNL     1      -0.468   1.335  -0.410  0.00  0.00    +0.163 A 
ATOM     10  C   UNL     1      -0.626  -0.008  -0.714  0.00  0.00    +0.049 A 
ATOM     11  C   UNL     1       0.463  -0.859  -0.681  0.00  0.00    +0.004 A 
ATOM     12  C   UNL     1       1.712  -0.373  -0.344  0.00  0.00    +0.004 A 
ATOM     13  C   UNL     1       1.877   0.965  -0.039  0.00  0.00    +0.049 A 
ATOM     14  C   UNL     1       0.788   1.823  -0.069  0.00  0.00    +0.163 A 
ATOM     15  O   UNL     1       0.965   3.137   0.241  0.00  0.00    -0.481 OA
ENDBRANCH   1   7
BRANCH   3  16
ATOM     16  N   UNL     1      -1.513   4.070   3.930  0.00  0.00    -0.230 N 
ATOM     17  C   UNL     1      -1.602   5.127   4.760  0.00  0.00    +0.262 C 
ATOM     18  O   UNL     1      -1.730   6.249   4.306  0.00  0.00    -0.269 OA
ATOM     19  H   UNL     1      -1.411   3.176   4.292  0.00  0.00    +0.173 HD
BRANCH  17  20
ATOM     20  C   UNL     1      -1.544   4.926   6.214  0.00  0.00    +0.063 A 
ATOM     21  C   UNL     1      -1.410   3.738   6.869  0.00  0.00    +0.099 A 
ATOM     22  N   UNL     1      -1.393   3.951   8.207  0.00  0.00    -0.349 N 
ATOM     23  C   UNL     1      -1.526   5.296   8.482  0.00  0.00    +0.050 A 
ATOM     24  C   UNL     1      -1.626   5.969   7.254  0.00  0.00    +0.012 A 
ATOM     25  C   UNL     1      -1.771   7.354   7.225  0.00  0.00    +0.011 A 
ATOM     26  C   UNL     1      -1.816   8.059   8.408  0.00  0.00    +0.001 A 
ATOM     27  C   UNL     1      -1.716   7.396   9.623  0.00  0.00    +0.002 A 
ATOM     28  C   UNL     1      -1.572   6.026   9.665  0.00  0.00    +0.026 A 
ATOM     29  C   UNL     1      -1.259   2.900   9.219  0.00  0.00    +0.149 C 
ENDBRANCH  17  20
ENDBRANCH   3  16
TORSDOF 3
