REMARK  Name = ZINC55161987
REMARK  9 active torsions:
REMARK  status: ('A' for Active; 'I' for Inactive)
REMARK    1  A    between atoms: C_1  and  C_2
REMARK    2  A    between atoms: C_2  and  C_3
REMARK    3  A    between atoms: C_2  and  C_10
REMARK    4  A    between atoms: C_2  and  O_13
REMARK    5  A    between atoms: C_3  and  C_4
REMARK    6  A    between atoms: O_13  and  C_14
REMARK    7  A    between atoms: C_16  and  N_37
REMARK    8  A    between atoms: C_18  and  O_36
REMARK    9  A    between atoms: C_26  and  C_30
REMARK                            x       y       z     vdW  Elec       q    Type
REMARK                         _______ _______ _______ _____ _____    ______ ____
ROOT
ATOM      1  C   UNL     1      -0.044   0.066  -2.538  0.00  0.00    +0.141 C 
ATOM      2  C   UNL     1      -1.051  -0.891  -3.189  0.00  0.00    +0.014 C 
ATOM      3  C   UNL     1      -1.485  -0.336  -4.547  0.00  0.00    +0.236 C 
ATOM      4  O   UNL     1      -0.338  -0.115  -5.375  0.00  0.00    -0.345 OA
ATOM      5  C   UNL     1       0.585   0.822  -4.823  0.00  0.00    +0.178 C 
ATOM      6  C   UNL     1       1.127   0.270  -3.498  0.00  0.00    +0.180 C 
ATOM      7  O   UNL     1       2.073   1.198  -2.967  0.00  0.00    -0.339 OA
ATOM      8  C   UNL     1       3.174   1.442  -3.850  0.00  0.00    +0.282 C 
ATOM      9  O   UNL     1       2.699   1.934  -5.104  0.00  0.00    -0.345 OA
ATOM     10  C   UNL     1       1.766   1.056  -5.766  0.00  0.00    +0.197 C 
ENDROOT
BRANCH   8  11
ATOM     11  C   UNL     1       3.931   0.158  -4.073  0.00  0.00    +0.008 A 
ATOM     12  C   UNL     1       4.634  -0.034  -5.248  0.00  0.00    +0.008 A 
ATOM     13  C   UNL     1       5.327  -1.212  -5.453  0.00  0.00    +0.000 A 
ATOM     14  C   UNL     1       5.318  -2.197  -4.483  0.00  0.00    +0.000 A 
ATOM     15  C   UNL     1       4.616  -2.004  -3.308  0.00  0.00    +0.000 A 
ATOM     16  C   UNL     1       3.926  -0.825  -3.101  0.00  0.00    +0.008 A 
ENDBRANCH   8  11
BRANCH   2  17
ATOM     17  N   UNL     1      -2.227  -1.029  -2.320  0.00  0.00    +0.385 N 
ATOM     18  H   UNL     1      -2.704  -0.143  -2.256  0.00  0.00    -0.089 HD
ATOM     19  H   UNL     1      -2.852  -1.721  -2.707  0.00  0.00    -0.089 HD
ATOM     20  H   UNL     1      -1.933  -1.319  -1.399  0.00  0.00    -0.089 HD
ENDBRANCH   2  17
BRANCH   3  21
ATOM     21  O   UNL     1      -2.174   0.901  -4.355  0.00  0.00    -0.368 OA
ATOM     22  H   UNL     1      -2.480   1.312  -5.175  0.00  0.00    +0.212 HD
ENDBRANCH   3  21
BRANCH   1  23
ATOM     23  O   UNL     1       0.430  -0.497  -1.313  0.00  0.00    -0.358 OA
BRANCH  23  25
ATOM     24  C   UNL     1       1.535   1.541  -0.630  0.00  0.00    +0.054 C 
ATOM     25  C   UNL     1       0.540   0.445  -0.244  0.00  0.00    +0.171 C 
BRANCH  25  26
ATOM     26  C   UNL     1      -0.809   1.063   0.021  0.00  0.00    +0.387 C 
ATOM     27  O   UNL     1      -1.796   0.646  -0.561  0.00  0.00    -0.243 OA
ATOM     28  O   UNL     1      -0.913   1.979   0.818  0.00  0.00    -0.243 OA
ENDBRANCH  25  26
BRANCH  25  29
ATOM     29  C   UNL     1       1.031  -0.269   1.017  0.00  0.00    +0.081 C 
BRANCH  29  30
ATOM     30  C   UNL     1       2.430  -0.781   0.791  0.00  0.00    -0.044 A 
ATOM     31  C   UNL     1       2.628  -2.046   0.271  0.00  0.00    +0.004 A 
ATOM     32  C   UNL     1       3.912  -2.515   0.064  0.00  0.00    +0.000 A 
ATOM     33  C   UNL     1       4.998  -1.719   0.378  0.00  0.00    +0.000 A 
ATOM     34  C   UNL     1       4.800  -0.454   0.897  0.00  0.00    +0.000 A 
ATOM     35  C   UNL     1       3.516   0.017   1.100  0.00  0.00    +0.004 A 
ENDBRANCH  29  30
ENDBRANCH  25  29
ENDBRANCH  23  25
ENDBRANCH   1  23
TORSDOF 8
