REMARK  Name = ZINC66504504
REMARK  7 active torsions:
REMARK  status: ('A' for Active; 'I' for Inactive)
REMARK    1  A    between atoms: C_1  and  C_2
REMARK    2  A    between atoms: C_3  and  C_12
REMARK    3  A    between atoms: C_14  and  C_15
REMARK    4  A    between atoms: C_14  and  C_17
REMARK    5  A    between atoms: C_17  and  C_19
REMARK    6  A    between atoms: N_24  and  C_26
REMARK    7  A    between atoms: C_26  and  C_27
REMARK                            x       y       z     vdW  Elec       q    Type
REMARK                         _______ _______ _______ _____ _____    ______ ____
ROOT
ATOM      1  C   UNL     1      -0.005  -0.336  -2.517  0.00  0.00    +0.209 C 
ATOM      2  O   UNL     1       1.091  -0.490  -3.288  0.00  0.00    -0.286 OA
ATOM      3  C   UNL     1      -1.156   0.261  -3.047  0.00  0.00    +0.141 C 
ENDROOT
BRANCH   1   6
ATOM      4  C   UNL     1      -0.018   1.503   0.010  0.00  0.00    +0.064 C 
ATOM      5  C   UNL     1       0.002  -0.004   0.002  0.00  0.00    +0.025 A 
ATOM      6  C   UNL     1       0.008  -0.793  -1.129  0.00  0.00    +0.051 A 
ATOM      7  C   UNL     1       0.029  -2.191  -0.656  0.00  0.00    +0.011 A 
ATOM      8  C   UNL     1       0.042  -3.427  -1.295  0.00  0.00    +0.011 A 
ATOM      9  C   UNL     1       0.061  -4.583  -0.544  0.00  0.00    +0.001 A 
ATOM     10  C   UNL     1       0.066  -4.516   0.842  0.00  0.00    +0.002 A 
ATOM     11  C   UNL     1       0.052  -3.299   1.486  0.00  0.00    +0.026 A 
ATOM     12  C   UNL     1       0.034  -2.121   0.746  0.00  0.00    +0.047 A 
ATOM     13  N   UNL     1       0.024  -0.787   1.099  0.00  0.00    -0.358 N 
ATOM     14  H   UNL     1       0.028  -0.458   2.011  0.00  0.00    +0.166 HD
ENDBRANCH   1   6
BRANCH   3  15
ATOM     15  C   UNL     1      -1.169   0.708  -4.408  0.00  0.00    +0.107 C 
ATOM     16  N   UNL     1      -1.179   1.063  -5.487  0.00  0.00    -0.191 NA
ENDBRANCH   3  15
BRANCH   3  17
ATOM     17  C   UNL     1      -2.301   0.422  -2.242  0.00  0.00    +0.182 C 
ATOM     18  O   UNL     1      -2.291   0.043  -1.087  0.00  0.00    -0.291 OA
BRANCH  17  19
ATOM     19  C   UNL     1      -3.539   1.065  -2.812  0.00  0.00    +0.087 C 
ATOM     20  C   UNL     1      -4.524  -0.004  -3.342  0.00  0.00    +0.109 C 
ATOM     21  C   UNL     1      -5.890   0.546  -2.995  0.00  0.00    +0.217 C 
ATOM     22  O   UNL     1      -6.935   0.161  -3.474  0.00  0.00    -0.276 OA
ATOM     23  N   UNL     1      -5.776   1.522  -2.079  0.00  0.00    -0.292 N 
ATOM     24  C   UNL     1      -4.374   1.739  -1.701  0.00  0.00    +0.120 C 
BRANCH  23  25
ATOM     25  C   UNL     1      -6.906   2.275  -1.528  0.00  0.00    +0.221 C 
BRANCH  25  26
ATOM     26  C   UNL     1      -7.434   1.562  -0.281  0.00  0.00    +0.405 C 
ATOM     27  F   UNL     1      -6.416   1.482   0.676  0.00  0.00    -0.169 F 
ATOM     28  F   UNL     1      -8.513   2.281   0.245  0.00  0.00    -0.169 F 
ATOM     29  F   UNL     1      -7.854   0.273  -0.623  0.00  0.00    -0.169 F 
ENDBRANCH  25  26
ENDBRANCH  23  25
ENDBRANCH  17  19
ENDBRANCH   3  17
TORSDOF 6
