REMARK  Name = ZINC07898912
REMARK  5 active torsions:
REMARK  status: ('A' for Active; 'I' for Inactive)
REMARK    1  A    between atoms: C_6  and  C_7
REMARK    2  A    between atoms: C_10  and  C_12
REMARK    3  A    between atoms: C_12  and  N_13
REMARK    4  A    between atoms: C_14  and  C_16
REMARK    5  A    between atoms: C_21  and  N_22
REMARK                            x       y       z     vdW  Elec       q    Type
REMARK                         _______ _______ _______ _____ _____    ______ ____
ROOT
ATOM      1  N   UNL     1       2.752   0.047  -0.551  0.00  0.00    -0.304 N 
ATOM      2  C   UNL     1       2.588   1.379  -0.426  0.00  0.00    +0.247 C 
ATOM      3  O   UNL     1       3.549   2.120  -0.500  0.00  0.00    -0.270 OA
ATOM      4  H   UNL     1       1.985  -0.543  -0.492  0.00  0.00    +0.149 HD
ENDROOT
BRANCH   2   5
ATOM      5  C   UNL     1       1.240   1.939  -0.199  0.00  0.00    +0.067 A 
ATOM      6  C   UNL     1       0.199   1.642  -1.081  0.00  0.00    +0.017 A 
ATOM      7  C   UNL     1      -1.055   2.172  -0.867  0.00  0.00    +0.021 A 
ATOM      8  C   UNL     1      -1.288   2.990   0.227  0.00  0.00    +0.043 A 
ATOM      9  C   UNL     1      -0.260   3.288   1.106  0.00  0.00    +0.053 A 
ATOM     10  C   UNL     1       1.001   2.768   0.899  0.00  0.00    +0.140 A 
ATOM     11 CL   UNL     1      -2.872   3.648   0.493  0.00  0.00    -0.083 Cl
BRANCH  10  12
ATOM     12  N   UNL     1       2.098   3.087   1.840  0.00  0.00    +0.057 N 
ATOM     13  O   UNL     1       1.922   3.904   2.726  0.00  0.00    -0.126 OA
ATOM     14  O   UNL     1       3.177   2.533   1.728  0.00  0.00    -0.126 OA
ENDBRANCH  10  12
ENDBRANCH   2   5
BRANCH   1  15
ATOM     15  C   UNL     1       4.089  -0.508  -0.776  0.00  0.00    +0.179 C 
BRANCH  15  19
ATOM     16  C   UNL     1       3.971  -4.131  -0.317  0.00  0.00    +0.135 A 
ATOM     17  C   UNL     1       3.785  -4.072  -1.662  0.00  0.00    +0.050 A 
ATOM     18  C   UNL     1       3.804  -2.707  -2.015  0.00  0.00    +0.047 A 
ATOM     19  C   UNL     1       3.999  -2.009  -0.880  0.00  0.00    +0.123 A 
ATOM     20  O   UNL     1       4.105  -2.872   0.144  0.00  0.00    -0.458 OA
BRANCH  16  26
ATOM     21  C   UNL     1       3.871  -6.611  -0.108  0.00  0.00    +0.013 A 
ATOM     22  C   UNL     1       3.926  -7.757   0.658  0.00  0.00    +0.021 A 
ATOM     23  C   UNL     1       4.123  -7.671   2.026  0.00  0.00    +0.041 A 
ATOM     24  C   UNL     1       4.271  -6.435   2.633  0.00  0.00    +0.021 A 
ATOM     25  C   UNL     1       4.222  -5.282   1.878  0.00  0.00    +0.013 A 
ATOM     26  C   UNL     1       4.024  -5.362   0.498  0.00  0.00    +0.017 A 
ATOM     27 CL   UNL     1       4.185  -9.118   2.983  0.00  0.00    -0.084 Cl
ENDBRANCH  16  26
ENDBRANCH  15  19
ENDBRANCH   1  15
TORSDOF 5
