REMARK  Name = ZINC09318106
REMARK  4 active torsions:
REMARK  status: ('A' for Active; 'I' for Inactive)
REMARK    1  A    between atoms: C_4  and  C_7
REMARK    2  A    between atoms: C_7  and  N_8
REMARK    3  A    between atoms: C_23  and  C_29
REMARK    4  A    between atoms: C_29  and  C_31
REMARK                            x       y       z     vdW  Elec       q    Type
REMARK                         _______ _______ _______ _____ _____    ______ ____
ROOT
ATOM      1  N   UNL     1       1.289   6.639  -2.043  0.00  0.00    -0.237 N 
ATOM      2  C   UNL     1       1.326   6.126  -0.776  0.00  0.00    +0.228 C 
ATOM      3  O   UNL     1       0.544   6.343   0.124  0.00  0.00    -0.275 OA
ATOM      4  C   UNL     1       2.540   5.233  -0.733  0.00  0.00    +0.113 C 
ATOM      5  C   UNL     1       2.495   3.889  -0.004  0.00  0.00    +0.100 C 
ATOM      6  C   UNL     1       1.145   3.198  -0.001  0.00  0.00    -0.021 A 
ATOM      7  C   UNL     1      -0.055   3.846   0.020  0.00  0.00    +0.006 A 
ATOM      8  C   UNL     1      -1.242   3.132   0.032  0.00  0.00    +0.000 A 
ATOM      9  C   UNL     1      -1.217   1.748   0.017  0.00  0.00    +0.001 A 
ATOM     10  C   UNL     1      -0.013   1.076   0.008  0.00  0.00    +0.008 A 
ATOM     11  C   UNL     1       1.187   1.789   0.000  0.00  0.00    -0.019 A 
ATOM     12  C   UNL     1       2.478   1.065  -0.007  0.00  0.00    +0.022 C 
ATOM     13  C   UNL     1       3.569   1.699  -0.526  0.00  0.00    +0.054 C 
ATOM     14  C   UNL     1       3.307   3.573  -2.291  0.00  0.00    +0.144 C 
ATOM     15  C   UNL     1       2.407   4.727  -2.220  0.00  0.00    +0.116 C 
ATOM     16  C   UNL     1       2.115   5.964  -2.914  0.00  0.00    +0.228 C 
ATOM     17  O   UNL     1       2.506   6.321  -4.004  0.00  0.00    -0.275 OA
ATOM     18  N   UNL     1       3.465   3.193  -0.838  0.00  0.00    -0.384 NA
ATOM     19  H   UNL     1       4.376   3.578  -0.565  0.00  0.00    +0.127 HD
ENDROOT
BRANCH  14  20
ATOM     20  C   UNL     1       4.713   4.020  -2.600  0.00  0.00    +0.217 C 
ATOM     21  O   UNL     1       5.537   4.089  -1.712  0.00  0.00    -0.287 OA
BRANCH  20  22
ATOM     22  C   UNL     1       5.071   4.359  -3.925  0.00  0.00    +0.172 A 
ATOM     23  C   UNL     1       6.315   4.782  -4.348  0.00  0.00    +0.053 A 
ATOM     24  C   UNL     1       6.212   5.002  -5.729  0.00  0.00    +0.042 A 
ATOM     25  C   UNL     1       4.940   4.712  -6.087  0.00  0.00    +0.196 A 
ATOM     26  O   UNL     1       4.259   4.322  -5.003  0.00  0.00    -0.460 OA
ENDBRANCH  20  22
ENDBRANCH  14  20
BRANCH   1  27
ATOM     27  C   UNL     1       0.461   7.783  -2.432  0.00  0.00    +0.151 C 
BRANCH  27  31
ATOM     28  C   UNL     1       2.674  11.395  -1.884  0.00  0.00    +0.000 A 
ATOM     29  C   UNL     1       2.728  10.728  -3.094  0.00  0.00    +0.000 A 
ATOM     30  C   UNL     1       2.012   9.559  -3.271  0.00  0.00    +0.005 A 
ATOM     31  C   UNL     1       1.242   9.057  -2.239  0.00  0.00    -0.030 A 
ATOM     32  C   UNL     1       1.183   9.727  -1.031  0.00  0.00    +0.005 A 
ATOM     33  C   UNL     1       1.904  10.893  -0.852  0.00  0.00    +0.000 A 
ENDBRANCH  27  31
ENDBRANCH   1  27
TORSDOF 4
