REMARK  Name = ZINC04751863
REMARK  3 active torsions:
REMARK  status: ('A' for Active; 'I' for Inactive)
REMARK    1  A    between atoms: C_1  and  N_2
REMARK    2  A    between atoms: C_5  and  C_10
REMARK    3  A    between atoms: N_18  and  C_20
REMARK                            x       y       z     vdW  Elec       q    Type
REMARK                         _______ _______ _______ _____ _____    ______ ____
ROOT
ATOM      1  C   UNL     1       4.560  -4.639   0.867  0.00  0.00    +0.139 C 
ATOM      2  N   UNL     1       3.404  -3.790   0.569  0.00  0.00    -0.260 N 
ATOM      3  C   UNL     1       2.581  -3.436   1.600  0.00  0.00    +0.042 C 
ATOM      4  C   UNL     1       1.500  -2.656   1.394  0.00  0.00    +0.058 C 
ATOM      5  C   UNL     1       1.229  -2.186  -0.021  0.00  0.00    +0.142 C 
ATOM      6  N   UNL     1       2.176  -2.622  -1.061  0.00  0.00    -0.288 N 
ATOM      7  C   UNL     1       3.213  -3.402  -0.699  0.00  0.00    +0.307 C 
ATOM      8  O   UNL     1       4.000  -3.767  -1.550  0.00  0.00    -0.252 OA
ATOM      9  C   UNL     1       0.817  -2.435   2.608  0.00  0.00    +0.251 C 
ATOM     10  O   UNL     1      -0.195  -1.767   2.716  0.00  0.00    -0.270 OA
ATOM     11  N   UNL     1       1.429  -3.059   3.630  0.00  0.00    -0.262 N 
ATOM     12  C   UNL     1       2.604  -3.750   3.079  0.00  0.00    +0.165 C 
ATOM     13  H   UNL     1       2.055  -2.354  -1.985  0.00  0.00    +0.151 HD
ENDROOT
BRANCH  11  14
ATOM     14  C   UNL     1       1.023  -3.052   4.969  0.00  0.00    +0.037 A 
ATOM     15  C   UNL     1       1.754  -3.751   5.921  0.00  0.00    +0.025 A 
ATOM     16  C   UNL     1       1.355  -3.736   7.243  0.00  0.00    +0.022 A 
ATOM     17  C   UNL     1       0.221  -3.037   7.618  0.00  0.00    +0.041 A 
ATOM     18  C   UNL     1      -0.513  -2.345   6.670  0.00  0.00    +0.022 A 
ATOM     19  C   UNL     1      -0.114  -2.351   5.348  0.00  0.00    +0.025 A 
ATOM     20 CL   UNL     1      -0.283  -3.028   9.279  0.00  0.00    -0.084 Cl
ENDBRANCH  11  14
BRANCH   5  21
ATOM     21  C   UNL     1       1.208  -0.679  -0.013  0.00  0.00    -0.023 A 
ATOM     22  C   UNL     1       0.002  -0.004   0.002  0.00  0.00    +0.006 A 
ATOM     23  C   UNL     1      -0.017   1.378   0.010  0.00  0.00    +0.000 A 
ATOM     24  C   UNL     1       1.171   2.086   0.002  0.00  0.00    +0.000 A 
ATOM     25  C   UNL     1       2.377   1.411  -0.015  0.00  0.00    +0.000 A 
ATOM     26  C   UNL     1       2.396   0.029  -0.021  0.00  0.00    +0.006 A 
ENDBRANCH   5  21
TORSDOF 2
