REMARK  Name = ZINC04940368
REMARK  7 active torsions:
REMARK  status: ('A' for Active; 'I' for Inactive)
REMARK    1  A    between atoms: C_1  and  C_2
REMARK    2  A    between atoms: C_2  and  C_3
REMARK    3  A    between atoms: C_3  and  C_4
REMARK    4  A    between atoms: C_10  and  O_14
REMARK    5  A    between atoms: O_14  and  C_15
REMARK    6  A    between atoms: C_20  and  C_23
REMARK    7  A    between atoms: C_20  and  C_24
REMARK                            x       y       z     vdW  Elec       q    Type
REMARK                         _______ _______ _______ _____ _____    ______ ____
ROOT
ATOM      1  C   UNL     1      -0.718   1.572   1.248  0.00  0.00    +0.048 A 
ATOM      2  C   UNL     1      -0.353   2.786   1.817  0.00  0.00    +0.003 A 
ATOM      3  C   UNL     1      -1.000   3.235   2.942  0.00  0.00    -0.026 A 
ATOM      4  C   UNL     1      -2.023   2.445   3.516  0.00  0.00    +0.037 A 
ATOM      5  C   UNL     1      -2.827   2.743   4.716  0.00  0.00    +0.094 A 
ATOM      6  C   UNL     1      -3.781   1.779   5.068  0.00  0.00    +0.102 A 
ATOM      7  C   UNL     1      -4.593   1.952   6.177  0.00  0.00    +0.232 A 
ATOM      8  N   UNL     1      -4.446   3.059   6.901  0.00  0.00    -0.200 NA
ATOM      9  C   UNL     1      -3.543   3.958   6.557  0.00  0.00    +0.225 A 
ATOM     10  N   UNL     1      -2.757   3.828   5.518  0.00  0.00    -0.234 NA
ATOM     11  S   UNL     1      -3.614   0.513   3.839  0.00  0.00    -0.062 S 
ATOM     12  C   UNL     1      -2.311   1.231   2.869  0.00  0.00    +0.112 A 
ATOM     13  N   UNL     1      -1.672   0.839   1.787  0.00  0.00    -0.244 NA
ATOM     14  C   UNL     1      -0.652   4.549   3.587  0.00  0.00    +0.070 C 
ATOM     15  C   UNL     1       0.710   5.027   3.079  0.00  0.00    +0.068 C 
ATOM     16  O   UNL     1       0.720   4.934   1.650  0.00  0.00    -0.369 OA
ATOM     17  C   UNL     1       0.747   3.590   1.173  0.00  0.00    +0.197 C 
ATOM     18  C   UNL     1       0.935   6.481   3.501  0.00  0.00    +0.041 C 
ATOM     19  C   UNL     1       1.815   4.142   3.659  0.00  0.00    +0.041 C 
ENDROOT
BRANCH   7  20
ATOM     20  O   UNL     1      -5.516   1.018   6.515  0.00  0.00    -0.479 OA
ATOM     21  C   UNL     1      -6.310   1.280   7.674  0.00  0.00    +0.279 C 
ENDBRANCH   7  20
BRANCH   1  22
ATOM     22  C   UNL     1      -0.013   1.086   0.008  0.00  0.00    +0.055 C 
BRANCH  22  24
ATOM     23  C   UNL     1      -0.037   1.099  -2.490  0.00  0.00    +0.004 C 
ATOM     24  C   UNL     1      -0.753   1.593  -1.232  0.00  0.00    +0.003 C 
ENDBRANCH  22  24
ENDBRANCH   1  22
TORSDOF 3
