REMARK  Name = ZINC17041610
REMARK  6 active torsions:
REMARK  status: ('A' for Active; 'I' for Inactive)
REMARK    1  A    between atoms: C_1  and  C_2
REMARK    2  A    between atoms: C_5  and  C_8
REMARK    3  A    between atoms: C_8  and  N_9
REMARK    4  A    between atoms: C_10  and  C_12
REMARK    5  A    between atoms: N_14  and  C_31
REMARK    6  A    between atoms: N_21  and  C_24
REMARK                            x       y       z     vdW  Elec       q    Type
REMARK                         _______ _______ _______ _____ _____    ______ ____
ROOT
ATOM      1  C   UNL     1       2.448   3.841  -0.139  0.00  0.00    +0.078 A 
ATOM      2  C   UNL     1       3.134   2.947  -0.939  0.00  0.00    +0.101 A 
ATOM      3  N   UNL     1       2.316   1.928  -1.255  0.00  0.00    -0.344 N 
ATOM      4  C   UNL     1       1.083   2.134  -0.669  0.00  0.00    +0.132 A 
ATOM      5  C   UNL     1       1.141   3.326   0.036  0.00  0.00    +0.086 A 
ATOM      6  N   UNL     1       0.022   3.764   0.721  0.00  0.00    -0.305 N 
ATOM      7  H   UNL     1       0.052   4.597   1.217  0.00  0.00    +0.170 HD
ATOM      8  C   UNL     1      -1.111   3.035   0.699  0.00  0.00    +0.334 A 
ATOM      9  O   UNL     1      -2.086   3.434   1.306  0.00  0.00    -0.246 OA
ATOM     10  N   UNL     1      -1.187   1.879   0.018  0.00  0.00    -0.227 N 
ATOM     11  C   UNL     1      -0.127   1.400  -0.664  0.00  0.00    +0.285 A 
ATOM     12  O   UNL     1      -0.212   0.349  -1.274  0.00  0.00    -0.265 OA
ATOM     13  C   UNL     1       2.677   0.779  -2.089  0.00  0.00    +0.149 C 
ENDROOT
BRANCH  10  14
ATOM     14  C   UNL     1      -2.389   1.157   0.020  0.00  0.00    +0.055 A 
ATOM     15  C   UNL     1      -2.622   0.198   0.997  0.00  0.00    +0.028 A 
ATOM     16  C   UNL     1      -3.809  -0.508   0.999  0.00  0.00    +0.022 A 
ATOM     17  C   UNL     1      -4.760  -0.269   0.023  0.00  0.00    +0.041 A 
ATOM     18  C   UNL     1      -4.527   0.682  -0.955  0.00  0.00    +0.022 A 
ATOM     19  C   UNL     1      -3.344   1.395  -0.959  0.00  0.00    +0.028 A 
ATOM     20 CL   UNL     1      -6.248  -1.163   0.025  0.00  0.00    -0.084 Cl
ENDBRANCH  10  14
BRANCH   1  22
ATOM     21  N   UNL     1       4.250   5.460   0.175  0.00  0.00    -0.307 N 
ATOM     22  C   UNL     1       2.978   5.093   0.426  0.00  0.00    +0.248 C 
ATOM     23  O   UNL     1       2.268   5.796   1.119  0.00  0.00    -0.270 OA
ATOM     24  H   UNL     1       4.817   4.899  -0.378  0.00  0.00    +0.149 HD
BRANCH  21  25
ATOM     25  C   UNL     1       4.777   6.706   0.736  0.00  0.00    +0.139 C 
BRANCH  25  30
ATOM     26  C   UNL     1      10.277   7.385  -0.904  0.00  0.00    +0.044 C 
ATOM     27  C   UNL     1       8.842   7.208  -0.476  0.00  0.00    -0.050 A 
ATOM     28  C   UNL     1       7.821   7.719  -1.254  0.00  0.00    +0.003 A 
ATOM     29  C   UNL     1       6.505   7.557  -0.862  0.00  0.00    +0.005 A 
ATOM     30  C   UNL     1       6.211   6.883   0.308  0.00  0.00    -0.030 A 
ATOM     31  C   UNL     1       7.233   6.376   1.089  0.00  0.00    +0.005 A 
ATOM     32  C   UNL     1       8.548   6.534   0.695  0.00  0.00    +0.003 A 
ENDBRANCH  25  30
ENDBRANCH  21  25
ENDBRANCH   1  22
TORSDOF 4
