REMARK  Name = ZINC59059670
REMARK  11 active torsions:
REMARK  status: ('A' for Active; 'I' for Inactive)
REMARK    1  A    between atoms: C_1  and  C_2
REMARK    2  A    between atoms: C_2  and  N_3
REMARK    3  A    between atoms: N_3  and  C_4
REMARK    4  A    between atoms: N_3  and  C_6
REMARK    5  A    between atoms: C_4  and  C_5
REMARK    6  A    between atoms: C_6  and  C_8
REMARK    7  A    between atoms: C_6  and  C_24
REMARK    8  A    between atoms: C_8  and  N_9
REMARK    9  A    between atoms: N_12  and  C_13
REMARK   10  A    between atoms: C_15  and  C_20
REMARK   11  A    between atoms: N_22  and  C_23
REMARK                            x       y       z     vdW  Elec       q    Type
REMARK                         _______ _______ _______ _____ _____    ______ ____
ROOT
ATOM      1  N   UNL     1      -3.387  -1.580  -1.022  0.00  0.00    -0.300 N 
ATOM      2  C   UNL     1      -4.717  -1.377  -1.110  0.00  0.00    +0.304 C 
ATOM      3  O   UNL     1      -5.429  -1.589  -0.148  0.00  0.00    -0.253 OA
ATOM      4  N   UNL     1      -5.257  -0.941  -2.265  0.00  0.00    -0.268 N 
ATOM      5  H   UNL     1      -2.819  -1.412  -1.790  0.00  0.00    +0.150 HD
ATOM      6  H   UNL     1      -4.699  -0.832  -3.051  0.00  0.00    +0.156 HD
ENDROOT
BRANCH   4   7
ATOM      7  C   UNL     1      -6.623  -0.643  -2.331  0.00  0.00    +0.054 A 
ATOM      8  C   UNL     1      -7.276  -0.137  -1.219  0.00  0.00    +0.038 A 
ATOM      9  C   UNL     1      -8.638   0.159  -1.289  0.00  0.00    +0.039 A 
ATOM     10  C   UNL     1      -9.335  -0.059  -2.480  0.00  0.00    +0.014 A 
ATOM     11  C   UNL     1      -8.677  -0.564  -3.582  0.00  0.00    +0.022 A 
ATOM     12  C   UNL     1      -7.324  -0.851  -3.514  0.00  0.00    +0.062 A 
ATOM     13 CL   UNL     1      -6.503  -1.479  -4.908  0.00  0.00    -0.082 Cl
BRANCH   9  14
ATOM     14  C   UNL     1      -9.341   0.699  -0.107  0.00  0.00    +0.244 C 
ATOM     15  O   UNL     1      -8.733   0.886   0.929  0.00  0.00    -0.270 OA
ATOM     16  N   UNL     1     -10.657   0.983  -0.177  0.00  0.00    -0.314 N 
ATOM     17  C   UNL     1     -11.354   1.519   0.995  0.00  0.00    +0.128 C 
ATOM     18  H   UNL     1     -11.142   0.833  -1.003  0.00  0.00    +0.149 HD
ENDBRANCH   9  14
ENDBRANCH   4   7
BRANCH   1  19
ATOM     19  C   UNL     1      -2.800  -2.055   0.233  0.00  0.00    +0.095 C 
BRANCH  19  20
ATOM     20  C   UNL     1      -1.276  -2.080   0.106  0.00  0.00    -0.020 C 
BRANCH  20  21
ATOM     21  C   UNL     1      -0.669  -2.514   1.416  0.00  0.00    -0.052 A 
ATOM     22  C   UNL     1       0.268  -3.529   1.453  0.00  0.00    +0.009 A 
ATOM     23  C   UNL     1       0.793  -3.895   2.648  0.00  0.00    +0.045 A 
ATOM     24  S   UNL     1      -0.042  -2.789   3.773  0.00  0.00    -0.105 S 
ATOM     25  C   UNL     1      -1.031  -1.910   2.575  0.00  0.00    +0.047 A 
ENDBRANCH  20  21
BRANCH  20  26
ATOM     26  N   UNL     1      -0.791  -0.737  -0.237  0.00  0.00    +0.385 N 
ATOM     27  H   UNL     1      -1.245  -0.420  -1.081  0.00  0.00    -0.081 HD
BRANCH  26  29
ATOM     28  C   UNL     1      -0.745   1.617   0.438  0.00  0.00    -0.017 C 
ATOM     29  C   UNL     1      -1.098   0.190   0.861  0.00  0.00    -0.081 C 
ENDBRANCH  26  29
BRANCH  26  30
ATOM     30  C   UNL     1       0.662  -0.780  -0.449  0.00  0.00    -0.081 C 
ATOM     31  C   UNL     1       0.975  -1.667  -1.655  0.00  0.00    -0.017 C 
ENDBRANCH  26  30
ENDBRANCH  20  26
ENDBRANCH  19  20
ENDBRANCH   1  19
TORSDOF 8
