REMARK  Name = ZINC44530429
REMARK  2 active torsions:
REMARK  status: ('A' for Active; 'I' for Inactive)
REMARK    1  A    between atoms: C_4  and  N_7
REMARK    2  A    between atoms: C_15  and  N_16
REMARK                            x       y       z     vdW  Elec       q    Type
REMARK                         _______ _______ _______ _____ _____    ______ ____
ROOT
ATOM      1  N   UNL     1       3.639  -0.626  -0.011  0.00  0.00    -0.283 N 
ATOM      2  C   UNL     1       4.688  -0.385  -0.852  0.00  0.00    +0.206 A 
ATOM      3  N   UNL     1       5.661  -1.210  -0.594  0.00  0.00    -0.230 NA
ATOM      4  C   UNL     1       5.302  -2.030   0.423  0.00  0.00    +0.148 A 
ATOM      5  C   UNL     1       4.003  -1.662   0.814  0.00  0.00    +0.170 A 
ATOM      6  N   UNL     1       3.418  -2.320   1.809  0.00  0.00    -0.216 NA
ATOM      7  C   UNL     1       4.044  -3.300   2.426  0.00  0.00    +0.225 A 
ATOM      8  N   UNL     1       5.265  -3.679   2.096  0.00  0.00    -0.218 NA
ATOM      9  C   UNL     1       5.927  -3.085   1.108  0.00  0.00    +0.152 A 
ENDROOT
BRANCH   9  10
ATOM     10  N   UNL     1       7.207  -3.488   0.771  0.00  0.00    -0.312 N 
ATOM     11  C   UNL     1       7.907  -4.506   1.565  0.00  0.00    +0.112 C 
ATOM     12  C   UNL     1       8.463  -5.592   0.656  0.00  0.00    +0.027 C 
ATOM     13  C   UNL     1       9.258  -4.987  -0.501  0.00  0.00    +0.018 C 
ATOM     14  C   UNL     1       8.326  -4.071  -1.300  0.00  0.00    +0.053 C 
ATOM     15  C   UNL     1       7.896  -2.911  -0.394  0.00  0.00    +0.116 C 
ATOM     16  C   UNL     1       7.090  -4.836  -1.711  0.00  0.00    +0.027 A 
ATOM     17  C   UNL     1       6.447  -4.429  -2.838  0.00  0.00    +0.022 A 
ATOM     18  C   UNL     1       5.259  -5.047  -3.242  0.00  0.00    +0.007 A 
ATOM     19  C   UNL     1       4.742  -6.048  -2.473  0.00  0.00    +0.070 A 
ATOM     20  C   UNL     1       5.427  -6.441  -1.315  0.00  0.00    +0.251 A 
ATOM     21  O   UNL     1       4.942  -7.290  -0.585  0.00  0.00    -0.268 OA
ATOM     22  N   UNL     1       6.623  -5.887  -0.998  0.00  0.00    -0.312 N 
ATOM     23  C   UNL     1       7.370  -6.487   0.101  0.00  0.00    +0.130 C 
ENDBRANCH   9  10
BRANCH   1  27
ATOM     24  C   UNL     1       0.006   1.419   0.049  0.00  0.00    +0.000 A 
ATOM     25  C   UNL     1       1.195   2.124   0.058  0.00  0.00    +0.002 A 
ATOM     26  C   UNL     1       2.401   1.450   0.038  0.00  0.00    +0.026 A 
ATOM     27  C   UNL     1       2.417   0.062   0.009  0.00  0.00    +0.049 A 
ATOM     28  C   UNL     1       1.222  -0.644   0.001  0.00  0.00    +0.026 A 
ATOM     29  C   UNL     1       0.020   0.036   0.021  0.00  0.00    +0.002 A 
ENDBRANCH   1  27
TORSDOF 2
