REMARK  Name = ZINC18219523
REMARK  8 active torsions:
REMARK  status: ('A' for Active; 'I' for Inactive)
REMARK    1  A    between atoms: C_1  and  C_2
REMARK    2  A    between atoms: C_2  and  C_29
REMARK    3  A    between atoms: C_6  and  C_12
REMARK    4  A    between atoms: N_14  and  C_15
REMARK    5  A    between atoms: C_17  and  O_24
REMARK    6  A    between atoms: C_20  and  O_21
REMARK    7  A    between atoms: O_21  and  C_22
REMARK    8  A    between atoms: O_24  and  C_25
REMARK                            x       y       z     vdW  Elec       q    Type
REMARK                         _______ _______ _______ _____ _____    ______ ____
ROOT
ATOM      1  C   UNL     1      -0.018   1.522   0.007  0.00  0.00    +0.011 C 
ATOM      2  C   UNL     1       0.003  -0.007  -0.014  0.00  0.00    -0.023 C 
ATOM      3  C   UNL     1       0.737  -0.494  -1.266  0.00  0.00    +0.058 C 
ATOM      4  C   UNL     1       2.164  -0.006  -1.238  0.00  0.00    +0.018 C 
ATOM      5  C   UNL     1       2.809   0.180  -0.067  0.00  0.00    +0.024 C 
ATOM      6  C   UNL     1       4.240   0.663  -0.064  0.00  0.00    +0.119 C 
ATOM      7  C   UNL     1       4.976   0.077  -1.270  0.00  0.00    +0.113 C 
ATOM      8  C   UNL     1       4.140   0.283  -2.507  0.00  0.00    +0.218 C 
ATOM      9  O   UNL     1       4.678   0.483  -3.575  0.00  0.00    -0.275 OA
ATOM     10  N   UNL     1       2.798   0.244  -2.428  0.00  0.00    -0.289 N 
ATOM     11  C   UNL     1       2.176  -0.064   1.163  0.00  0.00    +0.162 C 
ATOM     12  O   UNL     1       2.794   0.102   2.196  0.00  0.00    -0.292 OA
ATOM     13  C   UNL     1       0.746  -0.528   1.221  0.00  0.00    +0.086 C 
ATOM     14  C   UNL     1      -1.431  -0.541  -0.014  0.00  0.00    +0.011 C 
ATOM     15  H   UNL     1       2.270   0.396  -3.227  0.00  0.00    +0.155 HD
ENDROOT
BRANCH   6  16
ATOM     16  C   UNL     1       4.262   2.168  -0.144  0.00  0.00    +0.225 C 
ATOM     17  O   UNL     1       3.221   2.788  -0.197  0.00  0.00    -0.275 OA
ATOM     18  N   UNL     1       5.439   2.825  -0.155  0.00  0.00    -0.282 N 
ATOM     19  H   UNL     1       6.268   2.337  -0.032  0.00  0.00    +0.155 HD
BRANCH  18  20
ATOM     20  C   UNL     1       5.465   4.213  -0.346  0.00  0.00    +0.079 A 
ATOM     21  C   UNL     1       4.424   4.842  -1.013  0.00  0.00    +0.074 A 
ATOM     22  C   UNL     1       4.452   6.215  -1.200  0.00  0.00    +0.140 A 
ATOM     23  C   UNL     1       5.521   6.960  -0.721  0.00  0.00    +0.086 A 
ATOM     24  C   UNL     1       6.559   6.335  -0.055  0.00  0.00    +0.071 A 
ATOM     25  C   UNL     1       6.533   4.964   0.140  0.00  0.00    +0.143 A 
ATOM     26 CL   UNL     1       5.553   8.680  -0.958  0.00  0.00    -0.080 Cl
BRANCH  25  27
ATOM     27  O   UNL     1       7.552   4.350   0.800  0.00  0.00    -0.493 OA
ATOM     28  C   UNL     1       8.614   5.182   1.270  0.00  0.00    +0.277 C 
ENDBRANCH  25  27
BRANCH  22  29
ATOM     29  O   UNL     1       3.432   6.833  -1.854  0.00  0.00    -0.494 OA
ATOM     30  C   UNL     1       2.365   6.005  -2.321  0.00  0.00    +0.277 C 
ENDBRANCH  22  29
ENDBRANCH  18  20
ENDBRANCH   6  16
TORSDOF 4
