REMARK  Name = ZINC20431655
REMARK  6 active torsions:
REMARK  status: ('A' for Active; 'I' for Inactive)
REMARK    1  A    between atoms: C_1  and  C_2
REMARK    2  A    between atoms: N_8  and  S_9
REMARK    3  A    between atoms: S_9  and  N_12
REMARK    4  A    between atoms: N_12  and  C_13
REMARK    5  A    between atoms: C_13  and  C_20
REMARK    6  A    between atoms: C_20  and  N_21
REMARK                            x       y       z     vdW  Elec       q    Type
REMARK                         _______ _______ _______ _____ _____    ______ ____
ROOT
ATOM      1  N   UNL     1       4.784  -0.221  -1.392  0.00  0.00    -0.175 NA
ATOM      2  H   UNL     1       4.690  -1.181  -1.919  0.00  0.00    +0.150 HD
ENDROOT
BRANCH   1   3
ATOM      3  C   UNL     1       5.141   0.991  -2.134  0.00  0.00    +0.026 C 
ATOM      4  C   UNL     1       3.920   1.852  -2.314  0.00  0.00    +0.022 C 
ATOM      5  C   UNL     1       2.614   1.033  -2.283  0.00  0.00    +0.002 C 
ATOM      6  C   UNL     1       2.720  -0.296  -3.055  0.00  0.00    +0.000 C 
ATOM      7  C   UNL     1       3.458  -0.148  -4.358  0.00  0.00    +0.000 C 
ATOM      8  C   UNL     1       4.942  -0.496  -4.123  0.00  0.00    +0.002 C 
ATOM      9  C   UNL     1       5.683   0.605  -3.526  0.00  0.00    +0.022 C 
BRANCH   3  10
ATOM     10  C   UNL     1       6.210   1.769  -1.364  0.00  0.00    -0.062 C 
BRANCH  10  11
ATOM     11  N   UNL     1       5.627   2.312  -0.130  0.00  0.00    +0.379 N 
ATOM     12  H   UNL     1       6.396   2.871   0.423  0.00  0.00    -0.090 HD
ATOM     13  H   UNL     1       5.254   1.486   0.494  0.00  0.00    -0.090 HD
ATOM     14  H   UNL     1       4.795   2.985  -0.383  0.00  0.00    -0.090 HD
ENDBRANCH  10  11
ENDBRANCH   3  10
ENDBRANCH   1   3
BRANCH   1  15
ATOM     15  S   UNL     1       4.281  -0.109   0.182  0.00  0.00    +0.098 S 
ATOM     16  O   UNL     1       3.491  -1.262   0.439  0.00  0.00    -0.141 OA
ATOM     17  O   UNL     1       3.782   1.210   0.357  0.00  0.00    -0.141 OA
BRANCH  15  24
ATOM     18  C   UNL     1       5.852  -2.464   0.140  0.00  0.00    +0.026 C 
ATOM     19  C   UNL     1       6.398  -1.486   1.182  0.00  0.00    +0.078 C 
ATOM     20  C   UNL     1       7.866  -1.173   0.873  0.00  0.00    +0.020 C 
ATOM     21  C   UNL     1       8.366  -0.092   1.833  0.00  0.00    +0.003 C 
ATOM     22  C   UNL     1       7.547   1.186   1.636  0.00  0.00    +0.017 C 
ATOM     23  C   UNL     1       6.076   0.900   1.954  0.00  0.00    +0.111 C 
ATOM     24  N   UNL     1       5.628  -0.236   1.137  0.00  0.00    -0.164 NA
ENDBRANCH  15  24
ENDBRANCH   1  15
TORSDOF 5
