REMARK  Name = ZINC09077497
REMARK  8 active torsions:
REMARK  status: ('A' for Active; 'I' for Inactive)
REMARK    1  A    between atoms: C_1  and  O_2
REMARK    2  A    between atoms: O_2  and  C_3
REMARK    3  A    between atoms: C_3  and  C_5
REMARK    4  A    between atoms: C_5  and  N_6
REMARK    5  A    between atoms: C_10  and  S_25
REMARK    6  A    between atoms: N_15  and  C_16
REMARK    7  A    between atoms: C_16  and  C_18
REMARK    8  A    between atoms: S_25  and  C_28
REMARK                            x       y       z     vdW  Elec       q    Type
REMARK                         _______ _______ _______ _____ _____    ______ ____
ROOT
ATOM      1  N   UNL     1       3.663  -2.043  -0.196  0.00  0.00    -0.310 N 
ATOM      2  C   UNL     1       4.936  -2.247  -0.695  0.00  0.00    +0.058 A 
ATOM      3  C   UNL     1       5.531  -3.453  -1.095  0.00  0.00    +0.029 A 
ATOM      4  C   UNL     1       6.822  -3.477  -1.567  0.00  0.00    +0.029 A 
ATOM      5  C   UNL     1       7.573  -2.317  -1.663  0.00  0.00    +0.089 A 
ATOM      6  C   UNL     1       7.011  -1.114  -1.275  0.00  0.00    +0.044 A 
ATOM      7  C   UNL     1       5.720  -1.089  -0.803  0.00  0.00    +0.041 A 
ATOM      8  S   UNL     1       4.640   0.191  -0.215  0.00  0.00    -0.052 S 
ATOM      9  C   UNL     1       3.254  -0.789   0.139  0.00  0.00    +0.167 A 
ATOM     10  N   UNL     1       2.078  -0.408   0.625  0.00  0.00    -0.152 NA
ENDROOT
BRANCH   5  11
ATOM     11  S   UNL     1       9.226  -2.374  -2.270  0.00  0.00    -0.006 S 
ATOM     12  O   UNL     1       9.867  -1.249  -1.683  0.00  0.00    -0.170 OA
ATOM     13  O   UNL     1       9.673  -3.692  -1.984  0.00  0.00    -0.170 OA
ATOM     14  C   UNL     1       9.073  -2.141  -4.062  0.00  0.00    +0.200 C 
ENDBRANCH   5  11
BRANCH  10  15
ATOM     15  C   UNL     1       1.855   0.881   0.903  0.00  0.00    +0.272 C 
ATOM     16  O   UNL     1       2.731   1.706   0.711  0.00  0.00    -0.268 OA
BRANCH  15  17
ATOM     17  C   UNL     1       0.544   1.305   1.444  0.00  0.00    +0.074 A 
ATOM     18  C   UNL     1      -0.461   0.363   1.666  0.00  0.00    +0.016 A 
ATOM     19  C   UNL     1      -1.682   0.765   2.165  0.00  0.00    +0.001 A 
ATOM     20  C   UNL     1      -1.909   2.099   2.457  0.00  0.00    +0.003 A 
ATOM     21  C   UNL     1      -0.919   3.039   2.241  0.00  0.00    +0.039 A 
ATOM     22  C   UNL     1       0.308   2.651   1.736  0.00  0.00    +0.136 A 
ATOM     23  F   UNL     1       1.275   3.570   1.524  0.00  0.00    -0.205 F 
ENDBRANCH  15  17
ENDBRANCH  10  15
BRANCH   1  24
ATOM     24  C   UNL     1       2.751  -3.178  -0.031  0.00  0.00    +0.244 C 
BRANCH  24  25
ATOM     25  C   UNL     1       1.998  -3.033   1.266  0.00  0.00    +0.327 C 
ATOM     26  O   UNL     1       2.314  -2.175   2.056  0.00  0.00    -0.249 OA
BRANCH  25  28
ATOM     27  C   UNL     1       0.295  -3.659   2.811  0.00  0.00    +0.280 C 
ATOM     28  O   UNL     1       0.975  -3.856   1.544  0.00  0.00    -0.467 OA
ENDBRANCH  25  28
ENDBRANCH  24  25
ENDBRANCH   1  24
TORSDOF 6
