REMARK  Name = ZINC04150382
REMARK  5 active torsions:
REMARK  status: ('A' for Active; 'I' for Inactive)
REMARK    1  A    between atoms: C_1  and  C_2
REMARK    2  A    between atoms: C_8  and  C_10
REMARK    3  A    between atoms: C_10  and  S_11
REMARK    4  A    between atoms: S_11  and  C_12
REMARK    5  A    between atoms: C_15  and  C_17
REMARK                            x       y       z     vdW  Elec       q    Type
REMARK                         _______ _______ _______ _____ _____    ______ ____
ROOT
ATOM      1  S   UNL     1       4.087   5.150  -1.717  0.00  0.00    -0.059 S 
ENDROOT
BRANCH   1   2
ATOM      2  C   UNL     1       5.082   6.576  -1.430  0.00  0.00    +0.278 A 
ATOM      3  N   UNL     1       5.426   7.059  -0.258  0.00  0.00    -0.101 NA
ATOM      4  N   UNL     1       6.157   8.105  -0.425  0.00  0.00    -0.106 NA
ATOM      5  C   UNL     1       6.300   8.337  -1.708  0.00  0.00    +0.249 A 
ATOM      6  O   UNL     1       5.622   7.373  -2.370  0.00  0.00    -0.411 OA
BRANCH   5   7
ATOM      7  C   UNL     1       7.062   9.447  -2.316  0.00  0.00    +0.039 A 
ATOM      8  C   UNL     1       7.134   9.569  -3.705  0.00  0.00    +0.013 A 
ATOM      9  C   UNL     1       7.842  10.611  -4.267  0.00  0.00    +0.001 A 
ATOM     10  C   UNL     1       8.489  11.527  -3.457  0.00  0.00    +0.000 A 
ATOM     11  C   UNL     1       8.426  11.409  -2.080  0.00  0.00    +0.001 A 
ATOM     12  C   UNL     1       7.717  10.375  -1.505  0.00  0.00    +0.013 A 
ENDBRANCH   5   7
ENDBRANCH   1   2
BRANCH   1  13
ATOM     13  C   UNL     1       3.760   4.645  -0.010  0.00  0.00    +0.136 C 
BRANCH  13  21
ATOM     14  C   UNL     1      -1.336   2.054   0.019  0.00  0.00    +0.064 C 
ATOM     15  C   UNL     1      -0.016   1.328   0.009  0.00  0.00    +0.029 A 
ATOM     16  C   UNL     1       0.002  -0.004   0.002  0.00  0.00    +0.070 A 
ATOM     17  S   UNL     1       1.754  -0.349  -0.017  0.00  0.00    -0.057 S 
ATOM     18  C   UNL     1       2.326   1.334  -0.013  0.00  0.00    +0.178 A 
ATOM     19  N   UNL     1       1.158   2.050   0.002  0.00  0.00    -0.297 N 
ATOM     20  C   UNL     1       1.558   3.383   0.005  0.00  0.00    +0.117 A 
ATOM     21  C   UNL     1       2.901   3.407  -0.008  0.00  0.00    +0.071 A 
ATOM     22  N   UNL     1       3.347   2.142  -0.019  0.00  0.00    -0.225 NA
ENDBRANCH  13  21
ENDBRANCH   1  13
TORSDOF 4
